REMARK  Name = ZINC30828785
REMARK  6 active torsions:
REMARK  status: ('A' for Active; 'I' for Inactive)
REMARK    1  A    between atoms: C_8  and  C_10
REMARK    2  A    between atoms: N_12  and  C_13
REMARK    3  A    between atoms: C_13  and  N_15
REMARK    4  A    between atoms: N_15  and  C_16
REMARK    5  A    between atoms: C_19  and  N_22
REMARK    6  A    between atoms: C_28  and  C_30
REMARK                            x       y       z     vdW  Elec       q    Type
REMARK                         _______ _______ _______ _____ _____    ______ ____
ROOT
ATOM      1  C   UNL     1       8.681   5.224  -0.104  0.00  0.00    +0.033 A 
ATOM      2  C   UNL     1       9.380   4.027  -0.187  0.00  0.00    +0.025 A 
ATOM      3  C   UNL     1      10.759   4.036  -0.256  0.00  0.00    +0.025 A 
ATOM      4  C   UNL     1      11.448   5.242  -0.231  0.00  0.00    +0.030 A 
ATOM      5  C   UNL     1      10.748   6.439  -0.141  0.00  0.00    +0.025 A 
ATOM      6  C   UNL     1       9.369   6.429  -0.078  0.00  0.00    +0.025 A 
ENDROOT
BRANCH   4   7
ATOM      7  N   UNL     1      12.845   5.252  -0.294  0.00  0.00    -0.327 N 
ATOM      8  C   UNL     1      13.316   6.081  -1.412  0.00  0.00    +0.124 C 
ATOM      9  C   UNL     1      14.841   6.213  -1.339  0.00  0.00    +0.127 C 
ATOM     10  N   UNL     1      15.424   4.864  -1.277  0.00  0.00    -0.291 N 
ATOM     11  C   UNL     1      14.905   3.927  -0.269  0.00  0.00    +0.127 C 
ATOM     12  C   UNL     1      13.377   3.885  -0.384  0.00  0.00    +0.124 C 
ATOM     13  C   UNL     1      16.408   4.496  -2.122  0.00  0.00    +0.320 C 
ATOM     14  O   UNL     1      16.877   3.380  -2.057  0.00  0.00    -0.266 OA
BRANCH  13  15
ATOM     15  C   UNL     1      16.925   5.473  -3.147  0.00  0.00    +0.470 C 
ATOM     16  F   UNL     1      17.935   4.866  -3.900  0.00  0.00    -0.162 F 
ATOM     17  F   UNL     1      15.879   5.857  -3.993  0.00  0.00    -0.162 F 
ATOM     18  F   UNL     1      17.439   6.601  -2.499  0.00  0.00    -0.162 F 
ENDBRANCH  13  15
ENDBRANCH   4   7
BRANCH   1  19
ATOM     19  N   UNL     1       7.282   5.214  -0.039  0.00  0.00    -0.297 N 
ATOM     20  H   UNL     1       6.766   4.511   0.632  0.00  0.00    +0.154 HD
BRANCH  19  21
ATOM     21  C   UNL     1       6.566   6.067  -0.800  0.00  0.00    +0.141 C 
ATOM     22  S   UNL     1       7.368   7.234  -1.762  0.00  0.00    -0.018 S 
BRANCH  21  25
ATOM     23  C   UNL     1       4.505   6.853  -1.563  0.00  0.00    +0.285 C 
ATOM     24  O   UNL     1       5.074   7.682  -2.247  0.00  0.00    -0.266 OA
ATOM     25  N   UNL     1       5.220   6.000  -0.802  0.00  0.00    -0.261 N 
ATOM     26  H   UNL     1       4.705   5.250  -0.184  0.00  0.00    +0.157 HD
BRANCH  23  34
ATOM     27  C   UNL     1      -1.525   6.946  -1.900  0.00  0.00    +0.001 A 
ATOM     28  C   UNL     1      -1.400   5.893  -1.003  0.00  0.00    +0.004 A 
ATOM     29  C   UNL     1      -0.158   5.468  -0.585  0.00  0.00    +0.047 A 
ATOM     30  C   UNL     1       0.986   6.093  -1.068  0.00  0.00    +0.136 A 
ATOM     31  C   UNL     1       0.854   7.155  -1.982  0.00  0.00    +0.021 A 
ATOM     32  C   UNL     1      -0.415   7.571  -2.393  0.00  0.00    +0.011 A 
ATOM     33  C   UNL     1       2.217   7.585  -2.290  0.00  0.00    +0.063 A 
ATOM     34  C   UNL     1       3.038   6.781  -1.565  0.00  0.00    +0.191 A 
ATOM     35  O   UNL     1       2.302   5.905  -0.849  0.00  0.00    -0.450 OA
ENDBRANCH  23  34
ENDBRANCH  21  25
ENDBRANCH  19  21
ENDBRANCH   1  19
TORSDOF 6
