REMARK  Name = ZINC16094811
REMARK  8 active torsions:
REMARK  status: ('A' for Active; 'I' for Inactive)
REMARK    1  A    between atoms: C_1  and  O_2
REMARK    2  A    between atoms: O_2  and  C_3
REMARK    3  A    between atoms: C_5  and  C_11
REMARK    4  A    between atoms: C_7  and  O_9
REMARK    5  A    between atoms: O_9  and  C_10
REMARK    6  A    between atoms: N_13  and  N_14
REMARK    7  A    between atoms: N_14  and  S_15
REMARK    8  A    between atoms: S_15  and  C_18
REMARK                            x       y       z     vdW  Elec       q    Type
REMARK                         _______ _______ _______ _____ _____    ______ ____
ROOT
ATOM      1  C   UNL     1      -1.839   4.709  -2.071  0.00  0.00    +0.259 C 
ATOM      2  O   UNL     1      -1.509   5.861  -2.277  0.00  0.00    -0.269 OA
ATOM      3  N   UNL     1      -0.930   3.816  -1.635  0.00  0.00    -0.228 N 
ATOM      4  H   UNL     1      -1.193   2.897  -1.470  0.00  0.00    +0.171 HD
ENDROOT
BRANCH   1   7
ATOM      5  C   UNL     1      -5.491   4.814  -2.964  0.00  0.00    +0.124 A 
ATOM      6  C   UNL     1      -4.181   5.212  -2.751  0.00  0.00    +0.059 A 
ATOM      7  C   UNL     1      -3.238   4.289  -2.299  0.00  0.00    +0.045 A 
ATOM      8  C   UNL     1      -3.618   2.966  -2.069  0.00  0.00    +0.059 A 
ATOM      9  C   UNL     1      -4.931   2.578  -2.279  0.00  0.00    +0.124 A 
ATOM     10  C   UNL     1      -5.865   3.499  -2.728  0.00  0.00    +0.091 A 
BRANCH   5  12
ATOM     11  C   UNL     1      -7.742   5.234  -3.603  0.00  0.00    +0.277 C 
ATOM     12  O   UNL     1      -6.410   5.713  -3.404  0.00  0.00    -0.495 OA
ENDBRANCH   5  12
BRANCH   9  13
ATOM     13  O   UNL     1      -5.302   1.291  -2.050  0.00  0.00    -0.495 OA
ATOM     14  C   UNL     1      -6.671   0.958  -2.293  0.00  0.00    +0.277 C 
ENDBRANCH   9  13
ENDBRANCH   1   7
BRANCH   3  15
ATOM     15  N   UNL     1       0.396   4.214  -1.419  0.00  0.00    -0.108 NA
ATOM     16  H   UNL     1       0.900   4.632  -2.134  0.00  0.00    +0.172 HD
BRANCH  15  17
ATOM     17  S   UNL     1       1.103   3.971   0.059  0.00  0.00    +0.075 S 
ATOM     18  O   UNL     1       2.384   4.583   0.002  0.00  0.00    -0.152 OA
ATOM     19  O   UNL     1       0.930   2.595   0.371  0.00  0.00    -0.152 OA
BRANCH  17  20
ATOM     20  C   UNL     1       0.164   4.877   1.242  0.00  0.00    +0.122 A 
ATOM     21  C   UNL     1      -0.516   4.210   2.244  0.00  0.00    +0.045 A 
ATOM     22  C   UNL     1      -1.254   4.921   3.172  0.00  0.00    +0.020 A 
ATOM     23  C   UNL     1      -1.312   6.302   3.098  0.00  0.00    +0.016 A 
ATOM     24  C   UNL     1      -0.632   6.969   2.097  0.00  0.00    +0.018 A 
ATOM     25  C   UNL     1       0.106   6.257   1.168  0.00  0.00    +0.044 A 
ATOM     26 BR   UNL     1       1.029   7.170  -0.207  0.00  0.00    -0.048 Br
ATOM     27 BR   UNL     1      -2.183   4.008   4.542  0.00  0.00    -0.050 Br
ENDBRANCH  17  20
ENDBRANCH  15  17
ENDBRANCH   3  15
TORSDOF 6
