REMARK  Name = ZINC08854200
REMARK  4 active torsions:
REMARK  status: ('A' for Active; 'I' for Inactive)
REMARK    1  A    between atoms: C_9  and  C_11
REMARK    2  A    between atoms: C_11  and  S_12
REMARK    3  A    between atoms: S_12  and  C_13
REMARK    4  A    between atoms: C_19  and  C_21
REMARK                            x       y       z     vdW  Elec       q    Type
REMARK                         _______ _______ _______ _____ _____    ______ ____
ROOT
ATOM      1  C   UNL     1      -0.013   1.086   0.008  0.00  0.00    +0.172 C 
ENDROOT
BRANCH   1  10
ATOM      2  C   UNL     1      -1.055   1.809   5.998  0.00  0.00    +0.035 A 
ATOM      3  C   UNL     1      -2.192   2.590   5.834  0.00  0.00    +0.037 A 
ATOM      4  C   UNL     1      -2.629   2.888   4.558  0.00  0.00    +0.128 A 
ATOM      5  N   UNL     1      -1.981   2.442   3.499  0.00  0.00    -0.238 NA
ATOM      6  C   UNL     1      -0.894   1.696   3.613  0.00  0.00    +0.139 A 
ATOM      7  C   UNL     1      -0.400   1.351   4.867  0.00  0.00    +0.059 A 
ATOM      8 BR   UNL     1       1.148   0.277   5.025  0.00  0.00    -0.047 Br
ATOM      9  N   UNL     1      -0.242   1.246   2.466  0.00  0.00    -0.269 N 
ATOM     10  C   UNL     1      -0.718   1.572   1.248  0.00  0.00    +0.229 C 
ATOM     11  O   UNL     1      -1.714   2.256   1.150  0.00  0.00    -0.275 OA
ATOM     12 BR   UNL     1      -3.132   3.236   7.342  0.00  0.00    -0.049 Br
ATOM     13  H   UNL     1       0.555   0.699   2.544  0.00  0.00    +0.156 HD
ENDBRANCH   1  10
BRANCH   1  14
ATOM     14  S   UNL     1      -0.890   1.687  -1.462  0.00  0.00    -0.088 S 
BRANCH  14  15
ATOM     15  C   UNL     1       0.045   1.043  -2.809  0.00  0.00    +0.160 A 
ATOM     16  N   UNL     1       1.137   0.292  -2.807  0.00  0.00    -0.133 NA
ATOM     17  N   UNL     1       1.687  -0.087  -3.876  0.00  0.00    -0.125 NA
ATOM     18  C   UNL     1       1.210   0.240  -5.066  0.00  0.00    +0.189 A 
ATOM     19  S   UNL     1      -0.213   1.209  -4.573  0.00  0.00    -0.024 S 
ATOM     20  N   UNL     1       1.677  -0.081  -6.338  0.00  0.00    -0.262 N 
ATOM     21  C   UNL     1       2.781  -0.841  -6.478  0.00  0.00    +0.233 C 
ATOM     22  O   UNL     1       3.368  -1.244  -5.496  0.00  0.00    -0.274 OA
ATOM     23  H   UNL     1       1.207   0.241  -7.123  0.00  0.00    +0.157 HD
BRANCH  21  24
ATOM     24  C   UNL     1       3.287  -1.189  -7.854  0.00  0.00    +0.204 C 
ATOM     25 CL   UNL     1       4.768  -2.207  -7.711  0.00  0.00    -0.116 Cl
ENDBRANCH  21  24
ENDBRANCH  14  15
ENDBRANCH   1  14
TORSDOF 4
