REMARK  Name = ZINC27534100
REMARK  5 active torsions:
REMARK  status: ('A' for Active; 'I' for Inactive)
REMARK    1  A    between atoms: C_1  and  C_2
REMARK    2  A    between atoms: C_2  and  C_30
REMARK    3  A    between atoms: C_4  and  N_9
REMARK    4  A    between atoms: N_12  and  C_13
REMARK    5  A    between atoms: C_14  and  C_28
REMARK                            x       y       z     vdW  Elec       q    Type
REMARK                         _______ _______ _______ _____ _____    ______ ____
ROOT
ATOM      1  C   UNL     1      -0.015   1.381   0.008  0.00  0.00    +0.056 C 
ATOM      2  C   UNL     1      -1.184   2.050   0.186  0.00  0.00    +0.058 C 
ATOM      3  C   UNL     1      -1.221   3.555   0.147  0.00  0.00    +0.011 C 
ATOM      4  C   UNL     1      -1.332   4.015  -1.309  0.00  0.00    +0.012 C 
ATOM      5  C   UNL     1      -1.381   5.543  -1.360  0.00  0.00    +0.001 C 
ATOM      6  C   UNL     1      -2.598   6.040  -0.578  0.00  0.00    +0.000 C 
ATOM      7  C   UNL     1      -2.491   5.580   0.877  0.00  0.00    +0.001 C 
ATOM      8  C   UNL     1      -2.442   4.052   0.927  0.00  0.00    +0.012 C 
ATOM      9  C   UNL     1       0.048   4.139   0.767  0.00  0.00    +0.048 C 
ATOM     10  C   UNL     1       1.267   3.494   0.165  0.00  0.00    -0.038 A 
ATOM     11  C   UNL     1       1.235   2.141  -0.184  0.00  0.00    +0.000 A 
ATOM     12  C   UNL     1       2.382   1.523  -0.676  0.00  0.00    +0.010 A 
ATOM     13  C   UNL     1       3.535   2.262  -0.855  0.00  0.00    +0.001 A 
ATOM     14  C   UNL     1       3.553   3.608  -0.537  0.00  0.00    +0.000 A 
ATOM     15  C   UNL     1       2.422   4.223  -0.026  0.00  0.00    +0.004 A 
ENDROOT
BRANCH   1  19
ATOM     16  N   UNL     1       0.863  -2.015   0.818  0.00  0.00    -0.296 N 
ATOM     17  C   UNL     1       0.766  -0.672   0.889  0.00  0.00    +0.304 C 
ATOM     18  O   UNL     1       1.367  -0.065   1.753  0.00  0.00    -0.253 OA
ATOM     19  N   UNL     1       0.002  -0.004   0.002  0.00  0.00    -0.268 N 
ATOM     20  H   UNL     1       0.319  -2.565   0.035  0.00  0.00    +0.151 HD
ATOM     21  H   UNL     1      -0.607  -0.558  -0.727  0.00  0.00    +0.156 HD
BRANCH  16  25
ATOM     22  C   UNL     1       4.197  -4.080   2.587  0.00  0.00    +0.041 C 
ATOM     23  C   UNL     1       2.936  -4.862   2.215  0.00  0.00    +0.066 C 
ATOM     24  C   UNL     1       2.135  -4.076   1.173  0.00  0.00    +0.056 C 
ATOM     25  C   UNL     1       1.693  -2.741   1.782  0.00  0.00    +0.079 C 
ATOM     26  C   UNL     1       0.882  -3.016   3.052  0.00  0.00    +0.050 C 
ATOM     27  C   UNL     1       1.730  -3.843   4.021  0.00  0.00    +0.162 C 
ATOM     28  O   UNL     1       2.134  -5.056   3.382  0.00  0.00    -0.374 OA
ATOM     29  C   UNL     1       3.330  -6.222   1.636  0.00  0.00    +0.041 C 
ENDBRANCH  16  25
ENDBRANCH   1  19
BRANCH   2  30
ATOM     30  C   UNL     1      -2.392   1.318   0.417  0.00  0.00    +0.097 C 
ATOM     31  N   UNL     1      -3.351   0.737   0.601  0.00  0.00    -0.191 NA
ENDBRANCH   2  30
TORSDOF 3
