REMARK  Name = ZINC59387284
REMARK  8 active torsions:
REMARK  status: ('A' for Active; 'I' for Inactive)
REMARK    1  A    between atoms: C_4  and  N_7
REMARK    2  A    between atoms: C_8  and  C_10
REMARK    3  A    between atoms: C_10  and  S_11
REMARK    4  A    between atoms: S_11  and  C_12
REMARK    5  A    between atoms: C_15  and  C_17
REMARK    6  A    between atoms: N_18  and  N_19
REMARK    7  A    between atoms: N_19  and  S_20
REMARK    8  A    between atoms: S_20  and  C_23
REMARK                            x       y       z     vdW  Elec       q    Type
REMARK                         _______ _______ _______ _____ _____    ______ ____
ROOT
ATOM      1  C   UNL     1       6.276  -5.205   0.371  0.00  0.00    +0.162 A 
ATOM      2  C   UNL     1       6.562  -6.529   0.468  0.00  0.00    +0.057 A 
ATOM      3  C   UNL     1       7.962  -6.645   0.526  0.00  0.00    +0.052 A 
ATOM      4  C   UNL     1       8.466  -5.378   0.462  0.00  0.00    +0.149 A 
ATOM      5  O   UNL     1       7.431  -4.516   0.363  0.00  0.00    -0.448 OA
ENDROOT
BRANCH   4   6
ATOM      6  C   UNL     1       9.885  -5.016   0.491  0.00  0.00    +0.177 C 
ATOM      7  N   UNL     1      10.239  -3.765   0.423  0.00  0.00    -0.171 NA
BRANCH   7   8
ATOM      8  N   UNL     1      11.596  -3.419   0.450  0.00  0.00    -0.137 N 
ATOM      9  H   UNL     1      12.272  -4.111   0.520  0.00  0.00    +0.197 HD
BRANCH   8  10
ATOM     10  S   UNL     1      12.047  -1.828   0.363  0.00  0.00    +0.086 S 
ATOM     11  O   UNL     1      13.454  -1.792   0.559  0.00  0.00    -0.149 OA
ATOM     12  O   UNL     1      11.425  -1.293  -0.797  0.00  0.00    -0.149 OA
BRANCH  10  13
ATOM     13  C   UNL     1      11.325  -1.006   1.745  0.00  0.00    +0.111 A 
ATOM     14  C   UNL     1      10.054  -0.447   1.624  0.00  0.00    +0.029 A 
ATOM     15  C   UNL     1       9.469   0.195   2.672  0.00  0.00    +0.010 A 
ATOM     16  C   UNL     1      10.153   0.297   3.895  0.00  0.00    -0.018 A 
ATOM     17  C   UNL     1       9.581   0.952   4.999  0.00  0.00    +0.008 A 
ATOM     18  C   UNL     1      10.273   1.031   6.168  0.00  0.00    +0.001 A 
ATOM     19  C   UNL     1      11.544   0.472   6.289  0.00  0.00    +0.001 A 
ATOM     20  C   UNL     1      12.130  -0.169   5.241  0.00  0.00    +0.008 A 
ATOM     21  C   UNL     1      11.445  -0.271   4.018  0.00  0.00    -0.016 A 
ATOM     22  C   UNL     1      12.015  -0.931   2.915  0.00  0.00    +0.037 A 
ENDBRANCH  10  13
ENDBRANCH   8  10
ENDBRANCH   7   8
ENDBRANCH   4   6
BRANCH   1  23
ATOM     23  S   UNL     1       4.661  -4.506   0.267  0.00  0.00    -0.079 S 
BRANCH  23  24
ATOM     24  C   UNL     1       4.962  -2.721   0.153  0.00  0.00    +0.173 C 
BRANCH  24  26
ATOM     25  N   UNL     1       3.622  -0.651  -0.037  0.00  0.00    -0.285 N 
ATOM     26  C   UNL     1       3.645  -1.995   0.057  0.00  0.00    +0.227 C 
ATOM     27  O   UNL     1       2.606  -2.620   0.064  0.00  0.00    -0.275 OA
ATOM     28  H   UNL     1       4.452  -0.156  -0.121  0.00  0.00    +0.155 HD
BRANCH  25  32
ATOM     29  C   UNL     1      -0.015   1.381   0.029  0.00  0.00    +0.000 A 
ATOM     30  C   UNL     1       0.140   0.218   0.763  0.00  0.00    +0.002 A 
ATOM     31  C   UNL     1       1.344  -0.457   0.743  0.00  0.00    +0.023 A 
ATOM     32  C   UNL     1       2.400   0.031  -0.015  0.00  0.00    +0.033 A 
ATOM     33  C   UNL     1       2.241   1.198  -0.751  0.00  0.00    +0.023 A 
ATOM     34  C   UNL     1       1.034   1.870  -0.727  0.00  0.00    +0.002 A 
ENDBRANCH  25  32
ENDBRANCH  24  26
ENDBRANCH  23  24
ENDBRANCH   1  23
TORSDOF 8
