REMARK  Name = ZINC36678185
REMARK  5 active torsions:
REMARK  status: ('A' for Active; 'I' for Inactive)
REMARK    1  A    between atoms: C_1  and  C_2
REMARK    2  A    between atoms: C_2  and  C_4
REMARK    3  A    between atoms: C_2  and  C_19
REMARK    4  A    between atoms: C_4  and  N_5
REMARK    5  A    between atoms: C_19  and  N_21
REMARK                            x       y       z     vdW  Elec       q    Type
REMARK                         _______ _______ _______ _____ _____    ______ ____
ROOT
ATOM      1  N   UNL     1      -2.103  -0.150  -1.226  0.00  0.00    -0.224 N 
ATOM      2  C   UNL     1      -2.771   1.008  -1.429  0.00  0.00    +0.247 C 
ATOM      3  O   UNL     1      -2.679   2.042  -0.816  0.00  0.00    -0.273 OA
ATOM      4  C   UNL     1      -3.707   0.700  -2.585  0.00  0.00    +0.113 C 
ATOM      5  C   UNL     1      -4.952   0.012  -2.029  0.00  0.00    +0.035 C 
ATOM      6  C   UNL     1      -6.102   0.026  -3.036  0.00  0.00    +0.003 C 
ATOM      7  C   UNL     1      -6.000  -1.112  -4.068  0.00  0.00    +0.000 C 
ATOM      8  C   UNL     1      -4.926  -0.733  -5.104  0.00  0.00    +0.000 C 
ATOM      9  C   UNL     1      -5.069   0.743  -5.479  0.00  0.00    +0.000 C 
ATOM     10  C   UNL     1      -3.910   1.570  -4.933  0.00  0.00    +0.003 C 
ATOM     11  C   UNL     1      -4.041   1.896  -3.446  0.00  0.00    +0.035 C 
ATOM     12  N   UNL     1      -2.841  -0.254  -3.311  0.00  0.00    -0.285 N 
ATOM     13  C   UNL     1      -2.116  -0.876  -2.350  0.00  0.00    +0.309 C 
ATOM     14  O   UNL     1      -1.559  -1.940  -2.495  0.00  0.00    -0.252 OA
ATOM     15  H   UNL     1      -2.696  -0.360  -4.250  0.00  0.00    +0.151 HD
ENDROOT
BRANCH   1  16
ATOM     16  C   UNL     1      -1.433  -0.534   0.013  0.00  0.00    +0.127 C 
BRANCH  16  18
ATOM     17  C   UNL     1      -0.019   1.526   0.010  0.00  0.00    +0.016 C 
ATOM     18  C   UNL     1       0.002  -0.004   0.002  0.00  0.00    +0.055 C 
BRANCH  18  19
ATOM     19  C   UNL     1       0.731  -0.503   1.223  0.00  0.00    +0.051 C 
ATOM     20  S   UNL     1      -0.077  -1.234   2.393  0.00  0.00    -0.040 S 
BRANCH  19  21
ATOM     21  N   UNL     1       2.064  -0.334   1.328  0.00  0.00    -0.355 N 
ATOM     22  H   UNL     1       2.554   0.109   0.618  0.00  0.00    +0.143 HD
ATOM     23  H   UNL     1       2.533  -0.655   2.114  0.00  0.00    +0.143 HD
ENDBRANCH  19  21
ENDBRANCH  18  19
ENDBRANCH  16  18
ENDBRANCH   1  16
TORSDOF 4
