REMARK  Name = ZINC50986407
REMARK  4 active torsions:
REMARK  status: ('A' for Active; 'I' for Inactive)
REMARK    1  A    between atoms: C_1  and  C_2
REMARK    2  A    between atoms: C_2  and  N_3
REMARK    3  A    between atoms: C_4  and  C_18
REMARK    4  A    between atoms: C_6  and  C_9
REMARK                            x       y       z     vdW  Elec       q    Type
REMARK                         _______ _______ _______ _____ _____    ______ ____
ROOT
ATOM      1  N   UNL     1       0.688  -0.476  -1.203  0.00  0.00    -0.279 N 
ATOM      2  C   UNL     1       2.029  -0.719  -1.296  0.00  0.00    +0.073 C 
ATOM      3  N   UNL     1       2.394  -1.128  -2.460  0.00  0.00    -0.363 N 
ATOM      4  C   UNL     1       1.200  -1.195  -3.318  0.00  0.00    +0.172 C 
ATOM      5  C   UNL     1       0.073  -0.747  -2.407  0.00  0.00    +0.101 C 
ATOM      6  N   UNL     1      -1.182  -0.640  -2.696  0.00  0.00    -0.388 N 
ATOM      7  C   UNL     1       2.987  -0.526  -0.149  0.00  0.00    +0.081 C 
ATOM      8  H   UNL     1      -1.811  -0.337  -2.022  0.00  0.00    +0.157 HD
ATOM      9  H   UNL     1      -1.496  -0.862  -3.586  0.00  0.00    +0.157 HD
ATOM     10  H   UNL     1       3.299  -1.352  -2.727  0.00  0.00    +0.162 HD
ENDROOT
BRANCH   4  11
ATOM     11  C   UNL     1       1.340  -0.262  -4.493  0.00  0.00    -0.018 A 
ATOM     12  C   UNL     1       1.937   0.975  -4.330  0.00  0.00    +0.009 A 
ATOM     13  C   UNL     1       2.071   1.831  -5.403  0.00  0.00    +0.046 A 
ATOM     14  C   UNL     1       1.606   1.457  -6.661  0.00  0.00    +0.124 A 
ATOM     15  C   UNL     1       1.002   0.215  -6.811  0.00  0.00    -0.002 A 
ATOM     16  C   UNL     1       0.877  -0.642  -5.740  0.00  0.00    +0.013 A 
ATOM     17  C   UNL     1       0.581   0.098  -8.263  0.00  0.00    +0.080 C 
ATOM     18  C   UNL     1       0.679   1.565  -8.744  0.00  0.00    +0.234 C 
ATOM     19  O   UNL     1       1.646   2.131  -7.843  0.00  0.00    -0.491 OA
ENDBRANCH   4  11
BRANCH   1  21
ATOM     20  C   UNL     1      -0.019   1.526   0.010  0.00  0.00    +0.025 C 
ATOM     21  C   UNL     1       0.002  -0.004   0.002  0.00  0.00    +0.110 C 
ENDBRANCH   1  21
TORSDOF 2
