REMARK  Name = ZINC40313382
REMARK  6 active torsions:
REMARK  status: ('A' for Active; 'I' for Inactive)
REMARK    1  A    between atoms: C_1  and  C_2
REMARK    2  A    between atoms: C_3  and  C_20
REMARK    3  A    between atoms: C_5  and  N_9
REMARK    4  A    between atoms: C_6  and  C_7
REMARK    5  A    between atoms: C_10  and  C_12
REMARK    6  A    between atoms: C_17  and  N_18
REMARK                            x       y       z     vdW  Elec       q    Type
REMARK                         _______ _______ _______ _____ _____    ______ ____
ROOT
ATOM      1  N   UNL     1       0.005  -3.116   2.086  0.00  0.00    -0.275 N 
ATOM      2  C   UNL     1       0.050  -4.424   1.764  0.00  0.00    +0.250 C 
ATOM      3  O   UNL     1       0.066  -4.764   0.597  0.00  0.00    -0.270 OA
ATOM      4  H   UNL     1      -0.008  -2.846   3.017  0.00  0.00    +0.156 HD
ENDROOT
BRANCH   1   9
ATOM      5  C   UNL     1      -0.140   1.503   0.016  0.00  0.00    +0.046 C 
ATOM      6  C   UNL     1      -0.090  -0.004   0.007  0.00  0.00    -0.021 A 
ATOM      7  C   UNL     1      -0.062  -0.711  -1.139  0.00  0.00    -0.007 A 
ATOM      8  S   UNL     1      -0.008  -2.398  -0.576  0.00  0.00    -0.077 S 
ATOM      9  C   UNL     1      -0.023  -2.157   1.084  0.00  0.00    +0.090 A 
ATOM     10  C   UNL     1      -0.063  -0.778   1.226  0.00  0.00    +0.083 A 
ATOM     11  C   UNL     1      -0.073  -0.198  -2.555  0.00  0.00    +0.052 C 
BRANCH  10  12
ATOM     12  C   UNL     1      -0.082  -0.154   2.514  0.00  0.00    +0.102 C 
ATOM     13  N   UNL     1      -0.098   0.341   3.537  0.00  0.00    -0.191 NA
ENDBRANCH  10  12
ENDBRANCH   1   9
BRANCH   2  14
ATOM     14  C   UNL     1       0.079  -5.443   2.828  0.00  0.00    +0.058 A 
ATOM     15  C   UNL     1       0.185  -5.059   4.168  0.00  0.00    +0.016 A 
ATOM     16  C   UNL     1       0.212  -6.015   5.157  0.00  0.00    +0.021 A 
ATOM     17  C   UNL     1       0.133  -7.362   4.833  0.00  0.00    +0.043 A 
ATOM     18  C   UNL     1       0.028  -7.758   3.514  0.00  0.00    +0.043 A 
ATOM     19  C   UNL     1      -0.006  -6.806   2.502  0.00  0.00    +0.038 A 
ATOM     20 CL   UNL     1       0.168  -8.557   6.092  0.00  0.00    -0.083 Cl
BRANCH  19  21
ATOM     21  N   UNL     1      -0.117  -7.202   1.176  0.00  0.00    -0.357 N 
ATOM     22  H   UNL     1      -0.057  -6.543   0.467  0.00  0.00    +0.142 HD
ATOM     23  H   UNL     1      -0.255  -8.137   0.958  0.00  0.00    +0.142 HD
ENDBRANCH  19  21
ENDBRANCH   2  14
TORSDOF 4
