REMARK  Name = ZINC22131233
REMARK  7 active torsions:
REMARK  status: ('A' for Active; 'I' for Inactive)
REMARK    1  A    between atoms: C_1  and  C_2
REMARK    2  A    between atoms: C_12  and  C_14
REMARK    3  A    between atoms: C_17  and  S_20
REMARK    4  A    between atoms: S_20  and  N_23
REMARK    5  A    between atoms: N_23  and  C_24
REMARK    6  A    between atoms: C_29  and  O_30
REMARK    7  A    between atoms: O_30  and  C_31
REMARK                            x       y       z     vdW  Elec       q    Type
REMARK                         _______ _______ _______ _____ _____    ______ ____
ROOT
ATOM      1  C   UNL     1      -1.027   3.291   0.316  0.00  0.00    +0.037 A 
ATOM      2  C   UNL     1      -1.064   1.896   0.293  0.00  0.00    +0.015 A 
ATOM      3  C   UNL     1       0.111   1.179   0.204  0.00  0.00    +0.029 A 
ATOM      4  C   UNL     1       1.324   1.840   0.127  0.00  0.00    +0.109 A 
ATOM      5  C   UNL     1       1.368   3.223   0.145  0.00  0.00    +0.029 A 
ATOM      6  C   UNL     1       0.201   3.952   0.239  0.00  0.00    +0.015 A 
ENDROOT
BRANCH   1  17
ATOM      7  C   UNL     1     -10.081   7.442   1.100  0.00  0.00    +0.008 C 
ATOM      8  C   UNL     1      -8.637   6.974   1.287  0.00  0.00    -0.009 C 
ATOM      9  C   UNL     1      -7.708   7.804   0.396  0.00  0.00    +0.010 C 
ATOM     10  C   UNL     1      -6.248   7.524   0.752  0.00  0.00    +0.056 C 
ATOM     11  C   UNL     1      -6.014   6.018   0.713  0.00  0.00    +0.054 A 
ATOM     12  C   UNL     1      -7.066   5.160   0.775  0.00  0.00    +0.015 A 
ATOM     13  S   UNL     1      -6.280   3.574   0.695  0.00  0.00    -0.057 S 
ATOM     14  C   UNL     1      -4.644   4.152   0.587  0.00  0.00    +0.165 A 
ATOM     15  N   UNL     1      -4.810   5.458   0.624  0.00  0.00    -0.229 NA
ATOM     16  N   UNL     1      -3.465   3.425   0.492  0.00  0.00    -0.261 N 
ATOM     17  C   UNL     1      -2.281   4.066   0.417  0.00  0.00    +0.250 C 
ATOM     18  O   UNL     1      -2.246   5.280   0.433  0.00  0.00    -0.270 OA
ATOM     19  C   UNL     1      -8.514   5.496   0.885  0.00  0.00    +0.047 C 
ATOM     20  H   UNL     1      -3.497   2.325   0.478  0.00  0.00    +0.157 HD
ENDBRANCH   1  17
BRANCH   4  21
ATOM     21  S   UNL     1       2.820   0.917   0.006  0.00  0.00    +0.072 S 
ATOM     22  O   UNL     1       3.857   1.756   0.496  0.00  0.00    -0.150 OA
ATOM     23  O   UNL     1       2.552  -0.365   0.558  0.00  0.00    -0.150 OA
BRANCH  21  24
ATOM     24  N   UNL     1       3.123   0.683  -1.605  0.00  0.00    -0.213 N 
ATOM     25  H   UNL     1       3.179  -0.337  -2.012  0.00  0.00    +0.174 HD
BRANCH  24  26
ATOM     26  C   UNL     1       3.307   1.785  -2.449  0.00  0.00    +0.090 A 
ATOM     27  C   UNL     1       3.952   2.920  -1.981  0.00  0.00    +0.028 A 
ATOM     28  C   UNL     1       4.137   4.005  -2.817  0.00  0.00    +0.002 A 
ATOM     29  C   UNL     1       3.672   3.965  -4.119  0.00  0.00    +0.004 A 
ATOM     30  C   UNL     1       3.023   2.839  -4.591  0.00  0.00    +0.047 A 
ATOM     31  C   UNL     1       2.838   1.746  -3.761  0.00  0.00    +0.142 A 
BRANCH  31  32
ATOM     32  O   UNL     1       2.200   0.638  -4.224  0.00  0.00    -0.493 OA
ATOM     33  C   UNL     1       1.747   0.669  -5.579  0.00  0.00    +0.277 C 
ENDBRANCH  31  32
ENDBRANCH  24  26
ENDBRANCH  21  24
ENDBRANCH   4  21
TORSDOF 5
