REMARK  Name = ZINC63383778
REMARK  11 active torsions:
REMARK  status: ('A' for Active; 'I' for Inactive)
REMARK    1  A    between atoms: C_1  and  C_2
REMARK    2  A    between atoms: C_2  and  C_3
REMARK    3  A    between atoms: C_3  and  C_5
REMARK    4  A    between atoms: C_3  and  N_6
REMARK    5  A    between atoms: C_7  and  C_9
REMARK    6  A    between atoms: C_9  and  C_11
REMARK    7  A    between atoms: C_9  and  N_15
REMARK    8  A    between atoms: C_11  and  C_12
REMARK    9  A    between atoms: C_12  and  C_13
REMARK   10  A    between atoms: C_12  and  C_14
REMARK   11  A    between atoms: C_16  and  C_18
REMARK                            x       y       z     vdW  Elec       q    Type
REMARK                         _______ _______ _______ _____ _____    ______ ____
ROOT
ATOM      1  C   UNL     1       6.241   1.340  -5.529  0.00  0.00    +0.167 C 
ATOM      2  C   UNL     1       5.811   0.191  -6.461  0.00  0.00    +0.065 C 
ATOM      3  C   UNL     1       6.848  -0.898  -6.335  0.00  0.00    -0.034 C 
ATOM      4  C   UNL     1       6.719  -2.193  -6.064  0.00  0.00    -0.001 A 
ATOM      5  C   UNL     1       5.530  -3.042  -5.887  0.00  0.00    +0.010 A 
ATOM      6  C   UNL     1       5.764  -4.348  -5.594  0.00  0.00    +0.001 A 
ATOM      7  C   UNL     1       7.047  -4.889  -5.462  0.00  0.00    +0.002 A 
ATOM      8  C   UNL     1       8.196  -4.184  -5.616  0.00  0.00    +0.026 A 
ATOM      9  C   UNL     1       8.078  -2.799  -5.933  0.00  0.00    +0.043 A 
ATOM     10  N   UNL     1       8.997  -1.906  -6.152  0.00  0.00    -0.375 N 
ATOM     11  C   UNL     1       8.342  -0.644  -6.499  0.00  0.00    +0.131 C 
ATOM     12  C   UNL     1       8.703   0.471  -5.510  0.00  0.00    +0.134 C 
ATOM     13  N   UNL     1       7.689   1.542  -5.670  0.00  0.00    -0.276 N 
ATOM     14  C   UNL     1       8.314   2.693  -5.974  0.00  0.00    +0.248 C 
ATOM     15  O   UNL     1       7.767   3.772  -6.095  0.00  0.00    -0.270 OA
ATOM     16  C   UNL     1       9.751   2.460  -6.138  0.00  0.00    +0.042 A 
ATOM     17  C   UNL     1      10.021   1.084  -5.856  0.00  0.00    -0.013 A 
ATOM     18  C   UNL     1      11.290   0.552  -5.926  0.00  0.00    +0.006 A 
ATOM     19  C   UNL     1      12.319   1.419  -6.283  0.00  0.00    +0.000 A 
ATOM     20  C   UNL     1      12.085   2.752  -6.554  0.00  0.00    +0.001 A 
ATOM     21  C   UNL     1      10.782   3.332  -6.496  0.00  0.00    +0.013 A 
ATOM     22  H   UNL     1       9.954  -2.051  -6.095  0.00  0.00    +0.160 HD
ENDROOT
BRANCH   1  24
ATOM     23  N   UNL     1       4.640   0.743  -3.740  0.00  0.00    -0.302 N 
ATOM     24  C   UNL     1       5.917   0.982  -4.101  0.00  0.00    +0.235 C 
ATOM     25  O   UNL     1       6.804   0.910  -3.278  0.00  0.00    -0.274 OA
ATOM     26  H   UNL     1       3.941   0.730  -4.412  0.00  0.00    +0.150 HD
BRANCH  23  27
ATOM     27  C   UNL     1       4.310   0.502  -2.333  0.00  0.00    +0.159 C 
BRANCH  27  29
ATOM     28  N   UNL     1       2.608  -0.776  -1.073  0.00  0.00    -0.311 N 
ATOM     29  C   UNL     1       3.000  -0.236  -2.244  0.00  0.00    +0.234 C 
ATOM     30  O   UNL     1       2.297  -0.346  -3.227  0.00  0.00    -0.274 OA
ATOM     31  H   UNL     1       3.191  -0.729  -0.299  0.00  0.00    +0.149 HD
BRANCH  28  32
ATOM     32  C   UNL     1       1.303  -1.432  -0.968  0.00  0.00    +0.070 C 
ATOM     33  C   UNL     1       1.425  -2.886  -1.429  0.00  0.00    +0.028 C 
BRANCH  32  35
ATOM     34  C   UNL     1       0.587   0.055   0.907  0.00  0.00    +0.005 C 
ATOM     35  C   UNL     1       0.829  -1.396   0.486  0.00  0.00    +0.018 C 
ENDBRANCH  32  35
ENDBRANCH  28  32
ENDBRANCH  27  29
BRANCH  27  36
ATOM     36  C   UNL     1       4.192   1.841  -1.601  0.00  0.00    +0.034 C 
BRANCH  36  37
ATOM     37  C   UNL     1       3.914   1.588  -0.118  0.00  0.00    -0.015 C 
ATOM     38  C   UNL     1       5.131   0.917   0.522  0.00  0.00    +0.007 C 
ATOM     39  C   UNL     1       3.638   2.919   0.583  0.00  0.00    +0.007 C 
ENDBRANCH  36  37
ENDBRANCH  27  36
ENDBRANCH  23  27
ENDBRANCH   1  24
TORSDOF 7
