REMARK  Name = ZINC58900646
REMARK  9 active torsions:
REMARK  status: ('A' for Active; 'I' for Inactive)
REMARK    1  A    between atoms: C_1  and  O_2
REMARK    2  A    between atoms: O_2  and  C_3
REMARK    3  A    between atoms: C_6  and  C_11
REMARK    4  A    between atoms: C_8  and  O_9
REMARK    5  A    between atoms: O_9  and  C_10
REMARK    6  A    between atoms: N_12  and  N_13
REMARK    7  A    between atoms: C_14  and  C_16
REMARK    8  A    between atoms: C_19  and  N_22
REMARK    9  A    between atoms: C_23  and  C_25
REMARK                            x       y       z     vdW  Elec       q    Type
REMARK                         _______ _______ _______ _____ _____    ______ ____
ROOT
ATOM      1  C   UNL     1      -9.741  -2.538   0.059  0.00  0.00    +0.038 A 
ATOM      2  C   UNL     1      -9.812  -3.922  -0.117  0.00  0.00    +0.015 A 
ATOM      3  C   UNL     1     -11.034  -4.556  -0.102  0.00  0.00    +0.024 A 
ATOM      4  C   UNL     1     -12.199  -3.818   0.088  0.00  0.00    +0.034 A 
ATOM      5  C   UNL     1     -12.132  -2.439   0.263  0.00  0.00    +0.024 A 
ATOM      6  C   UNL     1     -10.913  -1.801   0.256  0.00  0.00    +0.015 A 
ENDROOT
BRANCH   1   8
ATOM      7  N   UNL     1      -7.304  -2.568  -0.146  0.00  0.00    -0.203 N 
ATOM      8  C   UNL     1      -8.433  -1.856   0.043  0.00  0.00    +0.263 C 
ATOM      9  O   UNL     1      -8.373  -0.651   0.202  0.00  0.00    -0.268 OA
ATOM     10  H   UNL     1      -7.352  -3.528  -0.272  0.00  0.00    +0.178 HD
BRANCH   7  12
ATOM     11  C   UNL     1      -4.975  -2.606  -0.343  0.00  0.00    +0.138 C 
ATOM     12  N   UNL     1      -6.062  -1.920  -0.161  0.00  0.00    -0.187 NA
BRANCH  11  16
ATOM     13  C   UNL     1      -1.210  -0.637  -0.386  0.00  0.00    +0.162 A 
ATOM     14  C   UNL     1      -2.373   0.094  -0.192  0.00  0.00    +0.050 A 
ATOM     15  C   UNL     1      -3.597  -0.541  -0.177  0.00  0.00    +0.013 A 
ATOM     16  C   UNL     1      -3.668  -1.925  -0.359  0.00  0.00    -0.002 A 
ATOM     17  C   UNL     1      -2.496  -2.661  -0.555  0.00  0.00    +0.059 A 
ATOM     18  C   UNL     1      -1.274  -2.016  -0.573  0.00  0.00    +0.162 A 
BRANCH  13  20
ATOM     19  C   UNL     1      -0.013   1.409  -0.201  0.00  0.00    +0.277 C 
ATOM     20  O   UNL     1      -0.006  -0.006  -0.399  0.00  0.00    -0.491 OA
ENDBRANCH  13  20
BRANCH  18  21
ATOM     21  O   UNL     1      -0.132  -2.729  -0.769  0.00  0.00    -0.491 OA
ATOM     22  C   UNL     1      -0.272  -4.139  -0.954  0.00  0.00    +0.277 C 
ENDBRANCH  18  21
ENDBRANCH  11  16
ENDBRANCH   7  12
ENDBRANCH   1   8
BRANCH   4  23
ATOM     23  N   UNL     1     -13.434  -4.462   0.103  0.00  0.00    -0.282 N 
ATOM     24  C   UNL     1     -13.538  -5.710   0.601  0.00  0.00    +0.248 C 
ATOM     25  O   UNL     1     -12.576  -6.238   1.124  0.00  0.00    -0.270 OA
ATOM     26  H   UNL     1     -14.220  -4.012  -0.245  0.00  0.00    +0.155 HD
BRANCH  24  27
ATOM     27  C   UNL     1     -14.821  -6.438   0.510  0.00  0.00    +0.037 A 
ATOM     28  C   UNL     1     -15.926  -5.837  -0.095  0.00  0.00    +0.014 A 
ATOM     29  C   UNL     1     -17.121  -6.521  -0.176  0.00  0.00    +0.016 A 
ATOM     30  C   UNL     1     -17.226  -7.801   0.341  0.00  0.00    +0.018 A 
ATOM     31  C   UNL     1     -16.133  -8.402   0.943  0.00  0.00    +0.016 A 
ATOM     32  C   UNL     1     -14.931  -7.731   1.025  0.00  0.00    +0.014 A 
ATOM     33 BR   UNL     1     -18.868  -8.732   0.226  0.00  0.00    -0.050 Br
ENDBRANCH  24  27
ENDBRANCH   4  23
TORSDOF 7
