REMARK  Name = ZINC35918680
REMARK  6 active torsions:
REMARK  status: ('A' for Active; 'I' for Inactive)
REMARK    1  A    between atoms: C_1  and  C_2
REMARK    2  A    between atoms: C_2  and  C_3
REMARK    3  A    between atoms: C_2  and  C_4
REMARK    4  A    between atoms: C_2  and  N_5
REMARK    5  A    between atoms: C_6  and  C_8
REMARK    6  A    between atoms: C_17  and  C_20
REMARK                            x       y       z     vdW  Elec       q    Type
REMARK                         _______ _______ _______ _____ _____    ______ ____
ROOT
ATOM      1  C   UNL     1       2.677  -0.618  -2.667  0.00  0.00    +0.147 C 
ATOM      2  C   UNL     1       3.140  -2.067  -2.457  0.00  0.00    +0.085 C 
ATOM      3  C   UNL     1       4.062  -2.428  -3.596  0.00  0.00    +0.066 A 
ATOM      4  C   UNL     1       4.625  -1.506  -4.409  0.00  0.00    +0.060 A 
ATOM      5  N   UNL     1       5.384  -2.181  -5.312  0.00  0.00    -0.346 N 
ATOM      6  H   UNL     1       5.911  -1.792  -6.028  0.00  0.00    +0.167 HD
ATOM      7  C   UNL     1       5.265  -3.498  -5.023  0.00  0.00    +0.197 A 
ATOM      8  N   UNL     1       4.470  -3.633  -3.992  0.00  0.00    -0.240 NA
ATOM      9  C   UNL     1       4.403  -0.022  -4.272  0.00  0.00    +0.134 C 
ATOM     10  N   UNL     1       3.841   0.238  -2.935  0.00  0.00    -0.294 NA
ATOM     11  H   UNL     1       3.605   1.213  -2.826  0.00  0.00    +0.124 HD
ENDROOT
BRANCH   9  12
ATOM     12  C   UNL     1       5.715   0.703  -4.421  0.00  0.00    -0.024 A 
ATOM     13  C   UNL     1       6.594   0.768  -3.356  0.00  0.00    +0.008 A 
ATOM     14  C   UNL     1       7.798   1.433  -3.491  0.00  0.00    +0.038 A 
ATOM     15  C   UNL     1       8.124   2.034  -4.695  0.00  0.00    +0.123 A 
ATOM     16  C   UNL     1       7.243   1.969  -5.761  0.00  0.00    +0.038 A 
ATOM     17  C   UNL     1       6.042   1.299  -5.625  0.00  0.00    +0.008 A 
ATOM     18  F   UNL     1       9.301   2.685  -4.829  0.00  0.00    -0.205 F 
ENDBRANCH   9  12
BRANCH   1  20
ATOM     19  N   UNL     1       0.688  -0.476  -1.203  0.00  0.00    -0.309 N 
ATOM     20  C   UNL     1       1.972  -0.132  -1.427  0.00  0.00    +0.231 C 
ATOM     21  O   UNL     1       2.559   0.569  -0.630  0.00  0.00    -0.274 OA
ATOM     22  H   UNL     1       0.218  -1.037  -1.840  0.00  0.00    +0.149 HD
BRANCH  19  24
ATOM     23  C   UNL     1      -0.019   1.526   0.010  0.00  0.00    +0.031 C 
ATOM     24  C   UNL     1       0.002  -0.004   0.002  0.00  0.00    +0.026 C 
ATOM     25  C   UNL     1       0.742  -0.511   1.242  0.00  0.00    +0.031 C 
ATOM     26  C   UNL     1      -1.433  -0.534   0.013  0.00  0.00    +0.031 C 
ENDBRANCH  19  24
ENDBRANCH   1  20
TORSDOF 3
