REMARK  Name = ZINC36286258
REMARK  9 active torsions:
REMARK  status: ('A' for Active; 'I' for Inactive)
REMARK    1  A    between atoms: C_1  and  C_2
REMARK    2  A    between atoms: C_2  and  C_37
REMARK    3  A    between atoms: C_3  and  C_25
REMARK    4  A    between atoms: N_6  and  C_9
REMARK    5  A    between atoms: C_18  and  C_21
REMARK    6  A    between atoms: N_22  and  O_23
REMARK    7  A    between atoms: C_25  and  O_26
REMARK    8  A    between atoms: O_26  and  C_27
REMARK    9  A    between atoms: C_30  and  C_33
REMARK                            x       y       z     vdW  Elec       q    Type
REMARK                         _______ _______ _______ _____ _____    ______ ____
ROOT
ATOM      1  C   UNL     1      -0.707   1.132   0.370  0.00  0.00    +0.021 C 
ATOM      2  C   UNL     1      -0.211  -0.268   0.001  0.00  0.00    +0.049 C 
ATOM      3  C   UNL     1       0.918  -0.182  -1.051  0.00  0.00    +0.058 C 
ATOM      4  C   UNL     1       1.848  -1.334  -0.610  0.00  0.00    +0.116 C 
ATOM      5  N   UNL     1       1.596  -1.514   0.825  0.00  0.00    -0.297 N 
ATOM      6  C   UNL     1       0.443  -0.929   1.194  0.00  0.00    +0.222 C 
ATOM      7  O   UNL     1      -0.008  -0.932   2.320  0.00  0.00    -0.275 OA
ATOM      8  C   UNL     1      -1.368  -1.124  -0.519  0.00  0.00    +0.021 C 
ENDROOT
BRANCH   5   9
ATOM      9  C   UNL     1       2.486  -2.236   1.737  0.00  0.00    +0.082 C 
ATOM     10  C   UNL     1       3.282  -3.280   0.951  0.00  0.00    +0.011 C 
ATOM     11  C   UNL     1       2.318  -4.267   0.291  0.00  0.00    +0.009 C 
ATOM     12  C   UNL     1       1.486  -4.965   1.369  0.00  0.00    -0.009 C 
ATOM     13  C   UNL     1       0.689  -3.922   2.154  0.00  0.00    +0.009 C 
ATOM     14  C   UNL     1       1.654  -2.934   2.814  0.00  0.00    +0.011 C 
ATOM     15  C   UNL     1       2.583  -3.689   3.767  0.00  0.00    +0.020 C 
ATOM     16  C   UNL     1       3.380  -4.733   2.982  0.00  0.00    +0.030 C 
ATOM     17  C   UNL     1       4.212  -4.035   1.904  0.00  0.00    +0.020 C 
ATOM     18  C   UNL     1       2.416  -5.720   2.321  0.00  0.00    +0.018 C 
BRANCH  16  19
ATOM     19  C   UNL     1       4.296  -5.476   3.920  0.00  0.00    +0.138 C 
ATOM     20  N   UNL     1       4.311  -5.180   5.177  0.00  0.00    -0.076 NA
ATOM     21  N   UNL     1       5.117  -6.471   3.437  0.00  0.00    -0.344 N 
ATOM     22  H   UNL     1       5.106  -6.693   2.492  0.00  0.00    +0.144 HD
ATOM     23  H   UNL     1       5.706  -6.949   4.040  0.00  0.00    +0.144 HD
BRANCH  20  24
ATOM     24  O   UNL     1       5.171  -5.879   6.059  0.00  0.00    -0.408 OA
ATOM     25  H   UNL     1       5.112  -5.588   6.979  0.00  0.00    +0.328 HD
ENDBRANCH  20  24
ENDBRANCH  16  19
ENDBRANCH   5   9
BRANCH   3  26
ATOM     26  C   UNL     1       0.374  -0.426  -2.460  0.00  0.00    +0.236 C 
BRANCH  26  27
ATOM     27  O   UNL     1       1.417  -0.225  -3.416  0.00  0.00    -0.476 OA
BRANCH  27  28
ATOM     28  C   UNL     1       1.099  -0.403  -4.722  0.00  0.00    +0.215 A 
ATOM     29  C   UNL     1       2.072  -0.228  -5.698  0.00  0.00    +0.068 A 
ATOM     30  C   UNL     1       1.734  -0.413  -7.027  0.00  0.00    +0.019 A 
ATOM     31  C   UNL     1       0.428  -0.769  -7.335  0.00  0.00    +0.073 A 
ATOM     32  C   UNL     1      -0.488  -0.926  -6.314  0.00  0.00    +0.127 A 
ATOM     33  N   UNL     1      -0.134  -0.747  -5.055  0.00  0.00    -0.221 NA
BRANCH  31  34
ATOM     34  C   UNL     1       0.014  -0.980  -8.768  0.00  0.00    +0.419 C 
ATOM     35  F   UNL     1       0.210  -2.321  -9.117  0.00  0.00    -0.166 F 
ATOM     36  F   UNL     1      -1.339  -0.653  -8.916  0.00  0.00    -0.166 F 
ATOM     37  F   UNL     1       0.785  -0.163  -9.602  0.00  0.00    -0.166 F 
ENDBRANCH  31  34
ENDBRANCH  27  28
ENDBRANCH  26  27
ENDBRANCH   3  26
TORSDOF 7
