REMARK  Name = ZINC14467121
REMARK  4 active torsions:
REMARK  status: ('A' for Active; 'I' for Inactive)
REMARK    1  A    between atoms: C_1  and  C_2
REMARK    2  A    between atoms: C_3  and  N_27
REMARK    3  A    between atoms: C_9  and  C_18
REMARK    4  A    between atoms: C_23  and  O_24
REMARK                            x       y       z     vdW  Elec       q    Type
REMARK                         _______ _______ _______ _____ _____    ______ ____
ROOT
ATOM      1  C   UNL     1       4.475   1.218   0.226  0.00  0.00    +0.048 C 
ATOM      2  C   UNL     1       3.799   1.081   1.566  0.00  0.00    +0.001 A 
ATOM      3  C   UNL     1       4.556   1.118   2.716  0.00  0.00    +0.131 A 
ATOM      4  C   UNL     1       3.950   0.995   3.953  0.00  0.00    +0.033 A 
ATOM      5  C   UNL     1       2.580   0.827   4.029  0.00  0.00    +0.008 A 
ATOM      6  C   UNL     1       1.816   0.780   2.882  0.00  0.00    -0.019 A 
ATOM      7  C   UNL     1       2.414   0.918   1.626  0.00  0.00    +0.037 A 
ATOM      8  N   UNL     1       1.714   0.908   0.422  0.00  0.00    -0.336 N 
ATOM      9  C   UNL     1       0.270   0.629   0.499  0.00  0.00    +0.109 C 
ATOM     10  C   UNL     1      -0.257   1.344   1.726  0.00  0.00    +0.029 C 
ATOM     11  C   UNL     1       0.354   0.562   2.930  0.00  0.00    +0.049 C 
ATOM     12  C   UNL     1      -0.488   1.016   4.063  0.00  0.00    -0.023 C 
ATOM     13  C   UNL     1      -1.690   1.316   3.615  0.00  0.00    -0.030 C 
ATOM     14  C   UNL     1      -1.732   1.147   2.094  0.00  0.00    +0.033 C 
ATOM     15  H   UNL     1       2.163   0.307  -0.252  0.00  0.00    +0.147 HD
ENDROOT
BRANCH   9  16
ATOM     16  C   UNL     1      -0.419   1.148  -0.737  0.00  0.00    +0.017 A 
ATOM     17  C   UNL     1       0.105   2.231  -1.417  0.00  0.00    +0.029 A 
ATOM     18  C   UNL     1      -0.527   2.708  -2.551  0.00  0.00    +0.043 A 
ATOM     19  C   UNL     1      -1.686   2.103  -3.007  0.00  0.00    +0.043 A 
ATOM     20  C   UNL     1      -2.213   1.021  -2.329  0.00  0.00    +0.084 A 
ATOM     21  C   UNL     1      -1.577   0.537  -1.194  0.00  0.00    +0.140 A 
ATOM     22 CL   UNL     1      -3.666   0.261  -2.901  0.00  0.00    -0.080 Cl
ATOM     23 CL   UNL     1       0.133   4.069  -3.404  0.00  0.00    -0.083 Cl
BRANCH  21  24
ATOM     24  O   UNL     1      -2.091  -0.531  -0.528  0.00  0.00    -0.505 OA
ATOM     25  H   UNL     1      -2.691  -0.294   0.192  0.00  0.00    +0.292 HD
ENDBRANCH  21  24
ENDBRANCH   9  16
BRANCH   3  26
ATOM     26  N   UNL     1       6.024   1.290   2.628  0.00  0.00    +0.057 N 
ATOM     27  O   UNL     1       6.754   0.691   3.396  0.00  0.00    -0.126 OA
ATOM     28  O   UNL     1       6.500   2.031   1.786  0.00  0.00    -0.126 OA
ENDBRANCH   3  26
TORSDOF 3
