REMARK  Name = ZINC11730525
REMARK  7 active torsions:
REMARK  status: ('A' for Active; 'I' for Inactive)
REMARK    1  A    between atoms: C_1  and  O_2
REMARK    2  A    between atoms: O_2  and  C_3
REMARK    3  A    between atoms: C_6  and  S_9
REMARK    4  A    between atoms: S_9  and  C_12
REMARK    5  A    between atoms: C_13  and  C_24
REMARK    6  A    between atoms: N_14  and  C_17
REMARK    7  A    between atoms: C_20  and  N_23
REMARK                            x       y       z     vdW  Elec       q    Type
REMARK                         _______ _______ _______ _____ _____    ______ ____
ROOT
ATOM      1  C   UNL     1      -0.419  -2.070   0.500  0.00  0.00    +0.231 A 
ATOM      2  C   UNL     1      -0.592  -0.771   0.880  0.00  0.00    +0.120 A 
ATOM      3  N   UNL     1       0.122  -0.010  -0.007  0.00  0.00    -0.210 N 
ATOM      4  N   UNL     1       0.706  -0.909  -0.913  0.00  0.00    -0.058 NA
ATOM      5  N   UNL     1       0.366  -2.103  -0.573  0.00  0.00    -0.109 NA
ENDROOT
BRANCH   2   6
ATOM      6  C   UNL     1      -1.392  -0.281   2.025  0.00  0.00    +0.004 A 
ATOM      7  C   UNL     1      -2.752  -0.581   2.106  0.00  0.00    +0.013 A 
ATOM      8  C   UNL     1      -3.493  -0.126   3.178  0.00  0.00    +0.039 A 
ATOM      9  C   UNL     1      -2.890   0.636   4.166  0.00  0.00    +0.123 A 
ATOM     10  C   UNL     1      -1.540   0.940   4.086  0.00  0.00    +0.039 A 
ATOM     11  C   UNL     1      -0.790   0.486   3.022  0.00  0.00    +0.013 A 
ATOM     12  F   UNL     1      -3.621   1.084   5.210  0.00  0.00    -0.205 F 
ENDBRANCH   2   6
BRANCH   3  13
ATOM     13  C   UNL     1       0.241   1.387  -0.013  0.00  0.00    +0.068 A 
ATOM     14  C   UNL     1      -0.836   2.177   0.367  0.00  0.00    +0.029 A 
ATOM     15  C   UNL     1      -0.718   3.553   0.366  0.00  0.00    +0.025 A 
ATOM     16  C   UNL     1       0.476   4.147  -0.025  0.00  0.00    +0.025 A 
ATOM     17  C   UNL     1       1.551   3.356  -0.410  0.00  0.00    +0.025 A 
ATOM     18  C   UNL     1       1.434   1.981  -0.404  0.00  0.00    +0.029 A 
BRANCH  16  19
ATOM     19  N   UNL     1       0.594   5.539  -0.032  0.00  0.00    -0.358 N 
ATOM     20  H   UNL     1       1.427   5.954  -0.306  0.00  0.00    +0.142 HD
ATOM     21  H   UNL     1      -0.157   6.091   0.236  0.00  0.00    +0.142 HD
ENDBRANCH  16  19
ENDBRANCH   3  13
BRANCH   1  22
ATOM     22  S   UNL     1      -1.121  -3.474   1.301  0.00  0.00    +0.046 S 
ATOM     23  O   UNL     1      -2.207  -2.995   2.083  0.00  0.00    -0.163 OA
ATOM     24  O   UNL     1      -1.284  -4.471   0.302  0.00  0.00    -0.163 OA
BRANCH  22  28
ATOM     25  C   UNL     1       1.976  -5.044   4.208  0.00  0.00    +0.120 A 
ATOM     26  C   UNL     1       0.990  -4.171   4.647  0.00  0.00    +0.047 A 
ATOM     27  C   UNL     1       0.046  -3.694   3.758  0.00  0.00    +0.031 A 
ATOM     28  C   UNL     1       0.084  -4.085   2.432  0.00  0.00    +0.096 A 
ATOM     29  C   UNL     1       1.061  -4.959   1.994  0.00  0.00    +0.031 A 
ATOM     30  C   UNL     1       2.010  -5.435   2.877  0.00  0.00    +0.047 A 
BRANCH  25  32
ATOM     31  C   UNL     1       3.889  -6.410   4.559  0.00  0.00    +0.277 C 
ATOM     32  O   UNL     1       2.905  -5.515   5.080  0.00  0.00    -0.495 OA
ENDBRANCH  25  32
ENDBRANCH  22  28
ENDBRANCH   1  22
TORSDOF 6
