REMARK  Name = ZINC13117771
REMARK  4 active torsions:
REMARK  status: ('A' for Active; 'I' for Inactive)
REMARK    1  A    between atoms: C_3  and  C_6
REMARK    2  A    between atoms: N_8  and  C_9
REMARK    3  A    between atoms: C_12  and  C_15
REMARK    4  A    between atoms: C_20  and  C_23
REMARK                            x       y       z     vdW  Elec       q    Type
REMARK                         _______ _______ _______ _____ _____    ______ ____
ROOT
ATOM      1  C   UNL     1      -6.239  -4.688   0.027  0.00  0.00    +0.250 C 
ATOM      2  O   UNL     1      -7.190  -3.950   0.200  0.00  0.00    -0.270 OA
ATOM      3  N   UNL     1      -5.008  -4.170  -0.150  0.00  0.00    -0.261 N 
ATOM      4  C   UNL     1      -4.825  -2.794  -0.136  0.00  0.00    +0.165 A 
ATOM      5  N   UNL     1      -3.715  -2.097  -0.295  0.00  0.00    -0.225 NA
ATOM      6  C   UNL     1      -3.721  -0.773  -0.247  0.00  0.00    +0.080 A 
ATOM      7  C   UNL     1      -4.901  -0.115  -0.040  0.00  0.00    +0.076 A 
ATOM      8  S   UNL     1      -6.031  -1.495   0.095  0.00  0.00    -0.060 S 
ATOM      9  H   UNL     1      -4.250  -4.759  -0.288  0.00  0.00    +0.157 HD
ENDROOT
BRANCH   6  10
ATOM     10  C   UNL     1      -2.460  -0.012  -0.423  0.00  0.00    +0.005 A 
ATOM     11  C   UNL     1      -2.474   1.381  -0.377  0.00  0.00    +0.014 A 
ATOM     12  C   UNL     1      -1.301   2.088  -0.546  0.00  0.00    +0.050 A 
ATOM     13  C   UNL     1      -0.104   1.416  -0.753  0.00  0.00    +0.162 A 
ATOM     14  C   UNL     1      -0.084   0.026  -0.797  0.00  0.00    +0.163 A 
ATOM     15  C   UNL     1      -1.260  -0.687  -0.633  0.00  0.00    +0.059 A 
ATOM     16  O   UNL     1       1.081  -0.649  -1.000  0.00  0.00    -0.485 OA
ATOM     17  C   UNL     1       2.176   0.104  -1.532  0.00  0.00    +0.270 C 
ATOM     18  C   UNL     1       2.275   1.423  -0.755  0.00  0.00    +0.270 C 
ATOM     19  O   UNL     1       1.042   2.133  -0.917  0.00  0.00    -0.485 OA
ENDBRANCH   6  10
BRANCH   1  23
ATOM     20  C   UNL     1      -6.799  -8.897  -0.018  0.00  0.00    +0.034 A 
ATOM     21  C   UNL     1      -7.888  -8.054   0.181  0.00  0.00    +0.024 A 
ATOM     22  C   UNL     1      -7.710  -6.689   0.196  0.00  0.00    +0.015 A 
ATOM     23  C   UNL     1      -6.434  -6.150   0.012  0.00  0.00    +0.037 A 
ATOM     24  C   UNL     1      -5.343  -7.000  -0.193  0.00  0.00    +0.015 A 
ATOM     25  C   UNL     1      -5.527  -8.364  -0.202  0.00  0.00    +0.024 A 
BRANCH  20  28
ATOM     26  C   UNL     1      -8.124 -10.801  -0.522  0.00  0.00    +0.255 C 
ATOM     27  O   UNL     1      -8.953 -10.075  -1.040  0.00  0.00    -0.269 OA
ATOM     28  N   UNL     1      -6.983 -10.278  -0.032  0.00  0.00    -0.281 N 
ATOM     29  H   UNL     1      -6.289 -10.863   0.311  0.00  0.00    +0.155 HD
BRANCH  26  32
ATOM     30  C   UNL     1      -9.433 -14.330  -0.657  0.00  0.00    +0.008 A 
ATOM     31  C   UNL     1      -9.462 -12.974  -0.869  0.00  0.00    +0.021 A 
ATOM     32  C   UNL     1      -8.367 -12.243  -0.432  0.00  0.00    +0.074 A 
ATOM     33  S   UNL     1      -7.329 -13.518   0.261  0.00  0.00    -0.092 S 
ATOM     34  C   UNL     1      -8.354 -14.882  -0.042  0.00  0.00    +0.046 A 
ENDBRANCH  26  32
ENDBRANCH  20  28
ENDBRANCH   1  23
TORSDOF 4
