REMARK  Name = ZINC07779856
REMARK  2 active torsions:
REMARK  status: ('A' for Active; 'I' for Inactive)
REMARK    1  A    between atoms: C_1  and  C_2
REMARK    2  A    between atoms: N_18  and  C_19
REMARK                            x       y       z     vdW  Elec       q    Type
REMARK                         _______ _______ _______ _____ _____    ______ ____
ROOT
ATOM      1  C   UNL     1       0.016   1.556  -0.020  0.00  0.00    +0.026 C 
ATOM      2  C   UNL     1       0.006   0.026  -0.008  0.00  0.00    +0.097 C 
ATOM      3  C   UNL     1       0.718  -0.495  -1.230  0.00  0.00    +0.048 C 
ATOM      4  C   UNL     1      -0.028  -0.785  -2.366  0.00  0.00    +0.022 C 
ATOM      5  C   UNL     1      -1.435  -0.763  -2.502  0.00  0.00    +0.121 C 
ATOM      6  N   UNL     1      -1.762  -1.095  -3.724  0.00  0.00    -0.254 NA
ATOM      7  C   UNL     1      -0.678  -1.357  -4.490  0.00  0.00    +0.072 A 
ATOM      8  C   UNL     1       0.476  -1.176  -3.696  0.00  0.00    +0.010 A 
ATOM      9  C   UNL     1       1.739  -1.376  -4.239  0.00  0.00    +0.011 A 
ATOM     10  C   UNL     1       1.863  -1.751  -5.559  0.00  0.00    +0.001 A 
ATOM     11  C   UNL     1       0.734  -1.928  -6.348  0.00  0.00    +0.002 A 
ATOM     12  C   UNL     1      -0.526  -1.743  -5.827  0.00  0.00    +0.028 A 
ATOM     13  N   UNL     1       2.031  -0.689  -1.261  0.00  0.00    -0.238 N 
ATOM     14  N   UNL     1       2.920  -0.434  -0.229  0.00  0.00    -0.160 NA
ATOM     15  C   UNL     1       2.575  -0.358   1.024  0.00  0.00    +0.172 C 
ATOM     16  S   UNL     1       0.879  -0.581   1.468  0.00  0.00    -0.080 S 
ATOM     17  N   UNL     1       3.525  -0.108   1.997  0.00  0.00    -0.320 N 
ATOM     18  H   UNL     1       2.403  -1.043  -2.084  0.00  0.00    +0.174 HD
ATOM     19  H   UNL     1       3.262  -0.053   2.929  0.00  0.00    +0.148 HD
ENDROOT
BRANCH  17  20
ATOM     20  C   UNL     1       4.929   0.074   1.620  0.00  0.00    +0.072 C 
ATOM     21  C   UNL     1       5.610  -1.292   1.514  0.00  0.00    +0.022 C 
ATOM     22  C   UNL     1       7.076  -1.102   1.121  0.00  0.00    +0.002 C 
ATOM     23  C   UNL     1       7.785  -0.260   2.184  0.00  0.00    +0.000 C 
ATOM     24  C   UNL     1       7.104   1.106   2.289  0.00  0.00    +0.002 C 
ATOM     25  C   UNL     1       5.637   0.916   2.683  0.00  0.00    +0.022 C 
ENDBRANCH  17  20
TORSDOF 1
