REMARK  Name = ZINC35752352
REMARK  8 active torsions:
REMARK  status: ('A' for Active; 'I' for Inactive)
REMARK    1  A    between atoms: C_1  and  C_2
REMARK    2  A    between atoms: C_5  and  N_8
REMARK    3  A    between atoms: C_9  and  C_32
REMARK    4  A    between atoms: C_12  and  S_13
REMARK    5  A    between atoms: S_13  and  C_14
REMARK    6  A    between atoms: C_14  and  C_15
REMARK    7  A    between atoms: C_17  and  C_20
REMARK    8  A    between atoms: N_22  and  C_23
REMARK                            x       y       z     vdW  Elec       q    Type
REMARK                         _______ _______ _______ _____ _____    ______ ____
ROOT
ATOM      1  S   UNL     1       2.577  -4.461  -1.211  0.00  0.00    -0.079 S 
ENDROOT
BRANCH   1   6
ATOM      2  N   UNL     1       0.059  -4.172  -0.021  0.00  0.00    -0.270 N 
ATOM      3  C   UNL     1      -0.924  -5.021   0.438  0.00  0.00    +0.171 A 
ATOM      4  N   UNL     1      -0.497  -6.247   0.239  0.00  0.00    -0.128 NA
ATOM      5  N   UNL     1       0.667  -6.225  -0.304  0.00  0.00    -0.122 NA
ATOM      6  C   UNL     1       1.056  -4.983  -0.491  0.00  0.00    +0.197 A 
BRANCH   2  11
ATOM      7  C   UNL     1      -0.018   1.503   0.010  0.00  0.00    +0.044 C 
ATOM      8  C   UNL     1       0.002  -0.004   0.002  0.00  0.00    -0.050 A 
ATOM      9  C   UNL     1       0.006  -0.688  -1.200  0.00  0.00    +0.005 A 
ATOM     10  C   UNL     1       0.025  -2.068  -1.211  0.00  0.00    +0.026 A 
ATOM     11  C   UNL     1       0.041  -2.771  -0.013  0.00  0.00    +0.051 A 
ATOM     12  C   UNL     1       0.037  -2.082   1.192  0.00  0.00    +0.026 A 
ATOM     13  C   UNL     1       0.023  -0.700   1.196  0.00  0.00    +0.005 A 
ENDBRANCH   2  11
BRANCH   3  14
ATOM     14  C   UNL     1      -2.214  -4.627   1.041  0.00  0.00    +0.038 A 
ATOM     15  C   UNL     1      -2.983  -5.558   1.751  0.00  0.00    +0.014 A 
ATOM     16  C   UNL     1      -4.183  -5.138   2.296  0.00  0.00    +0.020 A 
ATOM     17  C   UNL     1      -4.582  -3.824   2.124  0.00  0.00    +0.111 A 
ATOM     18  N   UNL     1      -3.837  -2.969   1.450  0.00  0.00    -0.263 NA
ATOM     19  C   UNL     1      -2.685  -3.319   0.918  0.00  0.00    +0.122 A 
ENDBRANCH   3  14
ENDBRANCH   1   6
BRANCH   1  20
ATOM     20  C   UNL     1       3.428  -6.012  -1.612  0.00  0.00    +0.140 C 
BRANCH  20  21
ATOM     21  C   UNL     1       4.762  -5.705  -2.243  0.00  0.00    +0.089 A 
ATOM     22  N   UNL     1       5.914  -5.546  -1.651  0.00  0.00    -0.239 NA
ATOM     23  C   UNL     1       6.984  -5.277  -2.406  0.00  0.00    +0.133 A 
ATOM     24  C   UNL     1       6.762  -5.192  -3.755  0.00  0.00    +0.080 A 
ATOM     25  S   UNL     1       5.114  -5.495  -3.870  0.00  0.00    -0.079 S 
BRANCH  23  26
ATOM     26  C   UNL     1       8.321  -5.082  -1.823  0.00  0.00    +0.264 C 
ATOM     27  O   UNL     1       9.270  -4.838  -2.543  0.00  0.00    -0.268 OA
ATOM     28  N   UNL     1       8.495  -5.174  -0.489  0.00  0.00    -0.299 N 
ATOM     29  H   UNL     1       7.738  -5.368   0.086  0.00  0.00    +0.150 HD
BRANCH  28  30
ATOM     30  C   UNL     1       9.825  -4.980   0.092  0.00  0.00    +0.159 C 
ATOM     31  C   UNL     1       9.690  -4.528   1.548  0.00  0.00    +0.032 C 
ATOM     32  C   UNL     1      10.922  -3.759   1.989  0.00  0.00    +0.004 C 
ATOM     33  C   UNL     1      12.180  -4.606   2.059  0.00  0.00    +0.019 C 
ATOM     34  C   UNL     1      12.608  -5.064   0.664  0.00  0.00    +0.104 C 
ATOM     35  N   UNL     1      11.893  -6.310   0.338  0.00  0.00    -0.314 N 
ATOM     36  C   UNL     1      10.590  -6.287   0.059  0.00  0.00    +0.233 C 
ATOM     37  O   UNL     1      10.014  -7.317  -0.216  0.00  0.00    -0.274 OA
ATOM     38  H   UNL     1      12.375  -7.151   0.322  0.00  0.00    +0.149 HD
ENDBRANCH  28  30
ENDBRANCH  23  26
ENDBRANCH  20  21
ENDBRANCH   1  20
TORSDOF 7
