REMARK  Name = ZINC00724619
REMARK  8 active torsions:
REMARK  status: ('A' for Active; 'I' for Inactive)
REMARK    1  A    between atoms: C_1  and  C_2
REMARK    2  A    between atoms: C_7  and  C_8
REMARK    3  A    between atoms: C_12  and  N_17
REMARK    4  A    between atoms: N_17  and  C_18
REMARK    5  A    between atoms: C_18  and  N_20
REMARK    6  A    between atoms: C_21  and  C_23
REMARK    7  A    between atoms: C_26  and  O_30
REMARK    8  A    between atoms: O_30  and  C_31
REMARK                            x       y       z     vdW  Elec       q    Type
REMARK                         _______ _______ _______ _____ _____    ______ ____
ROOT
ATOM      1  N   UNL     1      -5.998   3.184   0.219  0.00  0.00    -0.297 N 
ATOM      2  H   UNL     1      -5.884   2.470   0.865  0.00  0.00    +0.154 HD
ENDROOT
BRANCH   1   7
ATOM      3  C   UNL     1     -11.590   4.856   0.424  0.00  0.00    +0.229 A 
ATOM      4  N   UNL     1     -10.886   3.756   0.515  0.00  0.00    -0.209 NA
ATOM      5  C   UNL     1      -9.572   4.066   0.374  0.00  0.00    +0.112 A 
ATOM      6  C   UNL     1      -8.397   3.310   0.384  0.00  0.00    +0.054 A 
ATOM      7  C   UNL     1      -7.178   3.938   0.209  0.00  0.00    +0.035 A 
ATOM      8  C   UNL     1      -7.118   5.318   0.029  0.00  0.00    +0.027 A 
ATOM      9  C   UNL     1      -8.273   6.071   0.013  0.00  0.00    +0.050 A 
ATOM     10  C   UNL     1      -9.503   5.456   0.187  0.00  0.00    +0.156 A 
ATOM     11  O   UNL     1     -10.777   5.909   0.225  0.00  0.00    -0.435 OA
BRANCH   3  18
ATOM     12  C   UNL     1     -12.809   6.864   2.113  0.00  0.00    +0.044 C 
ATOM     13  C   UNL     1     -13.662   5.894   1.337  0.00  0.00    -0.038 A 
ATOM     14  C   UNL     1     -15.038   5.957   1.427  0.00  0.00    +0.004 A 
ATOM     15  C   UNL     1     -15.822   5.068   0.716  0.00  0.00    +0.000 A 
ATOM     16  C   UNL     1     -15.235   4.109  -0.091  0.00  0.00    +0.001 A 
ATOM     17  C   UNL     1     -13.861   4.038  -0.194  0.00  0.00    +0.013 A 
ATOM     18  C   UNL     1     -13.063   4.929   0.526  0.00  0.00    +0.040 A 
ENDBRANCH   3  18
ENDBRANCH   1   7
BRANCH   1  19
ATOM     19  C   UNL     1      -5.020   3.451  -0.670  0.00  0.00    +0.141 C 
ATOM     20  S   UNL     1      -5.277   4.613  -1.901  0.00  0.00    -0.018 S 
BRANCH  19  21
ATOM     21  N   UNL     1      -3.841   2.803  -0.590  0.00  0.00    -0.264 N 
ATOM     22  C   UNL     1      -2.864   3.070  -1.479  0.00  0.00    +0.250 C 
ATOM     23  O   UNL     1      -3.046   3.895  -2.353  0.00  0.00    -0.270 OA
ATOM     24  H   UNL     1      -3.696   2.145   0.108  0.00  0.00    +0.157 HD
BRANCH  22  25
ATOM     25  C   UNL     1      -1.573   2.361  -1.391  0.00  0.00    +0.038 A 
ATOM     26  C   UNL     1      -1.364   1.408  -0.390  0.00  0.00    +0.017 A 
ATOM     27  C   UNL     1      -0.156   0.752  -0.308  0.00  0.00    +0.047 A 
ATOM     28  C   UNL     1       0.851   1.028  -1.225  0.00  0.00    +0.134 A 
ATOM     29  C   UNL     1       0.646   1.972  -2.226  0.00  0.00    +0.060 A 
ATOM     30  C   UNL     1      -0.558   2.636  -2.311  0.00  0.00    +0.032 A 
ATOM     31 BR   UNL     1       2.020   2.343  -3.470  0.00  0.00    -0.046 Br
BRANCH  28  32
ATOM     32  O   UNL     1       2.038   0.375  -1.144  0.00  0.00    -0.494 OA
ATOM     33  C   UNL     1       2.182  -0.581  -0.092  0.00  0.00    +0.277 C 
ENDBRANCH  28  32
ENDBRANCH  22  25
ENDBRANCH  19  21
ENDBRANCH   1  19
TORSDOF 6
