REMARK  Name = ZINC29235924
REMARK  8 active torsions:
REMARK  status: ('A' for Active; 'I' for Inactive)
REMARK    1  A    between atoms: C_1  and  C_2
REMARK    2  A    between atoms: C_5  and  N_9
REMARK    3  A    between atoms: C_6  and  C_8
REMARK    4  A    between atoms: C_13  and  C_15
REMARK    5  A    between atoms: C_15  and  C_17
REMARK    6  A    between atoms: C_15  and  N_18
REMARK    7  A    between atoms: N_21  and  C_24
REMARK    8  A    between atoms: C_28  and  C_30
REMARK                            x       y       z     vdW  Elec       q    Type
REMARK                         _______ _______ _______ _____ _____    ______ ____
ROOT
ATOM      1  C   UNL     1       0.669   9.272  -1.186  0.00  0.00    +0.017 C 
ATOM      2  C   UNL     1       2.172   9.522  -1.332  0.00  0.00    -0.004 C 
ENDROOT
BRANCH   1   7
ATOM      3  N   UNL     1      -1.002  12.891  -3.873  0.00  0.00    -0.269 N 
ATOM      4  C   UNL     1      -0.844  11.565  -3.689  0.00  0.00    +0.310 C 
ATOM      5  O   UNL     1      -1.279  10.781  -4.510  0.00  0.00    -0.252 OA
ATOM      6  N   UNL     1      -0.204  11.108  -2.594  0.00  0.00    -0.241 N 
ATOM      7  C   UNL     1      -0.046   9.783  -2.410  0.00  0.00    +0.207 C 
ATOM      8  O   UNL     1      -0.480   9.001  -3.229  0.00  0.00    -0.277 OA
ATOM      9  H   UNL     1      -0.549  13.602  -3.167  0.00  0.00    +0.156 HD
ATOM     10  H   UNL     1       0.189  11.818  -1.851  0.00  0.00    +0.159 HD
BRANCH   3  15
ATOM     11  C   UNL     1      -4.007  14.802  -8.289  0.00  0.00    +0.044 C 
ATOM     12  C   UNL     1      -3.209  14.295  -7.116  0.00  0.00    -0.050 A 
ATOM     13  C   UNL     1      -2.546  13.084  -7.205  0.00  0.00    +0.005 A 
ATOM     14  C   UNL     1      -1.814  12.616  -6.131  0.00  0.00    +0.024 A 
ATOM     15  C   UNL     1      -1.743  13.363  -4.962  0.00  0.00    +0.038 A 
ATOM     16  C   UNL     1      -2.414  14.575  -4.875  0.00  0.00    -0.029 A 
ATOM     17  C   UNL     1      -3.140  15.040  -5.954  0.00  0.00    +0.008 A 
ATOM     18  C   UNL     1      -2.345  15.385  -3.606  0.00  0.00    +0.045 C 
ENDBRANCH   3  15
ENDBRANCH   1   7
BRANCH   1  19
ATOM     19  N   UNL     1       0.425   7.831  -1.041  0.00  0.00    +0.389 N 
ATOM     20  C   UNL     1       1.152   7.068  -2.066  0.00  0.00    -0.059 C 
ATOM     21  C   UNL     1       0.808   5.582  -1.931  0.00  0.00    +0.086 C 
ATOM     22  N   UNL     1       1.165   5.120  -0.582  0.00  0.00    -0.333 N 
ATOM     23  C   UNL     1       0.439   5.883   0.442  0.00  0.00    +0.086 C 
ATOM     24  C   UNL     1       0.782   7.369   0.307  0.00  0.00    -0.059 C 
ATOM     25  H   UNL     1      -0.651   7.656  -1.187  0.00  0.00    -0.081 HD
BRANCH  22  26
ATOM     26  C   UNL     1       0.933   3.750  -0.445  0.00  0.00    +0.030 A 
ATOM     27  C   UNL     1       0.427   3.019  -1.512  0.00  0.00    +0.023 A 
ATOM     28  C   UNL     1       0.198   1.665  -1.373  0.00  0.00    +0.002 A 
ATOM     29  C   UNL     1       0.471   1.036  -0.172  0.00  0.00    +0.012 A 
ATOM     30  C   UNL     1       0.969   1.761   0.895  0.00  0.00    +0.057 A 
ATOM     31  C   UNL     1       1.206   3.115   0.760  0.00  0.00    +0.035 A 
BRANCH  30  32
ATOM     32  C   UNL     1       1.259   1.073   2.203  0.00  0.00    +0.417 C 
ATOM     33  F   UNL     1       0.947  -0.287   2.094  0.00  0.00    -0.166 F 
ATOM     34  F   UNL     1       2.615   1.216   2.515  0.00  0.00    -0.166 F 
ATOM     35  F   UNL     1       0.484   1.649   3.215  0.00  0.00    -0.166 F 
ENDBRANCH  30  32
ENDBRANCH  22  26
ENDBRANCH   1  19
TORSDOF 5
