REMARK  Name = ZINC22190668
REMARK  5 active torsions:
REMARK  status: ('A' for Active; 'I' for Inactive)
REMARK    1  A    between atoms: C_1  and  C_2
REMARK    2  A    between atoms: N_6  and  C_14
REMARK    3  A    between atoms: C_14  and  C_15
REMARK    4  A    between atoms: N_17  and  N_18
REMARK    5  A    between atoms: C_19  and  C_21
REMARK                            x       y       z     vdW  Elec       q    Type
REMARK                         _______ _______ _______ _____ _____    ______ ____
ROOT
ATOM      1  C   UNL     1      -0.185   0.481   8.244  0.00  0.00    +0.247 C 
ATOM      2  O   UNL     1       0.769  -0.098   7.769  0.00  0.00    -0.273 OA
ATOM      3  N   UNL     1      -1.040   1.143   7.439  0.00  0.00    -0.233 N 
ATOM      4  H   UNL     1      -1.906   1.668   7.870  0.00  0.00    +0.173 HD
ENDROOT
BRANCH   3   5
ATOM      5  N   UNL     1      -0.827   1.162   6.055  0.00  0.00    -0.230 N 
ATOM      6  C   UNL     1      -1.683   1.824   5.251  0.00  0.00    +0.267 C 
ATOM      7  O   UNL     1      -2.640   2.405   5.727  0.00  0.00    -0.268 OA
ATOM      8  H   UNL     1       0.038   0.637   5.624  0.00  0.00    +0.173 HD
BRANCH   6   9
ATOM      9  C   UNL     1      -1.460   1.845   3.802  0.00  0.00    +0.076 A 
ATOM     10  C   UNL     1      -2.199   2.453   2.818  0.00  0.00    +0.024 A 
ATOM     11  C   UNL     1      -1.770   2.333   1.491  0.00  0.00    -0.036 A 
ATOM     12  C   UNL     1      -0.695   1.560   1.268  0.00  0.00    -0.006 A 
ATOM     13  S   UNL     1      -0.157   1.088   2.851  0.00  0.00    -0.088 S 
ATOM     14  C   UNL     1      -0.013   1.086   0.008  0.00  0.00    +0.043 C 
ATOM     15  C   UNL     1      -0.728   1.581  -1.251  0.00  0.00    +0.005 C 
ATOM     16  C   UNL     1      -0.386   3.031  -1.554  0.00  0.00    +0.000 C 
ATOM     17  C   UNL     1      -0.273   3.889  -0.313  0.00  0.00    +0.000 C 
ATOM     18  C   UNL     1      -1.695   4.335   0.053  0.00  0.00    +0.005 C 
ATOM     19  C   UNL     1      -2.521   3.102   0.415  0.00  0.00    +0.036 C 
ENDBRANCH   6   9
ENDBRANCH   3   5
BRANCH   1  20
ATOM     20  C   UNL     1      -0.414   0.460   9.733  0.00  0.00    +0.211 C 
BRANCH  20  25
ATOM     21  C   UNL     1       1.579  -3.873  10.768  0.00  0.00    +0.062 C 
ATOM     22  C   UNL     1       1.584  -2.427  11.270  0.00  0.00    +0.256 C 
ATOM     23  C   UNL     1       0.497  -1.648  10.574  0.00  0.00    +0.261 C 
ATOM     24  O   UNL     1      -0.504  -2.213  10.187  0.00  0.00    -0.271 OA
ATOM     25  N   UNL     1       0.645  -0.320  10.379  0.00  0.00    -0.256 N 
ATOM     26  C   UNL     1       1.825   0.303  10.809  0.00  0.00    +0.079 A 
ATOM     27  C   UNL     1       1.895   1.681  10.930  0.00  0.00    +0.027 A 
ATOM     28  C   UNL     1       3.069   2.275  11.356  0.00  0.00    +0.002 A 
ATOM     29  C   UNL     1       4.172   1.498  11.659  0.00  0.00    +0.004 A 
ATOM     30  C   UNL     1       4.108   0.121  11.540  0.00  0.00    +0.047 A 
ATOM     31  C   UNL     1       2.936  -0.480  11.117  0.00  0.00    +0.143 A 
ATOM     32  O   UNL     1       2.855  -1.833  10.996  0.00  0.00    -0.478 OA
ENDBRANCH  20  25
ENDBRANCH   1  20
TORSDOF 4
