REMARK  Name = ZINC30958514
REMARK  5 active torsions:
REMARK  status: ('A' for Active; 'I' for Inactive)
REMARK    1  A    between atoms: C_4  and  N_7
REMARK    2  A    between atoms: N_10  and  C_11
REMARK    3  A    between atoms: C_14  and  C_17
REMARK    4  A    between atoms: N_22  and  S_25
REMARK    5  A    between atoms: S_25  and  C_28
REMARK                            x       y       z     vdW  Elec       q    Type
REMARK                         _______ _______ _______ _____ _____    ______ ____
ROOT
ATOM      1  C   UNL     1      -3.633  -2.312  -0.076  0.00  0.00    +0.035 A 
ATOM      2  C   UNL     1      -3.620  -1.356  -1.087  0.00  0.00    +0.024 A 
ATOM      3  C   UNL     1      -2.446  -0.718  -1.419  0.00  0.00    +0.015 A 
ATOM      4  C   UNL     1      -1.266  -1.030  -0.738  0.00  0.00    +0.037 A 
ATOM      5  C   UNL     1      -1.281  -1.995   0.273  0.00  0.00    +0.015 A 
ATOM      6  C   UNL     1      -2.460  -2.626   0.603  0.00  0.00    +0.024 A 
ENDROOT
BRANCH   4   7
ATOM      7  C   UNL     1      -0.006  -0.348  -1.091  0.00  0.00    +0.247 C 
ATOM      8  O   UNL     1       1.013  -0.994  -1.244  0.00  0.00    -0.270 OA
ATOM      9  N   UNL     1       0.015   0.991  -1.243  0.00  0.00    -0.295 N 
ATOM     10  C   UNL     1      -1.226   1.773  -1.163  0.00  0.00    +0.125 C 
ATOM     11  C   UNL     1      -1.047   2.861  -0.091  0.00  0.00    +0.128 C 
ATOM     12  N   UNL     1       0.218   3.565  -0.345  0.00  0.00    -0.174 NA
ATOM     13  C   UNL     1       1.459   2.783  -0.431  0.00  0.00    +0.128 C 
ATOM     14  C   UNL     1       1.280   1.695  -1.497  0.00  0.00    +0.125 C 
BRANCH  12  15
ATOM     15  S   UNL     1       0.245   5.210  -0.533  0.00  0.00    +0.064 S 
ATOM     16  O   UNL     1      -0.907   5.713   0.131  0.00  0.00    -0.153 OA
ATOM     17  O   UNL     1       1.560   5.635  -0.205  0.00  0.00    -0.153 OA
BRANCH  15  18
ATOM     18  C   UNL     1       0.022   5.542  -2.249  0.00  0.00    +0.140 A 
ATOM     19  C   UNL     1      -1.115   6.198  -2.685  0.00  0.00    +0.031 A 
ATOM     20  C   UNL     1      -1.287   6.463  -4.030  0.00  0.00    +0.002 A 
ATOM     21  C   UNL     1      -0.329   6.064  -4.943  0.00  0.00    +0.003 A 
ATOM     22  C   UNL     1       0.805   5.403  -4.511  0.00  0.00    +0.040 A 
ATOM     23  C   UNL     1       0.982   5.141  -3.163  0.00  0.00    +0.150 A 
ATOM     24  F   UNL     1       2.090   4.495  -2.739  0.00  0.00    -0.203 F 
ENDBRANCH  15  18
ENDBRANCH  12  15
ENDBRANCH   4   7
BRANCH   1  28
ATOM     25  N   UNL     1      -7.154  -2.950   0.381  0.00  0.00    -0.269 N 
ATOM     26  C   UNL     1      -5.996  -2.298   0.160  0.00  0.00    +0.308 C 
ATOM     27  O   UNL     1      -6.008  -1.117  -0.128  0.00  0.00    -0.252 OA
ATOM     28  N   UNL     1      -4.823  -2.956   0.257  0.00  0.00    -0.269 N 
ATOM     29  H   UNL     1      -7.141  -3.998   0.715  0.00  0.00    +0.156 HD
ATOM     30  H   UNL     1      -4.806  -4.001   0.600  0.00  0.00    +0.156 HD
BRANCH  25  34
ATOM     31  C   UNL     1     -10.787  -0.995  -0.198  0.00  0.00    +0.000 A 
ATOM     32  C   UNL     1     -10.670  -2.338  -0.507  0.00  0.00    +0.002 A 
ATOM     33  C   UNL     1      -9.466  -2.989  -0.316  0.00  0.00    +0.023 A 
ATOM     34  C   UNL     1      -8.375  -2.293   0.187  0.00  0.00    +0.035 A 
ATOM     35  C   UNL     1      -8.498  -0.946   0.501  0.00  0.00    +0.023 A 
ATOM     36  C   UNL     1      -9.702  -0.300   0.303  0.00  0.00    +0.002 A 
ENDBRANCH  25  34
ENDBRANCH   1  28
TORSDOF 5
