REMARK  Name = ZINC17087449
REMARK  8 active torsions:
REMARK  status: ('A' for Active; 'I' for Inactive)
REMARK    1  A    between atoms: C_1  and  C_2
REMARK    2  A    between atoms: C_2  and  C_3
REMARK    3  A    between atoms: C_2  and  C_4
REMARK    4  A    between atoms: C_2  and  C_5
REMARK    5  A    between atoms: C_10  and  C_15
REMARK    6  A    between atoms: N_17  and  N_18
REMARK    7  A    between atoms: C_19  and  C_21
REMARK    8  A    between atoms: C_27  and  C_29
REMARK                            x       y       z     vdW  Elec       q    Type
REMARK                         _______ _______ _______ _____ _____    ______ ____
ROOT
ATOM      1  C   UNL     1      -1.997   5.843  -3.219  0.00  0.00    +0.261 C 
ATOM      2  O   UNL     1      -2.524   5.232  -4.129  0.00  0.00    -0.269 OA
ATOM      3  N   UNL     1      -1.394   5.172  -2.217  0.00  0.00    -0.230 N 
ATOM      4  H   UNL     1      -0.974   5.658  -1.491  0.00  0.00    +0.173 HD
ENDROOT
BRANCH   1   9
ATOM      5  C   UNL     1      -3.508   9.731  -6.412  0.00  0.00    -0.000 C 
ATOM      6  C   UNL     1      -4.283   8.444  -6.113  0.00  0.00    +0.009 C 
ATOM      7  C   UNL     1      -3.354   7.414  -5.468  0.00  0.00    +0.037 C 
ATOM      8  C   UNL     1      -2.654   8.061  -4.279  0.00  0.00    -0.025 A 
ATOM      9  C   UNL     1      -2.017   7.315  -3.211  0.00  0.00    +0.049 A 
ATOM     10  C   UNL     1      -1.426   8.028  -2.191  0.00  0.00    +0.058 A 
ATOM     11  S   UNL     1      -1.719   9.676  -2.639  0.00  0.00    -0.101 S 
ATOM     12  C   UNL     1      -2.605   9.406  -4.148  0.00  0.00    -0.006 A 
ATOM     13  C   UNL     1      -3.174  10.427  -5.084  0.00  0.00    +0.046 C 
BRANCH   5  15
ATOM     14  C   UNL     1      -3.596  11.949  -7.557  0.00  0.00    +0.011 C 
ATOM     15  C   UNL     1      -4.366  10.658  -7.275  0.00  0.00    -0.035 C 
ATOM     16  C   UNL     1      -4.698   9.962  -8.597  0.00  0.00    +0.011 C 
ATOM     17  C   UNL     1      -5.663  10.989  -6.534  0.00  0.00    +0.011 C 
ENDBRANCH   5  15
ENDBRANCH   1   9
BRANCH   3  18
ATOM     18  N   UNL     1      -1.375   3.771  -2.225  0.00  0.00    -0.234 N 
ATOM     19  C   UNL     1      -0.773   3.099  -1.223  0.00  0.00    +0.233 C 
ATOM     20  O   UNL     1      -0.248   3.708  -0.315  0.00  0.00    -0.274 OA
ATOM     21  H   UNL     1      -1.796   3.284  -2.951  0.00  0.00    +0.173 HD
BRANCH  19  22
ATOM     22  C   UNL     1      -0.753   1.593  -1.232  0.00  0.00    +0.090 C 
ATOM     23  C   UNL     1      -2.188   1.063  -1.221  0.00  0.00    +0.013 C 
ATOM     24  C   UNL     1      -2.904   1.556   0.038  0.00  0.00    +0.001 C 
ATOM     25  C   UNL     1      -2.164   1.050   1.278  0.00  0.00    +0.001 C 
ATOM     26  C   UNL     1      -0.729   1.579   1.267  0.00  0.00    +0.015 C 
ATOM     27  C   UNL     1      -0.013   1.086   0.008  0.00  0.00    +0.114 C 
BRANCH  27  28
ATOM     28  C   UNL     1       1.401   1.607  -0.003  0.00  0.00    +0.360 C 
ATOM     29  O   UNL     1       1.778   2.312  -0.909  0.00  0.00    -0.246 OA
ATOM     30  O   UNL     1       2.241   1.289   0.994  0.00  0.00    -0.246 OA
ENDBRANCH  27  28
ENDBRANCH  19  22
ENDBRANCH   3  18
TORSDOF 5
