REMARK  Name = ZINC09059459
REMARK  9 active torsions:
REMARK  status: ('A' for Active; 'I' for Inactive)
REMARK    1  A    between atoms: C_1  and  C_2
REMARK    2  A    between atoms: C_5  and  C_32
REMARK    3  A    between atoms: C_10  and  C_12
REMARK    4  A    between atoms: N_14  and  C_15
REMARK    5  A    between atoms: C_16  and  C_29
REMARK    6  A    between atoms: C_21  and  C_25
REMARK    7  A    between atoms: C_25  and  C_26
REMARK    8  A    between atoms: C_25  and  C_27
REMARK    9  A    between atoms: C_25  and  C_28
REMARK                            x       y       z     vdW  Elec       q    Type
REMARK                         _______ _______ _______ _____ _____    ______ ____
ROOT
ATOM      1  C   UNL     1       2.393  -4.939   2.412  0.00  0.00    +0.288 C 
ATOM      2  O   UNL     1       2.615  -6.003   1.867  0.00  0.00    -0.266 OA
ATOM      3  N   UNL     1       2.626  -4.796   3.731  0.00  0.00    -0.272 N 
ATOM      4  H   UNL     1       2.449  -3.947   4.166  0.00  0.00    +0.156 HD
ENDROOT
BRANCH   1  12
ATOM      5  C   UNL     1      -0.019   1.526   0.010  0.00  0.00    +0.028 C 
ATOM      6  C   UNL     1       0.002  -0.004   0.002  0.00  0.00    +0.072 C 
ATOM      7  C   UNL     1       0.727  -0.502  -1.254  0.00  0.00    +0.054 C 
ATOM      8  C   UNL     1       0.698  -2.035  -1.295  0.00  0.00    +0.178 C 
ATOM      9  N   UNL     1       1.132  -2.549   0.004  0.00  0.00    -0.224 N 
ATOM     10  C   UNL     1       1.141  -1.821   1.151  0.00  0.00    +0.215 A 
ATOM     11  N   UNL     1       1.584  -2.579   2.113  0.00  0.00    -0.189 NA
ATOM     12  C   UNL     1       1.868  -3.803   1.626  0.00  0.00    +0.238 A 
ATOM     13  N   UNL     1       1.602  -3.821   0.334  0.00  0.00    -0.143 NA
ATOM     14  N   UNL     1       0.722  -0.496   1.192  0.00  0.00    -0.311 N 
ATOM     15  H   UNL     1       0.896   0.073   1.958  0.00  0.00    +0.149 HD
BRANCH   8  16
ATOM     16  C   UNL     1       1.643  -2.536  -2.389  0.00  0.00    +0.365 C 
ATOM     17  F   UNL     1       1.615  -3.934  -2.425  0.00  0.00    -0.207 F 
ATOM     18  F   UNL     1       1.232  -2.030  -3.627  0.00  0.00    -0.207 F 
ENDBRANCH   8  16
ENDBRANCH   1  12
BRANCH   3  19
ATOM     19  C   UNL     1       3.119  -5.862   4.468  0.00  0.00    +0.090 A 
ATOM     20  C   UNL     1       3.409  -5.900   5.822  0.00  0.00    +0.084 A 
ATOM     21  C   UNL     1       3.918  -7.150   6.358  0.00  0.00    -0.018 A 
ATOM     22  C   UNL     1       4.044  -8.134   5.441  0.00  0.00    -0.004 A 
ATOM     23  S   UNL     1       3.492  -7.407   3.926  0.00  0.00    -0.077 S 
ATOM     24  C   UNL     1       4.539  -9.527   5.678  0.00  0.00    +0.047 C 
ATOM     25  C   UNL     1       5.240  -9.563   7.044  0.00  0.00    -0.000 C 
ATOM     26  C   UNL     1       4.342  -8.882   8.081  0.00  0.00    +0.009 C 
ATOM     27  C   UNL     1       4.290  -7.376   7.816  0.00  0.00    +0.037 C 
BRANCH  25  28
ATOM     28  C   UNL     1       5.490 -11.016   7.454  0.00  0.00    -0.035 C 
ATOM     29  C   UNL     1       6.377 -11.695   6.409  0.00  0.00    +0.011 C 
ATOM     30  C   UNL     1       6.189 -11.049   8.815  0.00  0.00    +0.011 C 
ATOM     31  C   UNL     1       4.155 -11.756   7.548  0.00  0.00    +0.011 C 
ENDBRANCH  25  28
BRANCH  20  32
ATOM     32  C   UNL     1       3.217  -4.753   6.659  0.00  0.00    +0.102 C 
ATOM     33  N   UNL     1       3.064  -3.844   7.322  0.00  0.00    -0.191 NA
ENDBRANCH  20  32
ENDBRANCH   3  19
TORSDOF 5
