REMARK  Name = ZINC39633784
REMARK  8 active torsions:
REMARK  status: ('A' for Active; 'I' for Inactive)
REMARK    1  A    between atoms: C_1  and  C_2
REMARK    2  A    between atoms: C_2  and  C_3
REMARK    3  A    between atoms: C_2  and  C_4
REMARK    4  A    between atoms: C_4  and  C_6
REMARK    5  A    between atoms: C_4  and  O_29
REMARK    6  A    between atoms: C_10  and  C_19
REMARK    7  A    between atoms: N_21  and  C_22
REMARK    8  A    between atoms: O_29  and  C_30
REMARK                            x       y       z     vdW  Elec       q    Type
REMARK                         _______ _______ _______ _____ _____    ______ ____
ROOT
ATOM      1  C   UNL     1      -2.245   0.017  -1.012  0.00  0.00    +0.257 C 
ATOM      2  O   UNL     1      -2.871  -0.655  -1.804  0.00  0.00    -0.272 OA
ATOM      3  N   UNL     1      -2.386   1.357  -1.005  0.00  0.00    -0.297 N 
ATOM      4  C   UNL     1      -1.650   2.344  -0.180  0.00  0.00    +0.121 C 
ATOM      5  C   UNL     1      -1.395   3.535  -1.130  0.00  0.00    +0.100 C 
ATOM      6  C   UNL     1      -2.491   3.422  -2.204  0.00  0.00    -0.004 C 
ATOM      7  C   UNL     1      -3.308   2.178  -1.826  0.00  0.00    +0.115 C 
ATOM      8  C   UNL     1      -1.863   3.234  -3.582  0.00  0.00    -0.010 C 
ATOM      9  C   UNL     1      -2.969   3.181  -4.639  0.00  0.00    -0.082 C 
ATOM     10  N   UNL     1      -3.747   4.425  -4.599  0.00  0.00    +0.379 N 
ATOM     11  C   UNL     1      -4.423   4.552  -3.302  0.00  0.00    -0.082 C 
ATOM     12  C   UNL     1      -3.378   4.663  -2.188  0.00  0.00    -0.010 C 
ATOM     13  H   UNL     1      -3.128   5.211  -4.733  0.00  0.00    -0.086 HD
ATOM     14  H   UNL     1      -4.436   4.414  -5.336  0.00  0.00    -0.086 HD
ENDROOT
BRANCH   5  15
ATOM     15  C   UNL     1      -1.522   4.838  -0.384  0.00  0.00    +0.218 C 
ATOM     16  O   UNL     1      -2.213   4.902   0.611  0.00  0.00    -0.275 OA
ATOM     17  N   UNL     1      -0.868   5.932  -0.822  0.00  0.00    -0.312 N 
ATOM     18  H   UNL     1      -0.316   5.881  -1.617  0.00  0.00    +0.149 HD
BRANCH  17  19
ATOM     19  C   UNL     1      -0.992   7.199  -0.096  0.00  0.00    +0.073 C 
ATOM     20  C   UNL     1      -2.296   7.899  -0.531  0.00  0.00    +0.022 C 
ATOM     21  C   UNL     1      -2.683   8.891   0.532  0.00  0.00    +0.002 C 
ATOM     22  C   UNL     1      -2.159  10.309   0.233  0.00  0.00    +0.000 C 
ATOM     23  C   UNL     1      -0.717  10.312  -0.307  0.00  0.00    +0.000 C 
ATOM     24  C   UNL     1       0.173   9.340   0.421  0.00  0.00    +0.002 C 
ATOM     25  C   UNL     1       0.188   8.010  -0.360  0.00  0.00    +0.022 C 
ENDBRANCH  17  19
ENDBRANCH   5  15
BRANCH   1  26
ATOM     26  C   UNL     1      -1.308  -0.647  -0.037  0.00  0.00    +0.261 C 
BRANCH  26  28
ATOM     27  C   UNL     1       0.662   0.558  -0.991  0.00  0.00    +0.011 C 
ATOM     28  C   UNL     1       0.067  -0.818  -0.685  0.00  0.00    +0.033 C 
ATOM     29  C   UNL     1       0.993  -1.572   0.272  0.00  0.00    +0.011 C 
ENDBRANCH  26  28
BRANCH  26  30
ATOM     30  O   UNL     1      -1.826  -1.929   0.325  0.00  0.00    -0.479 OA
BRANCH  30  31
ATOM     31  C   UNL     1      -1.580  -2.359   1.590  0.00  0.00    +0.122 A 
ATOM     32  C   UNL     1      -0.931  -1.529   2.493  0.00  0.00    +0.045 A 
ATOM     33  C   UNL     1      -0.682  -1.969   3.778  0.00  0.00    +0.004 A 
ATOM     34  C   UNL     1      -1.078  -3.236   4.165  0.00  0.00    +0.000 A 
ATOM     35  C   UNL     1      -1.724  -4.066   3.268  0.00  0.00    +0.004 A 
ATOM     36  C   UNL     1      -1.981  -3.628   1.983  0.00  0.00    +0.045 A 
ENDBRANCH  30  31
ENDBRANCH  26  30
ENDBRANCH   1  26
TORSDOF 6
