REMARK  Name = ZINC33400458
REMARK  18 active torsions:
REMARK  status: ('A' for Active; 'I' for Inactive)
REMARK    1  A    between atoms: C_1  and  C_2
REMARK    2  A    between atoms: C_7  and  N_8
REMARK    3  A    between atoms: N_11  and  C_12
REMARK    4  A    between atoms: N_11  and  C_16
REMARK    5  A    between atoms: C_12  and  C_13
REMARK    6  A    between atoms: C_13  and  C_14
REMARK    7  A    between atoms: C_13  and  C_15
REMARK    8  A    between atoms: C_16  and  C_17
REMARK    9  A    between atoms: N_19  and  C_20
REMARK   10  A    between atoms: N_19  and  C_32
REMARK   11  A    between atoms: C_20  and  C_21
REMARK   12  A    between atoms: C_21  and  C_22
REMARK   13  A    between atoms: C_25  and  O_30
REMARK   14  A    between atoms: C_26  and  O_28
REMARK   15  A    between atoms: O_28  and  C_29
REMARK   16  A    between atoms: O_30  and  C_31
REMARK   17  A    between atoms: C_32  and  C_33
REMARK   18  A    between atoms: C_34  and  C_38
REMARK                            x       y       z     vdW  Elec       q    Type
REMARK                         _______ _______ _______ _____ _____    ______ ____
ROOT
ATOM      1  C   UNL     1       1.893  -2.773   2.024  0.00  0.00    +0.233 C 
ATOM      2  O   UNL     1       1.984  -3.030   3.206  0.00  0.00    -0.274 OA
ATOM      3  N   UNL     1       2.838  -2.022   1.424  0.00  0.00    -0.295 N 
ENDROOT
BRANCH   1   4
ATOM      4  C   UNL     1       0.725  -3.292   1.227  0.00  0.00    +0.205 C 
BRANCH   4   8
ATOM      5  N   UNL     1      -1.909  -4.487   3.498  0.00  0.00    -0.269 N 
ATOM      6  C   UNL     1      -1.160  -3.678   2.723  0.00  0.00    +0.307 C 
ATOM      7  O   UNL     1      -1.450  -2.502   2.612  0.00  0.00    -0.252 OA
ATOM      8  N   UNL     1      -0.089  -4.171   2.070  0.00  0.00    -0.276 N 
ATOM      9  H   UNL     1      -1.697  -5.566   3.533  0.00  0.00    +0.156 HD
BRANCH   5  16
ATOM     10  C   UNL     1      -2.470  -5.671   6.024  0.00  0.00    +0.045 C 
ATOM     11  C   UNL     1      -3.263  -4.502   5.498  0.00  0.00    -0.029 A 
ATOM     12  C   UNL     1      -4.296  -3.973   6.247  0.00  0.00    +0.005 A 
ATOM     13  C   UNL     1      -5.023  -2.901   5.766  0.00  0.00    +0.000 A 
ATOM     14  C   UNL     1      -4.719  -2.353   4.533  0.00  0.00    +0.002 A 
ATOM     15  C   UNL     1      -3.684  -2.873   3.781  0.00  0.00    +0.023 A 
ATOM     16  C   UNL     1      -2.955  -3.954   4.260  0.00  0.00    +0.038 A 
ENDBRANCH   5  16
BRANCH   8  17
ATOM     17  C   UNL     1       0.261  -5.588   2.204  0.00  0.00    +0.113 C 
BRANCH  17  18
ATOM     18  C   UNL     1      -0.330  -6.372   1.030  0.00  0.00    +0.000 C 
ATOM     19  C   UNL     1       0.130  -7.829   1.108  0.00  0.00    +0.009 C 
ATOM     20  C   UNL     1      -1.857  -6.315   1.096  0.00  0.00    +0.009 C 
ENDBRANCH  17  18
ENDBRANCH   8  17
ENDBRANCH   4   8
ENDBRANCH   1   4
BRANCH   3  21
ATOM     21  C   UNL     1       3.974  -1.517   2.199  0.00  0.00    +0.113 C 
BRANCH  21  22
ATOM     22  C   UNL     1       3.624  -0.148   2.785  0.00  0.00    +0.054 C 
BRANCH  22  23
ATOM     23  C   UNL     1       4.792   0.371   3.582  0.00  0.00    -0.042 A 
ATOM     24  C   UNL     1       4.891   0.082   4.930  0.00  0.00    +0.007 A 
ATOM     25  C   UNL     1       5.964   0.551   5.665  0.00  0.00    +0.049 A 
ATOM     26  C   UNL     1       6.938   1.323   5.052  0.00  0.00    +0.161 A 
ATOM     27  C   UNL     1       6.836   1.619   3.696  0.00  0.00    +0.162 A 
ATOM     28  C   UNL     1       5.761   1.141   2.965  0.00  0.00    +0.053 A 
BRANCH  27  29
ATOM     29  O   UNL     1       7.790   2.376   3.090  0.00  0.00    -0.491 OA
ATOM     30  C   UNL     1       7.620   2.639   1.696  0.00  0.00    +0.277 C 
ENDBRANCH  27  29
BRANCH  26  31
ATOM     31  O   UNL     1       7.992   1.790   5.774  0.00  0.00    -0.491 OA
ATOM     32  C   UNL     1       8.031   1.446   7.161  0.00  0.00    +0.277 C 
ENDBRANCH  26  31
ENDBRANCH  22  23
ENDBRANCH  21  22
ENDBRANCH   3  21
BRANCH   3  33
ATOM     33  C   UNL     1       2.729  -1.711  -0.004  0.00  0.00    +0.150 C 
BRANCH  33  34
ATOM     34  C   UNL     1       1.957  -0.430  -0.181  0.00  0.00    +0.010 A 
ATOM     35  C   UNL     1       2.417   0.844  -0.231  0.00  0.00    -0.039 A 
ATOM     36  C   UNL     1       1.514   1.877  -0.403  0.00  0.00    +0.011 A 
ATOM     37  C   UNL     1       0.195   1.585  -0.517  0.00  0.00    +0.046 A 
ATOM     38  S   UNL     1       0.198  -0.195  -0.381  0.00  0.00    -0.100 S 
ATOM     39  C   UNL     1       3.890   1.131  -0.101  0.00  0.00    +0.044 C 
ENDBRANCH  33  34
ENDBRANCH   3  33
TORSDOF 12
