REMARK  Name = ZINC35374418
REMARK  7 active torsions:
REMARK  status: ('A' for Active; 'I' for Inactive)
REMARK    1  A    between atoms: C_1  and  C_2
REMARK    2  A    between atoms: C_2  and  C_3
REMARK    3  A    between atoms: C_3  and  C_5
REMARK    4  A    between atoms: C_3  and  C_6
REMARK    5  A    between atoms: C_6  and  N_7
REMARK    6  A    between atoms: C_8  and  C_10
REMARK    7  A    between atoms: C_21  and  C_23
REMARK                            x       y       z     vdW  Elec       q    Type
REMARK                         _______ _______ _______ _____ _____    ______ ____
ROOT
ATOM      1  C   UNL     1       1.067  -4.459  -3.660  0.00  0.00    +0.028 C 
ATOM      2  C   UNL     1       2.503  -3.869  -3.539  0.00  0.00    +0.061 C 
ATOM      3  S   UNL     1       3.336  -4.910  -4.822  0.00  0.00    -0.174 S 
ATOM      4  C   UNL     1       2.286  -6.405  -4.618  0.00  0.00    -0.016 C 
ATOM      5  N   UNL     1       1.118  -5.909  -3.874  0.00  0.00    +0.397 N 
ATOM      6  C   UNL     1       1.884  -6.936  -5.986  0.00  0.00    +0.017 C 
ATOM      7  C   UNL     1       0.993  -8.172  -5.814  0.00  0.00    +0.107 C 
ATOM      8  N   UNL     1       1.687  -9.135  -4.948  0.00  0.00    -0.298 N 
ATOM      9  C   UNL     1       2.158  -8.692  -3.629  0.00  0.00    +0.107 C 
ATOM     10  C   UNL     1       3.043  -7.453  -3.814  0.00  0.00    +0.017 C 
ATOM     11  C   UNL     1       1.887 -10.404  -5.357  0.00  0.00    +0.248 C 
ATOM     12  O   UNL     1       1.427 -10.781  -6.417  0.00  0.00    -0.270 OA
ATOM     13  H   UNL     1       1.102  -6.362  -2.973  0.00  0.00    -0.083 HD
ATOM     14  H   UNL     1       0.287  -6.183  -4.377  0.00  0.00    -0.083 HD
ENDROOT
BRANCH  11  15
ATOM     15  C   UNL     1       2.666 -11.336  -4.517  0.00  0.00    +0.055 A 
ATOM     16  C   UNL     1       2.299 -11.556  -3.187  0.00  0.00    +0.016 A 
ATOM     17  C   UNL     1       3.030 -12.427  -2.408  0.00  0.00    +0.021 A 
ATOM     18  C   UNL     1       4.127 -13.085  -2.941  0.00  0.00    +0.042 A 
ATOM     19  C   UNL     1       4.497 -12.872  -4.257  0.00  0.00    +0.040 A 
ATOM     20  C   UNL     1       3.769 -12.007  -5.050  0.00  0.00    +0.054 A 
ATOM     21 CL   UNL     1       4.230 -11.747  -6.704  0.00  0.00    -0.083 Cl
ATOM     22 CL   UNL     1       5.042 -14.180  -1.952  0.00  0.00    -0.083 Cl
ENDBRANCH  11  15
BRANCH   1  24
ATOM     23  N   UNL     1       0.103  -2.898  -2.001  0.00  0.00    -0.316 N 
ATOM     24  C   UNL     1       0.304  -4.172  -2.392  0.00  0.00    +0.200 C 
ATOM     25  O   UNL     1      -0.129  -5.087  -1.724  0.00  0.00    -0.278 OA
ATOM     26  H   UNL     1       0.450  -2.166  -2.535  0.00  0.00    +0.149 HD
BRANCH  23  27
ATOM     27  C   UNL     1      -0.638  -2.619  -0.769  0.00  0.00    +0.107 C 
BRANCH  27  28
ATOM     28  C   UNL     1      -0.723  -1.106  -0.556  0.00  0.00    +0.003 C 
ATOM     29  C   UNL     1       0.680  -0.544  -0.320  0.00  0.00    +0.009 C 
BRANCH  28  31
ATOM     30  C   UNL     1      -1.789   0.702   0.799  0.00  0.00    +0.004 C 
ATOM     31  C   UNL     1      -1.602  -0.810   0.660  0.00  0.00    +0.001 C 
ENDBRANCH  28  31
ENDBRANCH  27  28
ENDBRANCH  23  27
ENDBRANCH   1  24
TORSDOF 5
