REMARK  Name = ZINC14731576
REMARK  6 active torsions:
REMARK  status: ('A' for Active; 'I' for Inactive)
REMARK    1  A    between atoms: C_1  and  C_2
REMARK    2  A    between atoms: C_2  and  N_3
REMARK    3  A    between atoms: C_6  and  C_8
REMARK    4  A    between atoms: C_18  and  N_22
REMARK    5  A    between atoms: N_22  and  C_23
REMARK    6  A    between atoms: C_32  and  O_35
REMARK                            x       y       z     vdW  Elec       q    Type
REMARK                         _______ _______ _______ _____ _____    ______ ____
ROOT
ATOM      1  N   UNL     1      -1.438  -0.362   0.024  0.00  0.00    -0.268 N 
ATOM      2  C   UNL     1      -2.049  -0.862   1.111  0.00  0.00    +0.043 A 
ATOM      3  C   UNL     1      -3.223  -1.401   0.699  0.00  0.00    +0.004 A 
ATOM      4  C   UNL     1      -3.276  -1.196  -0.690  0.00  0.00    +0.151 A 
ATOM      5  N   UNL     1      -2.166  -0.557  -1.021  0.00  0.00    -0.166 NA
ATOM      6  C   UNL     1      -4.221  -2.067   1.605  0.00  0.00    +0.023 C 
ATOM      7  C   UNL     1      -3.895  -1.676   3.053  0.00  0.00    -0.067 C 
ATOM      8  C   UNL     1      -2.404  -1.900   3.319  0.00  0.00    -0.009 C 
ATOM      9  C   UNL     1      -1.579  -0.865   2.543  0.00  0.00    +0.054 C 
ENDROOT
BRANCH   4  10
ATOM     10  C   UNL     1      -4.362  -1.607  -1.602  0.00  0.00    +0.267 C 
ATOM     11  O   UNL     1      -5.381  -2.094  -1.152  0.00  0.00    -0.268 OA
ATOM     12  N   UNL     1      -4.223  -1.444  -2.932  0.00  0.00    -0.296 N 
ATOM     13  C   UNL     1      -2.952  -0.984  -3.445  0.00  0.00    +0.108 C 
ATOM     14  C   UNL     1      -2.940   0.565  -3.490  0.00  0.00    +0.019 C 
ATOM     15  C   UNL     1      -3.827   1.052  -4.557  0.00  0.00    +0.002 C 
ATOM     16  C   UNL     1      -5.297   0.691  -4.366  0.00  0.00    +0.002 C 
ATOM     17  C   UNL     1      -5.548  -0.692  -4.917  0.00  0.00    +0.019 C 
ATOM     18  C   UNL     1      -5.373  -1.749  -3.806  0.00  0.00    +0.108 C 
ENDBRANCH   4  10
BRANCH   7  19
ATOM     19  N   UNL     1      -4.686  -2.502   3.974  0.00  0.00    +0.383 N 
ATOM     20  H   UNL     1      -5.665  -2.417   3.745  0.00  0.00    -0.085 HD
ATOM     21  H   UNL     1      -4.404  -3.467   3.888  0.00  0.00    -0.085 HD
BRANCH  19  22
ATOM     22  C   UNL     1      -4.464  -2.048   5.353  0.00  0.00    -0.065 C 
ATOM     23  C   UNL     1      -5.007  -0.627   5.516  0.00  0.00    -0.022 C 
ATOM     24  C   UNL     1      -4.776  -0.154   6.952  0.00  0.00    +0.005 C 
ATOM     25  C   UNL     1      -5.501  -1.091   7.920  0.00  0.00    -0.008 C 
ATOM     26  C   UNL     1      -4.958  -2.512   7.758  0.00  0.00    +0.005 C 
ATOM     27  C   UNL     1      -5.189  -2.985   6.321  0.00  0.00    -0.022 C 
ATOM     28  C   UNL     1      -6.688  -2.974   6.016  0.00  0.00    +0.036 C 
ATOM     29  C   UNL     1      -7.231  -1.552   6.178  0.00  0.00    +0.067 C 
ATOM     30  C   UNL     1      -6.506  -0.616   5.210  0.00  0.00    +0.036 C 
ATOM     31  C   UNL     1      -7.000  -1.079   7.615  0.00  0.00    +0.038 C 
BRANCH  29  32
ATOM     32  O   UNL     1      -8.631  -1.542   5.893  0.00  0.00    -0.389 OA
ATOM     33  H   UNL     1      -9.043  -0.671   5.976  0.00  0.00    +0.210 HD
ENDBRANCH  29  32
ENDBRANCH  19  22
ENDBRANCH   7  19
BRANCH   1  35
ATOM     34  C   UNL     1      -0.344   1.814   0.249  0.00  0.00    +0.029 C 
ATOM     35  C   UNL     1      -0.138   0.314   0.028  0.00  0.00    +0.140 C 
ENDBRANCH   1  35
TORSDOF 5
