REMARK  Name = ZINC35754032
REMARK  8 active torsions:
REMARK  status: ('A' for Active; 'I' for Inactive)
REMARK    1  A    between atoms: C_4  and  C_7
REMARK    2  A    between atoms: C_7  and  N_8
REMARK    3  A    between atoms: C_9  and  C_11
REMARK    4  A    between atoms: C_13  and  C_26
REMARK    5  A    between atoms: N_18  and  C_19
REMARK    6  A    between atoms: C_19  and  C_20
REMARK    7  A    between atoms: C_30  and  N_32
REMARK    8  A    between atoms: C_33  and  C_35
REMARK                            x       y       z     vdW  Elec       q    Type
REMARK                         _______ _______ _______ _____ _____    ______ ____
ROOT
ATOM      1  C   UNL     1       5.987  -1.477   2.838  0.00  0.00    +0.210 C 
ATOM      2  C   UNL     1       6.713  -0.346   3.606  0.00  0.00    +0.238 C 
ATOM      3  O   UNL     1       8.098  -0.689   3.407  0.00  0.00    -0.440 OA
ATOM      4  C   UNL     1       8.173  -2.016   3.206  0.00  0.00    +0.405 C 
ATOM      5  O   UNL     1       9.197  -2.658   3.333  0.00  0.00    -0.226 OA
ATOM      6  N   UNL     1       6.989  -2.561   2.850  0.00  0.00    -0.248 N 
ENDROOT
BRANCH   2   7
ATOM      7  C   UNL     1       6.356  -0.375   5.070  0.00  0.00    -0.003 A 
ATOM      8  C   UNL     1       7.053  -1.199   5.935  0.00  0.00    +0.007 A 
ATOM      9  C   UNL     1       6.728  -1.228   7.279  0.00  0.00    +0.002 A 
ATOM     10  C   UNL     1       5.706  -0.434   7.761  0.00  0.00    +0.023 A 
ATOM     11  C   UNL     1       5.004   0.394   6.895  0.00  0.00    +0.034 A 
ATOM     12  C   UNL     1       5.336   0.425   5.547  0.00  0.00    +0.030 A 
BRANCH  11  13
ATOM     13  N   UNL     1       3.969   1.199   7.380  0.00  0.00    -0.281 N 
ATOM     14  C   UNL     1       4.040   1.712   8.625  0.00  0.00    +0.248 C 
ATOM     15  O   UNL     1       5.045   1.555   9.290  0.00  0.00    -0.270 OA
ATOM     16  H   UNL     1       3.199   1.388   6.821  0.00  0.00    +0.155 HD
BRANCH  14  17
ATOM     17  C   UNL     1       2.896   2.463   9.181  0.00  0.00    +0.037 A 
ATOM     18  C   UNL     1       1.738   2.640   8.421  0.00  0.00    +0.016 A 
ATOM     19  C   UNL     1       0.674   3.342   8.944  0.00  0.00    +0.039 A 
ATOM     20  C   UNL     1       0.752   3.873  10.223  0.00  0.00    +0.123 A 
ATOM     21  C   UNL     1       1.899   3.701  10.982  0.00  0.00    +0.039 A 
ATOM     22  C   UNL     1       2.967   2.995  10.470  0.00  0.00    +0.016 A 
ATOM     23  F   UNL     1      -0.294   4.561  10.731  0.00  0.00    -0.205 F 
ENDBRANCH  14  17
ENDBRANCH  11  13
ENDBRANCH   2   7
BRANCH   1  25
ATOM     24  N   UNL     1       4.573  -0.315   1.174  0.00  0.00    -0.310 N 
ATOM     25  C   UNL     1       5.673  -1.051   1.427  0.00  0.00    +0.238 C 
ATOM     26  O   UNL     1       6.411  -1.372   0.519  0.00  0.00    -0.274 OA
ATOM     27  H   UNL     1       3.984  -0.059   1.901  0.00  0.00    +0.149 HD
BRANCH  24  28
ATOM     28  C   UNL     1       4.268   0.099  -0.198  0.00  0.00    +0.139 C 
BRANCH  28  32
ATOM     29  C   UNL     1       0.660   2.386  -0.228  0.00  0.00    +0.000 A 
ATOM     30  C   UNL     1       1.878   3.018  -0.061  0.00  0.00    +0.000 A 
ATOM     31  C   UNL     1       3.046   2.278  -0.051  0.00  0.00    +0.005 A 
ATOM     32  C   UNL     1       2.995   0.905  -0.207  0.00  0.00    -0.030 A 
ATOM     33  C   UNL     1       1.777   0.273  -0.374  0.00  0.00    +0.005 A 
ATOM     34  C   UNL     1       0.610   1.013  -0.385  0.00  0.00    +0.000 A 
ENDBRANCH  28  32
ENDBRANCH  24  28
ENDBRANCH   1  25
BRANCH   6  35
ATOM     35  C   UNL     1       6.741  -3.970   2.533  0.00  0.00    +0.147 C 
BRANCH  35  36
ATOM     36  C   UNL     1       6.949  -4.197   1.057  0.00  0.00    -0.030 A 
ATOM     37  C   UNL     1       5.892  -4.047   0.179  0.00  0.00    +0.005 A 
ATOM     38  C   UNL     1       6.082  -4.255  -1.174  0.00  0.00    +0.000 A 
ATOM     39  C   UNL     1       7.330  -4.613  -1.649  0.00  0.00    +0.000 A 
ATOM     40  C   UNL     1       8.388  -4.761  -0.771  0.00  0.00    +0.000 A 
ATOM     41  C   UNL     1       8.198  -4.549   0.581  0.00  0.00    +0.005 A 
ENDBRANCH  35  36
ENDBRANCH   6  35
TORSDOF 8
