REMARK  Name = ZINC09739843
REMARK  7 active torsions:
REMARK  status: ('A' for Active; 'I' for Inactive)
REMARK    1  A    between atoms: C_1  and  C_2
REMARK    2  A    between atoms: C_2  and  C_3
REMARK    3  A    between atoms: C_8  and  N_9
REMARK    4  A    between atoms: C_10  and  C_12
REMARK    5  A    between atoms: N_14  and  C_15
REMARK    6  A    between atoms: N_21  and  S_25
REMARK    7  A    between atoms: S_25  and  C_28
REMARK                            x       y       z     vdW  Elec       q    Type
REMARK                         _______ _______ _______ _____ _____    ______ ____
ROOT
ATOM      1  C   UNL     1       3.296  -1.510   2.635  0.00  0.00    +0.036 A 
ATOM      2  C   UNL     1       2.364  -2.432   2.175  0.00  0.00    +0.024 A 
ATOM      3  C   UNL     1       1.339  -2.025   1.345  0.00  0.00    +0.007 A 
ATOM      4  C   UNL     1       1.231  -0.698   0.963  0.00  0.00    -0.025 A 
ATOM      5  C   UNL     1       2.159   0.226   1.421  0.00  0.00    +0.056 A 
ATOM      6  C   UNL     1       3.193  -0.179   2.256  0.00  0.00    +0.048 A 
ATOM      7  N   UNL     1       2.068   1.575   1.058  0.00  0.00    -0.202 N 
ATOM      8  C   UNL     1       1.171   1.955  -0.042  0.00  0.00    +0.132 C 
ATOM      9  C   UNL     1      -0.156   1.211   0.156  0.00  0.00    +0.025 C 
ATOM     10  C   UNL     1       0.102  -0.292   0.053  0.00  0.00    +0.038 C 
ENDROOT
BRANCH   1  13
ATOM     11  C   UNL     1       4.120  -2.890   4.387  0.00  0.00    +0.303 C 
ATOM     12  O   UNL     1       3.051  -3.464   4.423  0.00  0.00    -0.265 OA
ATOM     13  N   UNL     1       4.335  -1.921   3.474  0.00  0.00    -0.278 N 
ATOM     14  H   UNL     1       5.210  -1.510   3.401  0.00  0.00    +0.155 HD
BRANCH  11  16
ATOM     15  N   UNL     1       4.982  -4.225   6.266  0.00  0.00    -0.277 N 
ATOM     16  C   UNL     1       5.197  -3.257   5.353  0.00  0.00    +0.303 C 
ATOM     17  O   UNL     1       6.266  -2.683   5.317  0.00  0.00    -0.265 OA
ATOM     18  H   UNL     1       4.103  -4.627   6.349  0.00  0.00    +0.155 HD
BRANCH  15  24
ATOM     19  C   UNL     1       5.746  -5.254   8.311  0.00  0.00    -0.026 A 
ATOM     20  C   UNL     1       6.780  -5.674   9.125  0.00  0.00    +0.005 A 
ATOM     21  C   UNL     1       8.092  -5.495   8.727  0.00  0.00    +0.000 A 
ATOM     22  C   UNL     1       8.373  -4.895   7.513  0.00  0.00    +0.002 A 
ATOM     23  C   UNL     1       7.345  -4.477   6.692  0.00  0.00    +0.023 A 
ATOM     24  C   UNL     1       6.025  -4.651   7.091  0.00  0.00    +0.037 A 
BRANCH  19  26
ATOM     25  C   UNL     1       3.775  -6.750   8.146  0.00  0.00    +0.009 C 
ATOM     26  C   UNL     1       4.316  -5.450   8.746  0.00  0.00    +0.033 C 
ENDBRANCH  19  26
ENDBRANCH  15  24
ENDBRANCH  11  16
ENDBRANCH   1  13
BRANCH   7  27
ATOM     27  S   UNL     1       2.957   2.722   1.855  0.00  0.00    +0.081 S 
ATOM     28  O   UNL     1       2.381   3.980   1.530  0.00  0.00    -0.149 OA
ATOM     29  O   UNL     1       3.095   2.271   3.195  0.00  0.00    -0.149 OA
BRANCH  27  30
ATOM     30  C   UNL     1       4.572   2.711   1.151  0.00  0.00    +0.146 A 
ATOM     31  C   UNL     1       5.053   3.428   0.106  0.00  0.00    +0.036 A 
ATOM     32  C   UNL     1       6.370   3.255  -0.276  0.00  0.00    +0.010 A 
ATOM     33  C   UNL     1       7.142   2.374   0.405  0.00  0.00    +0.047 A 
ATOM     34  S   UNL     1       6.003   1.758   1.634  0.00  0.00    -0.077 S 
ENDBRANCH  27  30
ENDBRANCH   7  27
TORSDOF 6
