REMARK  Name = ZINC52342156
REMARK  6 active torsions:
REMARK  status: ('A' for Active; 'I' for Inactive)
REMARK    1  A    between atoms: C_1  and  C_2
REMARK    2  A    between atoms: C_2  and  C_4
REMARK    3  A    between atoms: C_2  and  N_10
REMARK    4  A    between atoms: C_11  and  C_15
REMARK    5  A    between atoms: C_17  and  N_22
REMARK    6  A    between atoms: C_19  and  N_21
REMARK                            x       y       z     vdW  Elec       q    Type
REMARK                         _______ _______ _______ _____ _____    ______ ____
ROOT
ATOM      1  N   UNL     1       0.824  -0.879   1.060  0.00  0.00    -0.222 N 
ATOM      2  C   UNL     1       0.198  -1.210   2.216  0.00  0.00    +0.182 A 
ATOM      3  N   UNL     1       1.072  -1.050   3.188  0.00  0.00    -0.108 NA
ATOM      4  N   UNL     1       2.196  -0.643   2.719  0.00  0.00    -0.023 NA
ATOM      5  N   UNL     1       2.130  -0.521   1.437  0.00  0.00    -0.043 NA
ENDROOT
BRANCH   2   6
ATOM      6  C   UNL     1      -1.203  -1.665   2.360  0.00  0.00    +0.024 A 
ATOM      7  C   UNL     1      -2.184  -1.191   1.490  0.00  0.00    +0.034 A 
ATOM      8  C   UNL     1      -3.496  -1.619   1.626  0.00  0.00    +0.027 A 
ATOM      9  C   UNL     1      -3.834  -2.519   2.628  0.00  0.00    +0.045 A 
ATOM     10  C   UNL     1      -2.859  -2.993   3.497  0.00  0.00    +0.027 A 
ATOM     11  C   UNL     1      -1.544  -2.573   3.361  0.00  0.00    +0.034 A 
BRANCH  10  12
ATOM     12  N   UNL     1      -3.203  -3.898   4.504  0.00  0.00    -0.358 N 
ATOM     13  H   UNL     1      -4.122  -4.195   4.596  0.00  0.00    +0.142 HD
ATOM     14  H   UNL     1      -2.522  -4.229   5.111  0.00  0.00    +0.142 HD
ENDBRANCH  10  12
BRANCH   8  15
ATOM     15  N   UNL     1      -4.479  -1.144   0.755  0.00  0.00    -0.358 N 
ATOM     16  H   UNL     1      -4.244  -0.515   0.055  0.00  0.00    +0.142 HD
ATOM     17  H   UNL     1      -5.397  -1.443   0.850  0.00  0.00    +0.142 HD
ENDBRANCH   8  15
ENDBRANCH   2   6
BRANCH   1  19
ATOM     18  C   UNL     1       0.165   0.534  -0.824  0.00  0.00    +0.033 C 
ATOM     19  C   UNL     1       0.262  -0.898  -0.293  0.00  0.00    +0.111 C 
BRANCH  19  20
ATOM     20  C   UNL     1       1.168  -1.722  -1.210  0.00  0.00    +0.013 C 
ATOM     21  C   UNL     1       0.581  -1.741  -2.623  0.00  0.00    +0.005 C 
ATOM     22  C   UNL     1       1.487  -2.565  -3.540  0.00  0.00    +0.000 C 
ATOM     23  C   UNL     1       1.584  -3.996  -3.009  0.00  0.00    +0.000 C 
ATOM     24  C   UNL     1       2.171  -3.977  -1.596  0.00  0.00    +0.000 C 
ATOM     25  C   UNL     1       1.265  -3.153  -0.679  0.00  0.00    +0.005 C 
ENDBRANCH  19  20
ENDBRANCH   1  19
TORSDOF 5
