REMARK  Name = ZINC64928269
REMARK  11 active torsions:
REMARK  status: ('A' for Active; 'I' for Inactive)
REMARK    1  A    between atoms: C_1  and  C_2
REMARK    2  A    between atoms: C_2  and  C_3
REMARK    3  A    between atoms: C_6  and  C_9
REMARK    4  A    between atoms: C_9  and  N_10
REMARK    5  A    between atoms: C_11  and  C_13
REMARK    6  A    between atoms: C_13  and  C_14
REMARK    7  A    between atoms: N_24  and  S_25
REMARK    8  A    between atoms: S_25  and  C_28
REMARK    9  A    between atoms: C_30  and  C_38
REMARK   10  A    between atoms: C_33  and  N_34
REMARK   11  A    between atoms: C_35  and  C_37
REMARK                            x       y       z     vdW  Elec       q    Type
REMARK                         _______ _______ _______ _____ _____    ______ ____
ROOT
ATOM      1  C   UNL     1       5.101  -0.335  -9.153  0.00  0.00    +0.119 C 
ATOM      2  C   UNL     1       5.716   0.767  -9.980  0.00  0.00    -0.025 A 
ATOM      3  C   UNL     1       6.491   1.714  -9.324  0.00  0.00    +0.005 A 
ATOM      4  C   UNL     1       7.087   2.740 -10.028  0.00  0.00    +0.000 A 
ATOM      5  C   UNL     1       6.914   2.823 -11.397  0.00  0.00    +0.000 A 
ATOM      6  C   UNL     1       6.142   1.885 -12.049  0.00  0.00    +0.004 A 
ATOM      7  C   UNL     1       5.535   0.854 -11.342  0.00  0.00    -0.041 A 
ATOM      8  C   UNL     1       4.684  -0.118 -12.117  0.00  0.00    +0.052 C 
ATOM      9  C   UNL     1       4.492  -1.416 -11.335  0.00  0.00    +0.115 C 
ATOM     10  N   UNL     1       4.114  -1.063  -9.957  0.00  0.00    -0.168 NA
ENDROOT
BRANCH  10  11
ATOM     11  S   UNL     1       2.633  -1.472  -9.339  0.00  0.00    +0.063 S 
ATOM     12  O   UNL     1       2.325  -0.502  -8.347  0.00  0.00    -0.153 OA
ATOM     13  O   UNL     1       1.784  -1.721 -10.451  0.00  0.00    -0.153 OA
BRANCH  11  14
ATOM     14  C   UNL     1       2.826  -3.008  -8.498  0.00  0.00    +0.127 A 
ATOM     15  C   UNL     1       3.960  -3.770  -8.702  0.00  0.00    +0.033 A 
ATOM     16  C   UNL     1       4.112  -4.976  -8.043  0.00  0.00    -0.048 A 
ATOM     17  C   UNL     1       3.130  -5.423  -7.178  0.00  0.00    +0.005 A 
ATOM     18  C   UNL     1       1.994  -4.666  -6.969  0.00  0.00    +0.025 A 
ATOM     19  C   UNL     1       1.841  -3.452  -7.626  0.00  0.00    +0.060 A 
ATOM     20  C   UNL     1       5.350  -5.805  -8.268  0.00  0.00    +0.044 C 
BRANCH  19  21
ATOM     21  N   UNL     1       0.693  -2.680  -7.414  0.00  0.00    -0.284 N 
ATOM     22  C   UNL     1      -0.465  -3.275  -7.067  0.00  0.00    +0.214 C 
ATOM     23  O   UNL     1      -0.496  -4.471  -6.868  0.00  0.00    -0.276 OA
ATOM     24  C   UNL     1      -1.721  -2.455  -6.927  0.00  0.00    +0.109 C 
ATOM     25  H   UNL     1       0.732  -1.716  -7.516  0.00  0.00    +0.155 HD
ENDBRANCH  19  21
ENDBRANCH  11  14
ENDBRANCH  10  11
BRANCH   1  26
ATOM     26  C   UNL     1       4.413   0.272  -7.928  0.00  0.00    +0.121 C 
BRANCH  26  28
ATOM     27  N   UNL     1       3.301  -0.559  -5.881  0.00  0.00    -0.311 N 
ATOM     28  C   UNL     1       4.094  -0.819  -6.939  0.00  0.00    +0.215 C 
ATOM     29  O   UNL     1       4.551  -1.932  -7.096  0.00  0.00    -0.276 OA
ATOM     30  H   UNL     1       2.935   0.331  -5.757  0.00  0.00    +0.149 HD
BRANCH  27  31
ATOM     31  C   UNL     1       2.990  -1.620  -4.920  0.00  0.00    +0.139 C 
BRANCH  31  35
ATOM     32  C   UNL     1       0.444  -0.071  -1.860  0.00  0.00    -0.048 A 
ATOM     33  C   UNL     1      -0.105  -0.625  -3.001  0.00  0.00    +0.004 A 
ATOM     34  C   UNL     1       0.719  -1.126  -3.992  0.00  0.00    +0.005 A 
ATOM     35  C   UNL     1       2.092  -1.073  -3.841  0.00  0.00    -0.030 A 
ATOM     36  C   UNL     1       2.641  -0.518  -2.700  0.00  0.00    +0.005 A 
ATOM     37  C   UNL     1       1.817  -0.013  -1.712  0.00  0.00    +0.004 A 
BRANCH  32  39
ATOM     38  C   UNL     1      -0.744   1.952  -1.056  0.00  0.00    +0.009 C 
ATOM     39  C   UNL     1      -0.455   0.475  -0.780  0.00  0.00    +0.032 C 
ENDBRANCH  32  39
ENDBRANCH  31  35
ENDBRANCH  27  31
ENDBRANCH  26  28
ENDBRANCH   1  26
TORSDOF 8
