REMARK  Name = ZINC63617069
REMARK  12 active torsions:
REMARK  status: ('A' for Active; 'I' for Inactive)
REMARK    1  A    between atoms: C_1  and  O_2
REMARK    2  A    between atoms: O_2  and  C_3
REMARK    3  A    between atoms: C_6  and  C_9
REMARK    4  A    between atoms: C_9  and  C_11
REMARK    5  A    between atoms: C_9  and  N_22
REMARK    6  A    between atoms: N_13  and  C_14
REMARK    7  A    between atoms: C_17  and  O_20
REMARK    8  A    between atoms: O_20  and  C_21
REMARK    9  A    between atoms: N_22  and  C_23
REMARK   10  A    between atoms: C_23  and  C_24
REMARK   11  A    between atoms: C_29  and  C_31
REMARK   12  A    between atoms: C_31  and  C_32
REMARK                            x       y       z     vdW  Elec       q    Type
REMARK                         _______ _______ _______ _____ _____    ______ ____
ROOT
ATOM      1  C   UNL     1       2.332  -2.716  -4.344  0.00  0.00    +0.193 C 
ENDROOT
BRANCH   1   5
ATOM      2  C   UNL     1      -0.797  -2.266  -1.469  0.00  0.00    +0.120 A 
ATOM      3  C   UNL     1      -0.269  -1.150  -2.101  0.00  0.00    +0.046 A 
ATOM      4  C   UNL     1       0.743  -1.298  -3.030  0.00  0.00    +0.009 A 
ATOM      5  C   UNL     1       1.229  -2.557  -3.330  0.00  0.00    -0.018 A 
ATOM      6  C   UNL     1       0.703  -3.671  -2.702  0.00  0.00    +0.009 A 
ATOM      7  C   UNL     1      -0.304  -3.528  -1.768  0.00  0.00    +0.046 A 
BRANCH   2   9
ATOM      8  C   UNL     1      -2.250  -0.794  -0.296  0.00  0.00    +0.277 C 
ATOM      9  O   UNL     1      -1.792  -2.123  -0.554  0.00  0.00    -0.495 OA
ENDBRANCH   2   9
ENDBRANCH   1   5
BRANCH   1  10
ATOM     10  C   UNL     1       1.764  -3.283  -5.620  0.00  0.00    +0.242 C 
ATOM     11  O   UNL     1       2.111  -4.380  -6.003  0.00  0.00    -0.273 OA
ATOM     12  N   UNL     1       0.870  -2.571  -6.335  0.00  0.00    -0.284 N 
ATOM     13  H   UNL     1       0.598  -1.691  -6.031  0.00  0.00    +0.155 HD
BRANCH  12  14
ATOM     14  C   UNL     1       0.336  -3.102  -7.516  0.00  0.00    +0.034 A 
ATOM     15  C   UNL     1       0.065  -4.461  -7.606  0.00  0.00    +0.027 A 
ATOM     16  C   UNL     1      -0.463  -4.983  -8.770  0.00  0.00    +0.047 A 
ATOM     17  C   UNL     1      -0.722  -4.151  -9.849  0.00  0.00    +0.120 A 
ATOM     18  C   UNL     1      -0.452  -2.794  -9.760  0.00  0.00    +0.047 A 
ATOM     19  C   UNL     1       0.070  -2.269  -8.594  0.00  0.00    +0.027 A 
BRANCH  17  20
ATOM     20  O   UNL     1      -1.241  -4.667 -10.996  0.00  0.00    -0.495 OA
ATOM     21  C   UNL     1      -1.483  -3.752 -12.067  0.00  0.00    +0.277 C 
ENDBRANCH  17  20
ENDBRANCH  12  14
ENDBRANCH   1  10
BRANCH   1  22
ATOM     22  N   UNL     1       3.353  -3.625  -3.817  0.00  0.00    -0.278 N 
ATOM     23  C   UNL     1       4.317  -3.156  -3.001  0.00  0.00    +0.221 C 
ATOM     24  O   UNL     1       4.339  -1.980  -2.703  0.00  0.00    -0.275 OA
BRANCH  22  25
ATOM     25  C   UNL     1       3.325  -5.045  -4.178  0.00  0.00    +0.183 C 
BRANCH  25  26
ATOM     26  C   UNL     1       4.319  -5.302  -5.281  0.00  0.00    +0.122 A 
ATOM     27  C   UNL     1       5.581  -5.737  -5.117  0.00  0.00    +0.046 A 
ATOM     28  C   UNL     1       6.150  -5.839  -6.408  0.00  0.00    +0.041 A 
ATOM     29  C   UNL     1       5.202  -5.460  -7.283  0.00  0.00    +0.195 A 
ATOM     30  O   UNL     1       4.093  -5.141  -6.595  0.00  0.00    -0.466 OA
ENDBRANCH  25  26
ENDBRANCH  22  25
BRANCH  23  31
ATOM     31  C   UNL     1       5.367  -4.091  -2.459  0.00  0.00    +0.129 C 
BRANCH  31  32
ATOM     32  C   UNL     1       6.319  -3.322  -1.580  0.00  0.00    -0.033 C 
ATOM     33  C   UNL     1       6.261  -3.196  -0.234  0.00  0.00    -0.001 A 
ATOM     34  C   UNL     1       5.329  -3.715   0.774  0.00  0.00    +0.010 A 
ATOM     35  C   UNL     1       5.535  -3.411   2.076  0.00  0.00    +0.001 A 
ATOM     36  C   UNL     1       6.613  -2.613   2.485  0.00  0.00    +0.002 A 
ATOM     37  C   UNL     1       7.510  -2.100   1.617  0.00  0.00    +0.026 A 
ATOM     38  C   UNL     1       7.391  -2.357   0.224  0.00  0.00    +0.043 A 
ATOM     39  N   UNL     1       8.119  -1.979  -0.799  0.00  0.00    -0.380 N 
ATOM     40  C   UNL     1       7.536  -2.542  -2.022  0.00  0.00    +0.145 C 
ATOM     41  H   UNL     1       8.913  -1.423  -0.754  0.00  0.00    +0.160 HD
ENDBRANCH  31  32
ENDBRANCH  23  31
ENDBRANCH   1  22
TORSDOF 10
