REMARK  Name = ZINC40288122
REMARK  7 active torsions:
REMARK  status: ('A' for Active; 'I' for Inactive)
REMARK    1  A    between atoms: C_1  and  C_2
REMARK    2  A    between atoms: C_2  and  C_3
REMARK    3  A    between atoms: C_2  and  C_4
REMARK    4  A    between atoms: C_7  and  C_10
REMARK    5  A    between atoms: C_15  and  C_19
REMARK    6  A    between atoms: C_15  and  C_20
REMARK    7  A    between atoms: C_26  and  C_27
REMARK                            x       y       z     vdW  Elec       q    Type
REMARK                         _______ _______ _______ _____ _____    ______ ____
ROOT
ATOM      1  C   UNL     1       2.707  -1.868  -4.752  0.00  0.00    +0.174 C 
ATOM      2  C   UNL     1       4.125  -1.343  -4.762  0.00  0.00    +0.041 C 
ATOM      3  C   UNL     1       5.186  -2.134  -4.496  0.00  0.00    +0.019 C 
ATOM      4  C   UNL     1       6.590  -1.577  -4.494  0.00  0.00    +0.058 C 
ATOM      5  C   UNL     1       6.689  -0.432  -5.504  0.00  0.00    -0.023 C 
ATOM      6  C   UNL     1       5.667   0.642  -5.118  0.00  0.00    +0.086 C 
ATOM      7  C   UNL     1       4.300   0.020  -5.064  0.00  0.00    +0.164 C 
ATOM      8  O   UNL     1       3.325   0.709  -5.288  0.00  0.00    -0.292 OA
ATOM      9  C   UNL     1       8.099   0.163  -5.472  0.00  0.00    +0.011 C 
ATOM     10  C   UNL     1       6.382  -0.955  -6.909  0.00  0.00    +0.011 C 
ATOM     11  N   UNL     1       5.038  -3.473  -4.222  0.00  0.00    -0.302 N 
ATOM     12  C   UNL     1       3.823  -4.062  -4.507  0.00  0.00    +0.134 A 
ATOM     13  N   UNL     1       2.714  -3.329  -4.763  0.00  0.00    -0.238 N 
ATOM     14  N   UNL     1       1.665  -4.209  -5.017  0.00  0.00    -0.176 NA
ATOM     15  C   UNL     1       2.101  -5.436  -4.917  0.00  0.00    +0.149 A 
ATOM     16  C   UNL     1       3.473  -5.394  -4.592  0.00  0.00    +0.096 A 
ATOM     17  H   UNL     1       5.766  -3.989  -3.841  0.00  0.00    +0.153 HD
ENDROOT
BRANCH   1  21
ATOM     18  C   UNL     1       0.707  -0.490  -1.238  0.00  0.00    -0.045 A 
ATOM     19  C   UNL     1       0.222  -0.151  -2.487  0.00  0.00    +0.004 A 
ATOM     20  C   UNL     1       0.869  -0.597  -3.624  0.00  0.00    +0.006 A 
ATOM     21  C   UNL     1       2.002  -1.381  -3.513  0.00  0.00    -0.018 A 
ATOM     22  C   UNL     1       2.488  -1.720  -2.263  0.00  0.00    +0.006 A 
ATOM     23  C   UNL     1       1.843  -1.270  -1.126  0.00  0.00    +0.004 A 
BRANCH  18  25
ATOM     24  C   UNL     1      -0.019   1.526   0.010  0.00  0.00    +0.012 C 
ATOM     25  C   UNL     1       0.002  -0.004   0.002  0.00  0.00    +0.013 C 
ATOM     26  C   UNL     1      -1.433  -0.534   0.013  0.00  0.00    +0.012 C 
ENDBRANCH  18  25
ENDBRANCH   1  21
BRANCH  16  27
ATOM     27  C   UNL     1       4.358  -6.548  -4.383  0.00  0.00    +0.246 C 
ATOM     28  O   UNL     1       5.529  -6.373  -4.104  0.00  0.00    -0.270 OA
ATOM     29  N   UNL     1       3.873  -7.800  -4.501  0.00  0.00    -0.325 N 
ATOM     30  H   UNL     1       2.939  -7.939  -4.723  0.00  0.00    +0.145 HD
ATOM     31  H   UNL     1       4.457  -8.561  -4.362  0.00  0.00    +0.145 HD
ENDBRANCH  16  27
TORSDOF 3
