REMARK  Name = ZINC35723136
REMARK  5 active torsions:
REMARK  status: ('A' for Active; 'I' for Inactive)
REMARK    1  A    between atoms: N_9  and  C_11
REMARK    2  A    between atoms: C_14  and  N_23
REMARK    3  A    between atoms: C_16  and  C_17
REMARK    4  A    between atoms: N_19  and  C_20
REMARK    5  A    between atoms: N_26  and  C_27
REMARK                            x       y       z     vdW  Elec       q    Type
REMARK                         _______ _______ _______ _____ _____    ______ ____
ROOT
ATOM      1  C   UNL     1       5.226  -2.229   1.126  0.00  0.00    +0.042 A 
ATOM      2  C   UNL     1       6.435  -2.857   0.853  0.00  0.00    +0.026 A 
ATOM      3  C   UNL     1       7.021  -3.673   1.798  0.00  0.00    +0.025 A 
ATOM      4  C   UNL     1       6.407  -3.872   3.031  0.00  0.00    +0.036 A 
ATOM      5  C   UNL     1       5.204  -3.254   3.319  0.00  0.00    +0.038 A 
ATOM      6  C   UNL     1       4.606  -2.421   2.369  0.00  0.00    +0.059 A 
ENDROOT
BRANCH   1  15
ATOM      7  C   UNL     1       4.659  -0.271  -4.700  0.00  0.00    +0.000 A 
ATOM      8  C   UNL     1       3.836  -1.376  -4.590  0.00  0.00    +0.000 A 
ATOM      9  C   UNL     1       3.563  -1.905  -3.345  0.00  0.00    +0.005 A 
ATOM     10  C   UNL     1       4.113  -1.337  -2.203  0.00  0.00    -0.027 A 
ATOM     11  C   UNL     1       4.941  -0.243  -2.312  0.00  0.00    -0.041 A 
ATOM     12  C   UNL     1       5.208   0.292  -3.567  0.00  0.00    +0.004 A 
ATOM     13  C   UNL     1       5.598   0.406  -1.123  0.00  0.00    +0.054 C 
ATOM     14  C   UNL     1       4.863   0.048   0.168  0.00  0.00    +0.110 C 
ATOM     15  N   UNL     1       4.636  -1.407   0.171  0.00  0.00    -0.325 N 
ATOM     16  C   UNL     1       3.764  -1.956  -0.873  0.00  0.00    +0.140 C 
ENDBRANCH   1  15
BRANCH   4  17
ATOM     17  N   UNL     1       7.011  -4.704   3.986  0.00  0.00    -0.269 N 
ATOM     18  C   UNL     1       7.722  -5.778   3.590  0.00  0.00    +0.308 C 
ATOM     19  O   UNL     1       7.763  -6.080   2.413  0.00  0.00    -0.252 OA
ATOM     20  N   UNL     1       8.389  -6.517   4.499  0.00  0.00    -0.269 N 
ATOM     21  H   UNL     1       6.917  -4.505   4.931  0.00  0.00    +0.156 HD
ATOM     22  H   UNL     1       8.303  -6.316   5.444  0.00  0.00    +0.156 HD
BRANCH  20  23
ATOM     23  C   UNL     1       9.205  -7.574   4.079  0.00  0.00    +0.038 A 
ATOM     24  C   UNL     1      10.386  -7.851   4.755  0.00  0.00    +0.026 A 
ATOM     25  C   UNL     1      11.191  -8.895   4.340  0.00  0.00    +0.043 A 
ATOM     26  C   UNL     1      10.821  -9.665   3.251  0.00  0.00    +0.159 A 
ATOM     27  C   UNL     1       9.643  -9.391   2.574  0.00  0.00    +0.160 A 
ATOM     28  C   UNL     1       8.832  -8.350   2.990  0.00  0.00    +0.064 A 
ATOM     29  F   UNL     1       9.283 -10.143   1.511  0.00  0.00    -0.202 F 
ATOM     30  F   UNL     1      11.610 -10.685   2.848  0.00  0.00    -0.202 F 
ENDBRANCH  20  23
ENDBRANCH   4  17
BRANCH   6  31
ATOM     31  C   UNL     1       3.327  -1.752   2.670  0.00  0.00    +0.246 C 
ATOM     32  O   UNL     1       2.762  -1.105   1.810  0.00  0.00    -0.270 OA
ATOM     33  N   UNL     1       2.784  -1.859   3.899  0.00  0.00    -0.308 N 
ATOM     34  H   UNL     1       3.235  -2.376   4.586  0.00  0.00    +0.149 HD
BRANCH  33  35
ATOM     35  C   UNL     1       1.513  -1.195   4.198  0.00  0.00    +0.073 C 
ATOM     36  C   UNL     1       1.399  -0.455   5.533  0.00  0.00    +0.024 C 
ATOM     37  C   UNL     1       0.659  -1.779   5.326  0.00  0.00    +0.024 C 
ENDBRANCH  33  35
ENDBRANCH   6  31
TORSDOF 5
