REMARK  Name = ZINC39850363
REMARK  9 active torsions:
REMARK  status: ('A' for Active; 'I' for Inactive)
REMARK    1  A    between atoms: C_1  and  C_2
REMARK    2  A    between atoms: C_2  and  C_3
REMARK    3  A    between atoms: C_2  and  O_4
REMARK    4  A    between atoms: O_4  and  C_5
REMARK    5  A    between atoms: C_8  and  C_11
REMARK    6  A    between atoms: C_13  and  C_25
REMARK    7  A    between atoms: C_15  and  C_20
REMARK    8  A    between atoms: C_15  and  O_24
REMARK    9  A    between atoms: C_25  and  C_27
REMARK                            x       y       z     vdW  Elec       q    Type
REMARK                         _______ _______ _______ _____ _____    ______ ____
ROOT
ATOM      1  C   UNL     1      -2.671  -1.308   5.216  0.00  0.00    +0.120 C 
ATOM      2  C   UNL     1      -2.756  -0.398   6.445  0.00  0.00    +0.145 C 
ATOM      3  C   UNL     1      -3.427  -1.175   7.582  0.00  0.00    +0.243 C 
ATOM      4  N   UNL     1      -2.688  -2.417   7.817  0.00  0.00    -0.264 N 
ATOM      5  C   UNL     1      -2.017  -3.027   6.829  0.00  0.00    +0.302 C 
ATOM      6  O   UNL     1      -1.428  -4.061   7.075  0.00  0.00    -0.253 OA
ATOM      7  N   UNL     1      -1.973  -2.542   5.578  0.00  0.00    -0.292 N 
ATOM      8  H   UNL     1      -2.682  -2.805   8.706  0.00  0.00    +0.153 HD
ATOM      9  H   UNL     1      -1.468  -3.019   4.901  0.00  0.00    +0.151 HD
ENDROOT
BRANCH   1  13
ATOM     10  C   UNL     1      -0.521   0.688   2.107  0.00  0.00    +0.121 A 
ATOM     11  C   UNL     1       0.165  -0.032   3.075  0.00  0.00    +0.046 A 
ATOM     12  C   UNL     1      -0.532  -0.675   4.079  0.00  0.00    +0.009 A 
ATOM     13  C   UNL     1      -1.913  -0.604   4.120  0.00  0.00    -0.026 A 
ATOM     14  C   UNL     1      -2.599   0.112   3.156  0.00  0.00    +0.009 A 
ATOM     15  C   UNL     1      -1.906   0.763   2.154  0.00  0.00    +0.046 A 
BRANCH  10  16
ATOM     16  O   UNL     1       0.162   1.323   1.119  0.00  0.00    -0.489 OA
BRANCH  16  18
ATOM     17  C   UNL     1       2.118   0.013   0.569  0.00  0.00    +0.051 C 
ATOM     18  C   UNL     1       1.589   1.303   1.201  0.00  0.00    +0.167 C 
ATOM     19  C   UNL     1       2.159   2.509   0.452  0.00  0.00    +0.051 C 
ENDBRANCH  16  18
ENDBRANCH  10  16
ENDBRANCH   1  13
BRANCH   3  20
ATOM     20  C   UNL     1      -3.420  -0.327   8.856  0.00  0.00    +0.436 C 
ATOM     21  F   UNL     1      -4.121   0.862   8.628  0.00  0.00    -0.166 F 
ATOM     22  F   UNL     1      -4.033  -1.038   9.893  0.00  0.00    -0.166 F 
ATOM     23  F   UNL     1      -2.100  -0.030   9.211  0.00  0.00    -0.166 F 
ENDBRANCH   3  20
BRANCH   3  24
ATOM     24  O   UNL     1      -4.774  -1.484   7.220  0.00  0.00    -0.364 OA
ATOM     25  H   UNL     1      -5.261  -1.977   7.895  0.00  0.00    +0.212 HD
ENDBRANCH   3  24
BRANCH   2  26
ATOM     26  C   UNL     1      -1.369   0.021   6.863  0.00  0.00    +0.179 C 
ATOM     27  O   UNL     1      -0.489  -0.810   6.963  0.00  0.00    -0.291 OA
BRANCH  26  28
ATOM     28  C   UNL     1      -1.094   1.378   7.137  0.00  0.00    +0.055 A 
ATOM     29  C   UNL     1       0.104   1.969   7.527  0.00  0.00    +0.019 A 
ATOM     30  C   UNL     1       0.062   3.326   7.722  0.00  0.00    +0.008 A 
ATOM     31  C   UNL     1      -1.109   3.986   7.529  0.00  0.00    +0.046 A 
ATOM     32  S   UNL     1      -2.189   2.784   7.068  0.00  0.00    -0.094 S 
ENDBRANCH  26  28
ENDBRANCH   2  26
TORSDOF 7
