REMARK  Name = ZINC03840979
REMARK  11 active torsions:
REMARK  status: ('A' for Active; 'I' for Inactive)
REMARK    1  A    between atoms: C_1  and  C_2
REMARK    2  A    between atoms: C_10  and  C_12
REMARK    3  A    between atoms: N_16  and  C_17
REMARK    4  A    between atoms: C_19  and  C_39
REMARK    5  A    between atoms: C_22  and  O_38
REMARK    6  A    between atoms: C_24  and  C_28
REMARK    7  A    between atoms: C_28  and  C_30
REMARK    8  A    between atoms: C_28  and  C_31
REMARK    9  A    between atoms: N_33  and  C_34
REMARK   10  A    between atoms: N_33  and  C_35
REMARK   11  A    between atoms: C_35  and  C_36
REMARK                            x       y       z     vdW  Elec       q    Type
REMARK                         _______ _______ _______ _____ _____    ______ ____
ROOT
ATOM      1  C   UNL     1      -4.030   7.220   4.529  0.00  0.00    +0.014 C 
ATOM      2  C   UNL     1      -3.517   5.779   4.568  0.00  0.00    +0.042 C 
ATOM      3  C   UNL     1      -2.521   5.624   5.710  0.00  0.00    +0.057 A 
ATOM      4  C   UNL     1      -1.187   5.609   5.454  0.00  0.00    +0.015 A 
ATOM      5  S   UNL     1      -0.483   5.421   7.070  0.00  0.00    -0.057 S 
ATOM      6  C   UNL     1      -1.981   5.375   7.951  0.00  0.00    +0.165 A 
ATOM      7  N   UNL     1      -2.872   5.501   6.988  0.00  0.00    -0.229 NA
ATOM      8  N   UNL     1      -2.187   5.238   9.317  0.00  0.00    -0.259 N 
ATOM      9  C   UNL     1      -1.133   5.120  10.149  0.00  0.00    +0.266 C 
ATOM     10  O   UNL     1      -0.001   5.220   9.714  0.00  0.00    -0.268 OA
ATOM     11  C   UNL     1      -0.508   5.723   4.133  0.00  0.00    +0.051 C 
ATOM     12  C   UNL     1      -1.524   6.241   3.099  0.00  0.00    -0.022 C 
ATOM     13  C   UNL     1      -2.826   5.448   3.250  0.00  0.00    +0.033 C 
ATOM     14  C   UNL     1      -2.516   3.954   3.163  0.00  0.00    +0.123 C 
ATOM     15  C   UNL     1      -1.915   3.647   1.788  0.00  0.00    +0.029 C 
ATOM     16  C   UNL     1      -0.639   4.466   1.587  0.00  0.00    +0.007 C 
ATOM     17  C   UNL     1      -0.956   5.959   1.699  0.00  0.00    +0.008 C 
ATOM     18  C   UNL     1      -1.768   7.740   3.288  0.00  0.00    +0.012 C 
ATOM     19  H   UNL     1      -3.089   5.228   9.674  0.00  0.00    +0.157 HD
ENDROOT
BRANCH   9  20
ATOM     20  C   UNL     1      -1.350   4.872  11.578  0.00  0.00    +0.105 A 
ATOM     21  C   UNL     1      -2.564   4.643  12.190  0.00  0.00    +0.032 A 
ATOM     22  C   UNL     1      -2.309   4.456  13.552  0.00  0.00    +0.020 A 
ATOM     23  C   UNL     1      -0.973   4.573  13.744  0.00  0.00    +0.086 A 
ATOM     24  N   UNL     1      -0.379   4.819  12.551  0.00  0.00    -0.346 N 
ATOM     25  C   UNL     1       1.059   5.003  12.335  0.00  0.00    +0.149 C 
ENDBRANCH   9  20
BRANCH  15  26
ATOM     26  C   UNL     1      -1.582   2.156   1.700  0.00  0.00    +0.078 C 
ATOM     27  C   UNL     1      -0.562   1.796   2.781  0.00  0.00    +0.017 C 
BRANCH  26  28
ATOM     28  C   UNL     1      -1.004   1.850   0.342  0.00  0.00    +0.219 C 
ATOM     29  O   UNL     1       0.198   1.814   0.189  0.00  0.00    -0.275 OA
ATOM     30  N   UNL     1      -1.824   1.617  -0.702  0.00  0.00    -0.293 N 
ATOM     31  C   UNL     1      -3.273   1.759  -0.542  0.00  0.00    +0.133 C 
BRANCH  30  32
ATOM     32  C   UNL     1      -1.266   1.222  -1.998  0.00  0.00    +0.196 C 
BRANCH  32  33
ATOM     33  C   UNL     1      -1.168  -0.245  -2.063  0.00  0.00    -0.086 C 
ATOM     34  C   UNL     1      -1.091  -1.415  -2.115  0.00  0.00    +0.005 C 
ENDBRANCH  32  33
ENDBRANCH  30  32
ENDBRANCH  26  28
ENDBRANCH  15  26
BRANCH  14  35
ATOM     35  O   UNL     1      -3.721   3.205   3.335  0.00  0.00    -0.391 OA
ATOM     36  H   UNL     1      -3.588   2.248   3.366  0.00  0.00    +0.210 HD
ENDBRANCH  14  35
TORSDOF 6
