REMARK  Name = ZINC39608863
REMARK  7 active torsions:
REMARK  status: ('A' for Active; 'I' for Inactive)
REMARK    1  A    between atoms: C_1  and  C_2
REMARK    2  A    between atoms: C_6  and  C_8
REMARK    3  A    between atoms: C_12  and  C_21
REMARK    4  A    between atoms: N_23  and  C_24
REMARK    5  A    between atoms: C_29  and  O_31
REMARK    6  A    between atoms: O_31  and  C_32
REMARK    7  A    between atoms: C_32  and  C_33
REMARK                            x       y       z     vdW  Elec       q    Type
REMARK                         _______ _______ _______ _____ _____    ______ ____
ROOT
ATOM      1  C   UNL     1       0.150  -2.899   2.741  0.00  0.00    +0.247 C 
ATOM      2  O   UNL     1       0.283  -2.394   3.838  0.00  0.00    -0.270 OA
ATOM      3  N   UNL     1       0.030  -4.236   2.624  0.00  0.00    -0.296 N 
ATOM      4  C   UNL     1      -0.008  -5.039   1.379  0.00  0.00    +0.121 C 
ATOM      5  C   UNL     1       0.819  -6.303   1.705  0.00  0.00    +0.100 C 
ATOM      6  C   UNL     1       0.758  -6.428   3.236  0.00  0.00    -0.004 C 
ATOM      7  C   UNL     1      -0.085  -5.237   3.712  0.00  0.00    +0.115 C 
ATOM      8  C   UNL     1       0.091  -7.742   3.634  0.00  0.00    -0.010 C 
ATOM      9  C   UNL     1       0.095  -7.869   5.160  0.00  0.00    -0.082 C 
ATOM     10  N   UNL     1       1.477  -7.831   5.652  0.00  0.00    +0.379 N 
ATOM     11  C   UNL     1       2.082  -6.529   5.347  0.00  0.00    -0.082 C 
ATOM     12  C   UNL     1       2.162  -6.344   3.829  0.00  0.00    -0.010 C 
ATOM     13  H   UNL     1       1.481  -7.976   6.651  0.00  0.00    -0.086 HD
ATOM     14  H   UNL     1       2.012  -8.561   5.207  0.00  0.00    -0.086 HD
ENDROOT
BRANCH   1  20
ATOM     15  C   UNL     1      -1.103  -2.232  -2.043  0.00  0.00    +0.044 C 
ATOM     16  C   UNL     1      -0.482  -1.720  -0.769  0.00  0.00    -0.050 A 
ATOM     17  C   UNL     1       0.061  -0.448  -0.728  0.00  0.00    +0.003 A 
ATOM     18  C   UNL     1       0.632   0.029   0.439  0.00  0.00    +0.001 A 
ATOM     19  C   UNL     1       0.664  -0.762   1.569  0.00  0.00    +0.013 A 
ATOM     20  C   UNL     1       0.118  -2.046   1.534  0.00  0.00    +0.037 A 
ATOM     21  C   UNL     1      -0.462  -2.519   0.355  0.00  0.00    +0.016 A 
ENDBRANCH   1  20
BRANCH   5  22
ATOM     22  C   UNL     1       2.244  -6.131   1.246  0.00  0.00    +0.218 C 
ATOM     23  O   UNL     1       2.744  -5.027   1.224  0.00  0.00    -0.275 OA
ATOM     24  N   UNL     1       2.962  -7.204   0.860  0.00  0.00    -0.310 N 
ATOM     25  H   UNL     1       2.562  -8.088   0.877  0.00  0.00    +0.149 HD
BRANCH  24  26
ATOM     26  C   UNL     1       4.347  -7.037   0.414  0.00  0.00    +0.102 C 
ATOM     27  C   UNL     1       4.382  -6.723  -1.093  0.00  0.00    +0.025 C 
ATOM     28  C   UNL     1       5.182  -7.860  -1.761  0.00  0.00    +0.004 C 
ATOM     29  C   UNL     1       6.068  -8.422  -0.621  0.00  0.00    +0.033 C 
ATOM     30  C   UNL     1       5.128  -8.353   0.609  0.00  0.00    +0.139 C 
BRANCH  30  31
ATOM     31  O   UNL     1       5.888  -8.309   1.818  0.00  0.00    -0.370 OA
BRANCH  31  32
ATOM     32  C   UNL     1       6.078  -9.585   2.433  0.00  0.00    +0.195 C 
BRANCH  32  33
ATOM     33  C   UNL     1       6.888  -9.420   3.693  0.00  0.00    -0.022 A 
ATOM     34  C   UNL     1       8.268  -9.492   3.642  0.00  0.00    +0.006 A 
ATOM     35  C   UNL     1       9.011  -9.341   4.798  0.00  0.00    +0.000 A 
ATOM     36  C   UNL     1       8.374  -9.118   6.004  0.00  0.00    +0.000 A 
ATOM     37  C   UNL     1       6.995  -9.046   6.055  0.00  0.00    +0.000 A 
ATOM     38  C   UNL     1       6.252  -9.192   4.898  0.00  0.00    +0.006 A 
ENDBRANCH  32  33
ENDBRANCH  31  32
ENDBRANCH  30  31
ENDBRANCH  24  26
ENDBRANCH   5  22
TORSDOF 6
