REMARK  Name = ZINC36026962
REMARK  7 active torsions:
REMARK  status: ('A' for Active; 'I' for Inactive)
REMARK    1  A    between atoms: C_4  and  C_7
REMARK    2  A    between atoms: C_7  and  C_8
REMARK    3  A    between atoms: N_12  and  C_30
REMARK    4  A    between atoms: N_17  and  C_20
REMARK    5  A    between atoms: C_20  and  N_22
REMARK    6  A    between atoms: N_22  and  C_23
REMARK    7  A    between atoms: C_30  and  C_31
REMARK                            x       y       z     vdW  Elec       q    Type
REMARK                         _______ _______ _______ _____ _____    ______ ____
ROOT
ATOM      1  C   UNL     1       4.237  -0.695   1.531  0.00  0.00    +0.023 C 
ATOM      2  C   UNL     1       5.666  -1.192   1.557  0.00  0.00    +0.201 C 
ATOM      3  O   UNL     1       6.622  -0.626   1.070  0.00  0.00    -0.277 OA
ATOM      4  N   UNL     1       5.698  -2.370   2.214  0.00  0.00    -0.309 N 
ATOM      5  C   UNL     1       4.346  -2.719   2.658  0.00  0.00    +0.006 C 
ATOM      6  N   UNL     1       3.415  -1.883   1.868  0.00  0.00    +0.401 N 
ATOM      7  C   UNL     1       4.181  -2.408   4.144  0.00  0.00    +0.025 C 
ATOM      8  C   UNL     1       5.176  -3.248   4.952  0.00  0.00    +0.107 C 
ATOM      9  N   UNL     1       4.995  -4.663   4.599  0.00  0.00    -0.312 N 
ATOM     10  C   UNL     1       5.061  -5.053   3.184  0.00  0.00    +0.107 C 
ATOM     11  C   UNL     1       4.067  -4.197   2.390  0.00  0.00    +0.025 C 
ATOM     12  H   UNL     1       2.615  -1.617   2.422  0.00  0.00    -0.082 HD
ATOM     13  H   UNL     1       3.126  -2.365   1.030  0.00  0.00    -0.082 HD
ENDROOT
BRANCH   9  14
ATOM     14  C   UNL     1       4.774  -5.587   5.555  0.00  0.00    +0.137 C 
ATOM     15  S   UNL     1       4.570  -5.100   7.184  0.00  0.00    -0.018 S 
BRANCH  14  16
ATOM     16  N   UNL     1       4.714  -6.893   5.229  0.00  0.00    -0.295 N 
ATOM     17  H   UNL     1       3.853  -7.331   5.139  0.00  0.00    +0.154 HD
BRANCH  16  18
ATOM     18  C   UNL     1       5.894  -7.618   5.021  0.00  0.00    +0.068 A 
ATOM     19  C   UNL     1       7.122  -6.972   5.054  0.00  0.00    +0.026 A 
ATOM     20  C   UNL     1       8.284  -7.689   4.848  0.00  0.00    +0.002 A 
ATOM     21  C   UNL     1       8.227  -9.050   4.609  0.00  0.00    +0.003 A 
ATOM     22  C   UNL     1       7.006  -9.698   4.574  0.00  0.00    +0.040 A 
ATOM     23  C   UNL     1       5.838  -8.987   4.785  0.00  0.00    +0.144 A 
ATOM     24  F   UNL     1       4.645  -9.621   4.756  0.00  0.00    -0.204 F 
ENDBRANCH  16  18
ENDBRANCH  14  16
ENDBRANCH   9  14
BRANCH   1  25
ATOM     25  C   UNL     1       3.878  -0.177   0.137  0.00  0.00    +0.028 C 
BRANCH  25  29
ATOM     26  C   UNL     1      -0.116   1.339   0.163  0.00  0.00    +0.000 A 
ATOM     27  C   UNL     1       0.944   2.177   0.456  0.00  0.00    +0.000 A 
ATOM     28  C   UNL     1       2.236   1.687   0.448  0.00  0.00    +0.003 A 
ATOM     29  C   UNL     1       2.469   0.358   0.147  0.00  0.00    -0.048 A 
ATOM     30  C   UNL     1       1.410  -0.481  -0.145  0.00  0.00    +0.003 A 
ATOM     31  C   UNL     1       0.117   0.010  -0.138  0.00  0.00    +0.000 A 
ENDBRANCH  25  29
ENDBRANCH   1  25
BRANCH   4  32
ATOM     32  C   UNL     1       6.899  -3.175   2.448  0.00  0.00    +0.141 C 
BRANCH  32  33
ATOM     33  C   UNL     1       7.256  -3.923   1.189  0.00  0.00    -0.030 A 
ATOM     34  C   UNL     1       6.578  -5.081   0.858  0.00  0.00    +0.005 A 
ATOM     35  C   UNL     1       6.905  -5.767  -0.297  0.00  0.00    +0.000 A 
ATOM     36  C   UNL     1       7.910  -5.294  -1.121  0.00  0.00    +0.000 A 
ATOM     37  C   UNL     1       8.586  -4.135  -0.790  0.00  0.00    +0.000 A 
ATOM     38  C   UNL     1       8.257  -3.447   0.362  0.00  0.00    +0.005 A 
ENDBRANCH  32  33
ENDBRANCH   4  32
TORSDOF 7
