REMARK  Name = ZINC22411091
REMARK  5 active torsions:
REMARK  status: ('A' for Active; 'I' for Inactive)
REMARK    1  A    between atoms: C_3  and  S_19
REMARK    2  A    between atoms: C_5  and  S_7
REMARK    3  A    between atoms: S_7  and  N_10
REMARK    4  A    between atoms: N_10  and  C_11
REMARK    5  A    between atoms: S_19  and  N_22
REMARK                            x       y       z     vdW  Elec       q    Type
REMARK                         _______ _______ _______ _____ _____    ______ ____
ROOT
ATOM      1  C   UNL     1      -0.808   5.195  -3.292  0.00  0.00    +0.004 A 
ATOM      2  C   UNL     1      -0.645   4.598  -2.055  0.00  0.00    +0.028 A 
ATOM      3  C   UNL     1      -1.122   3.319  -1.837  0.00  0.00    +0.107 A 
ATOM      4  C   UNL     1      -1.771   2.641  -2.852  0.00  0.00    +0.057 A 
ATOM      5  C   UNL     1      -1.938   3.239  -4.087  0.00  0.00    +0.112 A 
ATOM      6  C   UNL     1      -1.456   4.516  -4.307  0.00  0.00    +0.029 A 
ENDROOT
BRANCH   5   7
ATOM      7  S   UNL     1      -2.765   2.375  -5.380  0.00  0.00    +0.092 S 
ATOM      8  O   UNL     1      -2.408   3.021  -6.594  0.00  0.00    -0.148 OA
ATOM      9  O   UNL     1      -2.533   0.991  -5.157  0.00  0.00    -0.148 OA
BRANCH   7  10
ATOM     10  N   UNL     1      -4.390   2.621  -5.172  0.00  0.00    -0.098 NA
BRANCH  10  11
ATOM     11  C   UNL     1      -4.919   3.909  -5.272  0.00  0.00    +0.080 A 
ATOM     12  C   UNL     1      -5.319   4.587  -4.128  0.00  0.00    +0.065 A 
ATOM     13  C   UNL     1      -5.838   5.866  -4.229  0.00  0.00    +0.128 A 
ATOM     14  C   UNL     1      -5.968   6.466  -5.470  0.00  0.00    +0.076 A 
ATOM     15  C   UNL     1      -5.575   5.789  -6.613  0.00  0.00    +0.128 A 
ATOM     16  C   UNL     1      -5.051   4.513  -6.516  0.00  0.00    +0.065 A 
ATOM     17  F   UNL     1      -5.704   6.377  -7.822  0.00  0.00    -0.205 F 
ATOM     18  F   UNL     1      -6.222   6.528  -3.115  0.00  0.00    -0.205 F 
ENDBRANCH  10  11
ENDBRANCH   7  10
ENDBRANCH   5   7
BRANCH   3  19
ATOM     19  S   UNL     1      -0.909   2.557  -0.263  0.00  0.00    +0.056 S 
ATOM     20  O   UNL     1      -1.929   1.574  -0.146  0.00  0.00    -0.153 OA
ATOM     21  O   UNL     1      -0.753   3.608   0.680  0.00  0.00    -0.153 OA
BRANCH  19  22
ATOM     22  N   UNL     1       0.531   1.741  -0.305  0.00  0.00    -0.204 NA
ATOM     23  H   UNL     1       0.702   1.248   0.664  0.00  0.00    +0.144 HD
ATOM     24  H   UNL     1       1.348   2.450  -0.505  0.00  0.00    +0.144 HD
ENDBRANCH  19  22
ENDBRANCH   3  19
TORSDOF 5
