REMARK  Name = ZINC40112207
REMARK  9 active torsions:
REMARK  status: ('A' for Active; 'I' for Inactive)
REMARK    1  A    between atoms: C_4  and  C_7
REMARK    2  A    between atoms: C_8  and  C_9
REMARK    3  A    between atoms: C_11  and  C_20
REMARK    4  A    between atoms: N_15  and  C_16
REMARK    5  A    between atoms: C_16  and  C_17
REMARK    6  A    between atoms: C_17  and  O_18
REMARK    7  A    between atoms: C_20  and  C_22
REMARK    8  A    between atoms: C_25  and  S_28
REMARK    9  A    between atoms: S_28  and  N_31
REMARK                            x       y       z     vdW  Elec       q    Type
REMARK                         _______ _______ _______ _____ _____    ______ ____
ROOT
ATOM      1  C   UNL     1       4.090  -3.635  -0.130  0.00  0.00    +0.138 C 
ATOM      2  C   UNL     1       5.226  -3.778   0.856  0.00  0.00    +0.076 C 
ATOM      3  C   UNL     1       6.301  -4.206   0.153  0.00  0.00    +0.249 C 
ATOM      4  C   UNL     1       5.924  -4.354  -1.269  0.00  0.00    +0.288 C 
ATOM      5  O   UNL     1       6.670  -4.723  -2.154  0.00  0.00    -0.266 OA
ATOM      6  N   UNL     1       4.630  -4.020  -1.438  0.00  0.00    -0.282 N 
ATOM      7  O   UNL     1       7.526  -4.457   0.669  0.00  0.00    -0.282 OA
ENDROOT
BRANCH   1   9
ATOM      8  C   UNL     1       1.751  -4.050   0.489  0.00  0.00    +0.006 C 
ATOM      9  C   UNL     1       2.955  -4.550   0.252  0.00  0.00    +0.001 C 
BRANCH   8  13
ATOM     10  C   UNL     1      -1.524  -6.652   1.229  0.00  0.00    +0.000 A 
ATOM     11  C   UNL     1      -1.717  -5.282   1.236  0.00  0.00    +0.001 A 
ATOM     12  C   UNL     1      -0.658  -4.431   0.997  0.00  0.00    +0.008 A 
ATOM     13  C   UNL     1       0.611  -4.955   0.747  0.00  0.00    -0.025 A 
ATOM     14  C   UNL     1       0.800  -6.338   0.741  0.00  0.00    +0.008 A 
ATOM     15  C   UNL     1      -0.268  -7.178   0.982  0.00  0.00    +0.001 A 
ENDBRANCH   8  13
ENDBRANCH   1   9
BRANCH   2  16
ATOM     16  C   UNL     1       5.175  -3.506   2.295  0.00  0.00    +0.195 C 
ATOM     17  O   UNL     1       5.303  -4.417   3.091  0.00  0.00    -0.287 OA
BRANCH  16  18
ATOM     18  C   UNL     1       4.968  -2.124   2.779  0.00  0.00    +0.022 A 
ATOM     19  C   UNL     1       4.840  -1.073   1.868  0.00  0.00    +0.013 A 
ATOM     20  C   UNL     1       4.646   0.213   2.326  0.00  0.00    +0.029 A 
ATOM     21  C   UNL     1       4.579   0.464   3.686  0.00  0.00    +0.106 A 
ATOM     22  C   UNL     1       4.706  -0.573   4.594  0.00  0.00    +0.029 A 
ATOM     23  C   UNL     1       4.894  -1.865   4.149  0.00  0.00    +0.013 A 
BRANCH  21  24
ATOM     24  S   UNL     1       4.333   2.110   4.263  0.00  0.00    +0.061 S 
ATOM     25  O   UNL     1       4.852   2.160   5.584  0.00  0.00    -0.153 OA
ATOM     26  O   UNL     1       4.791   2.975   3.232  0.00  0.00    -0.153 OA
BRANCH  24  27
ATOM     27  N   UNL     1       2.699   2.346   4.387  0.00  0.00    -0.177 NA
ATOM     28  C   UNL     1       1.982   2.854   3.239  0.00  0.00    +0.109 C 
ATOM     29  C   UNL     1       1.973   4.403   3.276  0.00  0.00    +0.017 C 
ATOM     30  C   UNL     1       1.089   4.882   4.349  0.00  0.00    +0.001 C 
ATOM     31  C   UNL     1       1.525   4.473   5.753  0.00  0.00    +0.001 C 
ATOM     32  C   UNL     1       0.995   3.095   6.060  0.00  0.00    +0.017 C 
ATOM     33  C   UNL     1       2.033   2.023   5.664  0.00  0.00    +0.109 C 
ENDBRANCH  24  27
ENDBRANCH  21  24
ENDBRANCH  16  18
ENDBRANCH   2  16
BRANCH   6  34
ATOM     34  C   UNL     1       3.892  -4.039  -2.704  0.00  0.00    +0.137 C 
BRANCH  34  35
ATOM     35  C   UNL     1       4.020  -2.677  -3.389  0.00  0.00    +0.175 C 
BRANCH  35  36
ATOM     36  O   UNL     1       5.384  -2.451  -3.750  0.00  0.00    -0.393 OA
ATOM     37  H   UNL     1       5.539  -1.604  -4.189  0.00  0.00    +0.209 HD
ENDBRANCH  35  36
ENDBRANCH  34  35
ENDBRANCH   6  34
TORSDOF 9
