REMARK  Name = ZINC66123496
REMARK  8 active torsions:
REMARK  status: ('A' for Active; 'I' for Inactive)
REMARK    1  A    between atoms: C_1  and  C_2
REMARK    2  A    between atoms: C_2  and  C_3
REMARK    3  A    between atoms: C_2  and  C_4
REMARK    4  A    between atoms: C_9  and  N_10
REMARK    5  A    between atoms: N_10  and  C_11
REMARK    6  A    between atoms: C_11  and  N_13
REMARK    7  A    between atoms: N_13  and  N_14
REMARK    8  A    between atoms: C_15  and  C_17
REMARK                            x       y       z     vdW  Elec       q    Type
REMARK                         _______ _______ _______ _____ _____    ______ ____
ROOT
ATOM      1  N   UNL     1      -0.591  -2.344  -4.239  0.00  0.00    -0.246 N 
ATOM      2  H   UNL     1      -0.917  -2.778  -5.042  0.00  0.00    +0.172 HD
ENDROOT
BRANCH   1   3
ATOM      3  N   UNL     1       0.769  -2.030  -4.115  0.00  0.00    -0.232 N 
ATOM      4  C   UNL     1       1.623  -2.332  -5.113  0.00  0.00    +0.271 C 
ATOM      5  O   UNL     1       1.215  -2.874  -6.118  0.00  0.00    -0.270 OA
ATOM      6  H   UNL     1       1.096  -1.596  -3.312  0.00  0.00    +0.173 HD
BRANCH   4   7
ATOM      7  C   UNL     1       3.086  -1.994  -4.981  0.00  0.00    +0.270 C 
ATOM      8  C   UNL     1       3.259  -0.467  -4.929  0.00  0.00    +0.128 C 
ATOM      9  S   UNL     1       5.017  -0.142  -4.585  0.00  0.00    -0.117 S 
ATOM     10  C   UNL     1       5.836  -1.293  -5.644  0.00  0.00    +0.050 A 
ATOM     11  C   UNL     1       7.199  -1.154  -5.868  0.00  0.00    +0.018 A 
ATOM     12  C   UNL     1       7.864  -2.047  -6.685  0.00  0.00    +0.001 A 
ATOM     13  C   UNL     1       7.168  -3.083  -7.279  0.00  0.00    +0.004 A 
ATOM     14  C   UNL     1       5.812  -3.225  -7.063  0.00  0.00    +0.047 A 
ATOM     15  C   UNL     1       5.128  -2.327  -6.246  0.00  0.00    +0.135 A 
ATOM     16  O   UNL     1       3.795  -2.505  -6.100  0.00  0.00    -0.478 OA
ENDBRANCH   4   7
ENDBRANCH   1   3
BRANCH   1  17
ATOM     17  C   UNL     1      -1.445  -2.043  -3.240  0.00  0.00    +0.151 C 
ATOM     18  S   UNL     1      -3.106  -2.426  -3.391  0.00  0.00    -0.017 S 
BRANCH  17  19
ATOM     19  N   UNL     1      -0.991  -1.440  -2.124  0.00  0.00    -0.296 N 
ATOM     20  H   UNL     1      -0.062  -1.166  -2.064  0.00  0.00    +0.154 HD
BRANCH  19  26
ATOM     21  C   UNL     1      -1.474  -1.546   0.240  0.00  0.00    -0.024 A 
ATOM     22  C   UNL     1      -2.331  -1.312   1.298  0.00  0.00    +0.006 A 
ATOM     23  C   UNL     1      -3.573  -0.749   1.071  0.00  0.00    +0.000 A 
ATOM     24  C   UNL     1      -3.962  -0.418  -0.214  0.00  0.00    +0.002 A 
ATOM     25  C   UNL     1      -3.110  -0.650  -1.276  0.00  0.00    +0.023 A 
ATOM     26  C   UNL     1      -1.859  -1.209  -1.051  0.00  0.00    +0.036 A 
BRANCH  21  28
ATOM     27  C   UNL     1       0.698  -1.242   1.399  0.00  0.00    +0.012 C 
ATOM     28  C   UNL     1      -0.120  -2.160   0.488  0.00  0.00    +0.015 C 
ATOM     29  C   UNL     1      -0.294  -3.523   1.160  0.00  0.00    +0.012 C 
ENDBRANCH  21  28
ENDBRANCH  19  26
ENDBRANCH  17  19
ENDBRANCH   1  17
TORSDOF 6
