REMARK  Name = ZINC22516137
REMARK  7 active torsions:
REMARK  status: ('A' for Active; 'I' for Inactive)
REMARK    1  A    between atoms: C_4  and  C_7
REMARK    2  A    between atoms: C_7  and  N_8
REMARK    3  A    between atoms: C_9  and  C_11
REMARK    4  A    between atoms: N_14  and  C_17
REMARK    5  A    between atoms: C_17  and  C_18
REMARK    6  A    between atoms: C_21  and  C_23
REMARK    7  A    between atoms: C_26  and  C_29
REMARK                            x       y       z     vdW  Elec       q    Type
REMARK                         _______ _______ _______ _____ _____    ______ ____
ROOT
ATOM      1  C   UNL     1       5.701  -1.820  -3.114  0.00  0.00    +0.071 C 
ATOM      2  C   UNL     1       4.643  -2.665  -3.829  0.00  0.00    -0.006 C 
ATOM      3  C   UNL     1       5.107  -2.953  -5.258  0.00  0.00    -0.078 C 
ATOM      4  N   UNL     1       6.388  -3.670  -5.223  0.00  0.00    +0.383 N 
ATOM      5  C   UNL     1       7.432  -2.859  -4.583  0.00  0.00    -0.078 C 
ATOM      6  C   UNL     1       7.037  -2.568  -3.134  0.00  0.00    -0.006 C 
ATOM      7  H   UNL     1       6.249  -4.576  -4.615  0.00  0.00    -0.081 HD
ENDROOT
BRANCH   1   9
ATOM      8  N   UNL     1       4.123  -0.938  -1.426  0.00  0.00    -0.311 N 
ATOM      9  C   UNL     1       5.277  -1.583  -1.688  0.00  0.00    +0.216 C 
ATOM     10  O   UNL     1       5.974  -1.973  -0.775  0.00  0.00    -0.276 OA
ATOM     11  H   UNL     1       3.491  -0.584  -2.254  0.00  0.00    +0.149 HD
BRANCH   8  12
ATOM     12  C   UNL     1       3.711  -0.707  -0.039  0.00  0.00    +0.139 C 
BRANCH  12  16
ATOM     13  C   UNL     1      -0.017   1.378   0.010  0.00  0.00    +0.000 A 
ATOM     14  C   UNL     1       1.171   2.086   0.002  0.00  0.00    +0.000 A 
ATOM     15  C   UNL     1       2.377   1.411  -0.014  0.00  0.00    +0.005 A 
ATOM     16  C   UNL     1       2.396   0.029  -0.022  0.00  0.00    -0.030 A 
ATOM     17  C   UNL     1       1.208  -0.679  -0.014  0.00  0.00    +0.005 A 
ATOM     18  C   UNL     1       0.002  -0.004   0.002  0.00  0.00    +0.000 A 
ENDBRANCH  12  16
ENDBRANCH   8  12
ENDBRANCH   1   9
BRANCH   4  19
ATOM     19  C   UNL     1       6.797  -4.085  -6.571  0.00  0.00    -0.022 C 
BRANCH  19  20
ATOM     20  C   UNL     1       5.823  -5.107  -7.098  0.00  0.00    +0.033 A 
ATOM     21  C   UNL     1       4.785  -4.717  -7.886  0.00  0.00    +0.068 A 
ATOM     22  S   UNL     1       3.998  -6.292  -8.198  0.00  0.00    -0.075 S 
ATOM     23  C   UNL     1       5.133  -7.295  -7.249  0.00  0.00    +0.108 A 
ATOM     24  N   UNL     1       5.978  -6.377  -6.803  0.00  0.00    -0.246 NA
BRANCH  23  25
ATOM     25  C   UNL     1       5.132  -8.757  -7.026  0.00  0.00    +0.007 A 
ATOM     26  C   UNL     1       6.127  -9.347  -6.245  0.00  0.00    +0.011 A 
ATOM     27  C   UNL     1       6.118 -10.711  -6.038  0.00  0.00    +0.013 A 
ATOM     28  C   UNL     1       5.132 -11.495  -6.610  0.00  0.00    +0.055 A 
ATOM     29  C   UNL     1       4.146 -10.916  -7.390  0.00  0.00    +0.013 A 
ATOM     30  C   UNL     1       4.141  -9.553  -7.601  0.00  0.00    +0.011 A 
BRANCH  28  31
ATOM     31  C   UNL     1       5.132 -12.985  -6.383  0.00  0.00    +0.417 C 
ATOM     32  F   UNL     1       5.883 -13.609  -7.385  0.00  0.00    -0.166 F 
ATOM     33  F   UNL     1       5.694 -13.266  -5.134  0.00  0.00    -0.166 F 
ATOM     34  F   UNL     1       3.817 -13.462  -6.421  0.00  0.00    -0.166 F 
ENDBRANCH  28  31
ENDBRANCH  23  25
ENDBRANCH  19  20
ENDBRANCH   4  19
TORSDOF 7
