REMARK  Name = ZINC49541798
REMARK  2 active torsions:
REMARK  status: ('A' for Active; 'I' for Inactive)
REMARK    1  A    between atoms: C_2  and  S_7
REMARK    2  A    between atoms: S_7  and  N_10
REMARK                            x       y       z     vdW  Elec       q    Type
REMARK                         _______ _______ _______ _____ _____    ______ ____
ROOT
ATOM      1  S   UNL     1       2.754   1.369  -0.016  0.00  0.00    +0.106 S 
ATOM      2  O   UNL     1       3.415   2.101   1.007  0.00  0.00    -0.146 OA
ATOM      3  O   UNL     1       2.742  -0.051  -0.051  0.00  0.00    -0.146 OA
ENDROOT
BRANCH   1   4
ATOM      4  N   UNL     1       3.405   1.872  -1.453  0.00  0.00    -0.103 NA
ATOM      5  C   UNL     1       4.660   1.616  -1.730  0.00  0.00    +0.192 A 
ATOM      6  N   UNL     1       5.596   0.949  -0.983  0.00  0.00    -0.336 N 
ATOM      7  C   UNL     1       6.885   0.790  -1.475  0.00  0.00    +0.028 A 
ATOM      8  C   UNL     1       7.151   1.307  -2.675  0.00  0.00    +0.012 A 
ATOM      9  S   UNL     1       5.608   2.034  -3.183  0.00  0.00    -0.053 S 
ATOM     10  C   UNL     1       8.574   1.079  -3.100  0.00  0.00    +0.044 C 
ATOM     11  C   UNL     1       9.310   0.700  -1.796  0.00  0.00    +0.011 C 
ATOM     12  C   UNL     1       8.159   0.120  -0.950  0.00  0.00    +0.054 C 
ATOM     13  H   UNL     1       5.360   0.590  -0.113  0.00  0.00    +0.168 HD
ENDBRANCH   1   4
BRANCH   1  15
ATOM     14  C   UNL     1      -0.013   1.076   0.008  0.00  0.00    +0.136 A 
ATOM     15  C   UNL     1       1.070   1.887   0.002  0.00  0.00    +0.171 A 
ATOM     16  C   UNL     1       0.613   3.215   0.013  0.00  0.00    +0.165 A 
ATOM     17  N   UNL     1      -0.699   3.193   0.026  0.00  0.00    -0.157 NA
ATOM     18  N   UNL     1      -1.114   1.855   0.017  0.00  0.00    -0.281 N 
ATOM     19  N   UNL     1       1.417   4.361   0.013  0.00  0.00    -0.340 N 
ATOM     20  H   UNL     1       2.383   4.276   0.004  0.00  0.00    +0.144 HD
ATOM     21  H   UNL     1       1.007   5.240   0.021  0.00  0.00    +0.144 HD
ATOM     22  H   UNL     1      -2.033   1.544   0.018  0.00  0.00    +0.188 HD
ENDBRANCH   1  15
TORSDOF 2
