REMARK  Name = ZINC42174294
REMARK  4 active torsions:
REMARK  status: ('A' for Active; 'I' for Inactive)
REMARK    1  A    between atoms: C_1  and  N_2
REMARK    2  A    between atoms: N_2  and  C_3
REMARK    3  A    between atoms: C_8  and  N_9
REMARK    4  A    between atoms: C_10  and  C_12
REMARK                            x       y       z     vdW  Elec       q    Type
REMARK                         _______ _______ _______ _____ _____    ______ ____
ROOT
ATOM      1  C   UNL     1      -0.484   1.415  -0.008  0.00  0.00    +0.138 C 
ATOM      2  N   UNL     1      -0.222  -0.026  -0.007  0.00  0.00    -0.272 N 
ATOM      3  C   UNL     1       0.000  -0.672  -1.169  0.00  0.00    +0.223 C 
ATOM      4  O   UNL     1       0.218  -1.865  -1.168  0.00  0.00    -0.275 OA
ENDROOT
BRANCH   3   5
ATOM      5  C   UNL     1      -0.023   0.089  -2.470  0.00  0.00    +0.079 C 
ATOM      6  C   UNL     1       0.710  -0.709  -3.573  0.00  0.00    +0.016 C 
ATOM      7  C   UNL     1      -0.379  -0.974  -4.657  0.00  0.00    -0.010 C 
ATOM      8  C   UNL     1      -1.331  -2.023  -4.005  0.00  0.00    +0.004 C 
ATOM      9  C   UNL     1      -2.069  -1.243  -2.893  0.00  0.00    +0.004 C 
ATOM     10  C   UNL     1      -1.486   0.233  -2.989  0.00  0.00    +0.001 C 
ATOM     11  C   UNL     1      -1.233   0.338  -4.537  0.00  0.00    +0.008 C 
ENDBRANCH   3   5
BRANCH   2  12
ATOM     12  C   UNL     1      -0.201  -0.731   1.200  0.00  0.00    +0.060 A 
ATOM     13  C   UNL     1      -1.359  -1.310   1.709  0.00  0.00    +0.045 A 
ATOM     14  C   UNL     1      -1.298  -1.999   2.904  0.00  0.00    +0.112 A 
ATOM     15  N   UNL     1      -0.161  -2.114   3.564  0.00  0.00    -0.261 NA
ATOM     16  C   UNL     1       0.961  -1.581   3.119  0.00  0.00    +0.135 A 
ATOM     17  C   UNL     1       0.987  -0.879   1.925  0.00  0.00    +0.065 A 
BRANCH  17  18
ATOM     18  N   UNL     1       2.181  -0.321   1.454  0.00  0.00    -0.355 N 
ATOM     19  H   UNL     1       2.190   0.172   0.619  0.00  0.00    +0.142 HD
ATOM     20  H   UNL     1       3.000  -0.428   1.963  0.00  0.00    +0.142 HD
ENDBRANCH  17  18
ENDBRANCH   2  12
TORSDOF 3
