REMARK  Name = ZINC01877748
REMARK  8 active torsions:
REMARK  status: ('A' for Active; 'I' for Inactive)
REMARK    1  A    between atoms: C_1  and  C_2
REMARK    2  A    between atoms: C_5  and  S_8
REMARK    3  A    between atoms: S_8  and  C_11
REMARK    4  A    between atoms: C_11  and  N_12
REMARK    5  A    between atoms: C_13  and  C_14
REMARK    6  A    between atoms: N_23  and  N_24
REMARK    7  A    between atoms: N_24  and  C_25
REMARK    8  A    between atoms: N_24  and  C_31
REMARK                            x       y       z     vdW  Elec       q    Type
REMARK                         _______ _______ _______ _____ _____    ______ ____
ROOT
ATOM      1  N   UNL     1       2.381  -4.647   1.410  0.00  0.00    -0.243 NA
ATOM      2  C   UNL     1       2.798  -5.565   2.246  0.00  0.00    +0.137 C 
ATOM      3  N   UNL     1       2.392  -6.843   2.103  0.00  0.00    -0.321 N 
ATOM      4  C   UNL     1       2.197  -7.598   3.169  0.00  0.00    +0.161 C 
ATOM      5  S   UNL     1       2.253  -6.882   4.778  0.00  0.00    -0.014 SA
ATOM      6  N   UNL     1       1.953  -8.937   3.024  0.00  0.00    -0.239 N 
ATOM      7  H   UNL     1       1.923  -9.331   2.139  0.00  0.00    +0.173 HD
ATOM      8  H   UNL     1       2.242  -7.208   1.216  0.00  0.00    +0.169 HD
ENDROOT
BRANCH   2   9
ATOM      9  C   UNL     1       3.718  -5.199   3.351  0.00  0.00    +0.017 A 
ATOM     10  C   UNL     1       4.572  -6.157   3.897  0.00  0.00    +0.011 A 
ATOM     11  C   UNL     1       5.425  -5.811   4.924  0.00  0.00    +0.001 A 
ATOM     12  C   UNL     1       5.435  -4.516   5.413  0.00  0.00    +0.000 A 
ATOM     13  C   UNL     1       4.590  -3.562   4.875  0.00  0.00    +0.001 A 
ATOM     14  C   UNL     1       3.736  -3.896   3.843  0.00  0.00    +0.011 A 
ENDBRANCH   2   9
BRANCH   1  15
ATOM     15  C   UNL     1       1.374  -4.980   0.400  0.00  0.00    +0.314 C 
BRANCH  15  16
ATOM     16  S   UNL     1      -0.139  -4.030   0.718  0.00  0.00    +0.017 S 
ATOM     17  O   UNL     1      -0.487  -4.111   2.093  0.00  0.00    -0.168 OA
ATOM     18  O   UNL     1      -1.104  -4.295  -0.291  0.00  0.00    -0.168 OA
BRANCH  16  23
ATOM     19  C   UNL     1       1.437   1.731  -0.135  0.00  0.00    +0.044 C 
ATOM     20  C   UNL     1       1.044   0.292   0.078  0.00  0.00    -0.050 A 
ATOM     21  C   UNL     1       0.565  -0.457  -0.980  0.00  0.00    +0.005 A 
ATOM     22  C   UNL     1       0.204  -1.777  -0.785  0.00  0.00    +0.027 A 
ATOM     23  C   UNL     1       0.323  -2.348   0.469  0.00  0.00    +0.090 A 
ATOM     24  C   UNL     1       0.802  -1.599   1.527  0.00  0.00    +0.027 A 
ATOM     25  C   UNL     1       1.167  -0.280   1.331  0.00  0.00    +0.005 A 
ENDBRANCH  16  23
ENDBRANCH  15  16
ENDBRANCH   1  15
BRANCH   6  26
ATOM     26  N   UNL     1       1.747  -9.737   4.155  0.00  0.00    -0.220 N 
BRANCH  26  27
ATOM     27  C   UNL     1       0.535  -9.671   4.847  0.00  0.00    +0.053 A 
ATOM     28  C   UNL     1       0.522  -9.719   6.235  0.00  0.00    +0.025 A 
ATOM     29  C   UNL     1      -0.678  -9.653   6.916  0.00  0.00    +0.002 A 
ATOM     30  C   UNL     1      -1.865  -9.539   6.217  0.00  0.00    +0.000 A 
ATOM     31  C   UNL     1      -1.856  -9.491   4.835  0.00  0.00    +0.002 A 
ATOM     32  C   UNL     1      -0.660  -9.550   4.148  0.00  0.00    +0.025 A 
ENDBRANCH  26  27
BRANCH  26  33
ATOM     33  C   UNL     1       2.754 -10.603   4.591  0.00  0.00    +0.053 A 
ATOM     34  C   UNL     1       2.427 -11.866   5.070  0.00  0.00    +0.025 A 
ATOM     35  C   UNL     1       3.425 -12.718   5.500  0.00  0.00    +0.002 A 
ATOM     36  C   UNL     1       4.747 -12.316   5.455  0.00  0.00    +0.000 A 
ATOM     37  C   UNL     1       5.076 -11.059   4.980  0.00  0.00    +0.002 A 
ATOM     38  C   UNL     1       4.084 -10.204   4.543  0.00  0.00    +0.025 A 
ENDBRANCH  26  33
ENDBRANCH   6  26
TORSDOF 7
