REMARK  Name = ZINC15030670
REMARK  6 active torsions:
REMARK  status: ('A' for Active; 'I' for Inactive)
REMARK    1  A    between atoms: C_1  and  C_2
REMARK    2  A    between atoms: C_2  and  C_4
REMARK    3  A    between atoms: C_2  and  N_19
REMARK    4  A    between atoms: N_6  and  C_7
REMARK    5  A    between atoms: C_8  and  C_17
REMARK    6  A    between atoms: C_29  and  C_32
REMARK                            x       y       z     vdW  Elec       q    Type
REMARK                         _______ _______ _______ _____ _____    ______ ____
ROOT
ATOM      1  C   UNL     1      -5.112   2.729   9.136  0.00  0.00    -0.004 C 
ATOM      2  C   UNL     1      -3.631   2.379   8.977  0.00  0.00    +0.016 C 
ENDROOT
BRANCH   2   3
ATOM      3  N   UNL     1      -3.151   2.858   7.674  0.00  0.00    +0.388 N 
ATOM      4  C   UNL     1      -2.998   4.330   7.674  0.00  0.00    -0.076 C 
ATOM      5  C   UNL     1      -2.791   4.899   6.261  0.00  0.00    +0.000 C 
ATOM      6  C   UNL     1      -1.858   4.046   5.437  0.00  0.00    +0.104 C 
ATOM      7  N   UNL     1      -2.667   3.072   4.672  0.00  0.00    -0.317 N 
ATOM      8  C   UNL     1      -3.076   1.960   5.417  0.00  0.00    +0.088 C 
ATOM      9  C   UNL     1      -3.980   2.356   6.601  0.00  0.00    -0.059 C 
ATOM     10  C   UNL     1      -2.008   2.680   3.512  0.00  0.00    +0.121 A 
ATOM     11  C   UNL     1      -1.522   3.646   2.635  0.00  0.00    +0.044 A 
ATOM     12  C   UNL     1      -0.864   3.242   1.488  0.00  0.00    +0.017 A 
ATOM     13  C   UNL     1      -0.722   1.881   1.250  0.00  0.00    +0.073 A 
ATOM     14  C   UNL     1      -1.229   0.978   2.163  0.00  0.00    +0.125 A 
ATOM     15  N   UNL     1      -1.848   1.392   3.252  0.00  0.00    -0.240 NA
ATOM     16  H   UNL     1      -2.156   2.433   7.476  0.00  0.00    -0.081 HD
BRANCH  13  17
ATOM     17  C   UNL     1      -0.017   1.395   0.010  0.00  0.00    +0.419 C 
ATOM     18  F   UNL     1       0.002  -0.004   0.002  0.00  0.00    -0.166 F 
ATOM     19  F   UNL     1       1.296   1.879  -0.000  0.00  0.00    -0.166 F 
ATOM     20  F   UNL     1      -0.694   1.858  -1.124  0.00  0.00    -0.166 F 
ENDBRANCH  13  17
ENDBRANCH   2   3
BRANCH   2  21
ATOM     21  C   UNL     1      -3.457   0.884   9.059  0.00  0.00    +0.204 C 
ATOM     22  O   UNL     1      -2.980   0.277   8.123  0.00  0.00    -0.277 OA
ATOM     23  N   UNL     1      -3.830   0.221  10.171  0.00  0.00    -0.280 N 
ATOM     24  H   UNL     1      -4.263   0.771  11.020  0.00  0.00    +0.155 HD
BRANCH  23  25
ATOM     25  C   UNL     1      -3.670  -1.155  10.246  0.00  0.00    +0.090 A 
ATOM     26  C   UNL     1      -3.990  -2.004  11.292  0.00  0.00    +0.084 A 
ATOM     27  C   UNL     1      -3.723  -3.425  11.120  0.00  0.00    -0.018 A 
ATOM     28  C   UNL     1      -3.171  -3.760   9.934  0.00  0.00    -0.004 A 
ATOM     29  S   UNL     1      -3.027  -2.231   9.050  0.00  0.00    -0.077 S 
ATOM     30  C   UNL     1      -2.768  -5.123   9.463  0.00  0.00    +0.043 C 
ATOM     31  C   UNL     1      -3.921  -6.104   9.710  0.00  0.00    +0.005 C 
ATOM     32  C   UNL     1      -3.761  -6.698  11.106  0.00  0.00    +0.001 C 
ATOM     33  C   UNL     1      -3.140  -5.668  12.047  0.00  0.00    +0.005 C 
ATOM     34  C   UNL     1      -4.055  -4.456  12.191  0.00  0.00    +0.037 C 
BRANCH  26  35
ATOM     35  C   UNL     1      -4.566  -1.501  12.503  0.00  0.00    +0.102 C 
ATOM     36  N   UNL     1      -5.022  -1.102  13.464  0.00  0.00    -0.191 NA
ENDBRANCH  26  35
ENDBRANCH  23  25
ENDBRANCH   2  21
TORSDOF 5
