REMARK  Name = ZINC22925285
REMARK  6 active torsions:
REMARK  status: ('A' for Active; 'I' for Inactive)
REMARK    1  A    between atoms: C_4  and  C_7
REMARK    2  A    between atoms: C_18  and  C_20
REMARK    3  A    between atoms: C_20  and  N_21
REMARK    4  A    between atoms: N_24  and  C_27
REMARK    5  A    between atoms: C_27  and  C_28
REMARK    6  A    between atoms: N_30  and  C_31
REMARK                            x       y       z     vdW  Elec       q    Type
REMARK                         _______ _______ _______ _____ _____    ______ ____
ROOT
ATOM      1  C   UNL     1      -1.164  -1.043   0.488  0.00  0.00    +0.181 C 
ENDROOT
BRANCH   1  12
ATOM      2  C   UNL     1      -1.168   1.782   0.013  0.00  0.00    +0.149 C 
ATOM      3  C   UNL     1      -1.210   2.738  -1.188  0.00  0.00    +0.256 C 
ATOM      4  O   UNL     1      -2.348   3.594  -1.057  0.00  0.00    -0.488 OA
ATOM      5  C   UNL     1      -3.548   3.015  -0.791  0.00  0.00    +0.142 A 
ATOM      6  C   UNL     1      -4.719   3.706  -1.065  0.00  0.00    +0.047 A 
ATOM      7  C   UNL     1      -5.944   3.127  -0.793  0.00  0.00    +0.004 A 
ATOM      8  C   UNL     1      -6.010   1.858  -0.247  0.00  0.00    +0.002 A 
ATOM      9  C   UNL     1      -4.848   1.161   0.028  0.00  0.00    +0.027 A 
ATOM     10  C   UNL     1      -3.617   1.739  -0.239  0.00  0.00    +0.079 A 
ATOM     11  N   UNL     1      -2.434   1.029   0.026  0.00  0.00    -0.256 N 
ATOM     12  C   UNL     1      -2.456  -0.293   0.290  0.00  0.00    +0.235 C 
ATOM     13  O   UNL     1      -3.515  -0.878   0.366  0.00  0.00    -0.274 OA
BRANCH   2  17
ATOM     14  C   UNL     1      -0.768   4.018   3.631  0.00  0.00    +0.000 A 
ATOM     15  C   UNL     1       0.340   3.416   3.064  0.00  0.00    +0.000 A 
ATOM     16  C   UNL     1       0.211   2.693   1.893  0.00  0.00    +0.005 A 
ATOM     17  C   UNL     1      -1.027   2.571   1.289  0.00  0.00    -0.023 A 
ATOM     18  C   UNL     1      -2.134   3.177   1.853  0.00  0.00    +0.005 A 
ATOM     19  C   UNL     1      -2.005   3.896   3.027  0.00  0.00    +0.000 A 
ENDBRANCH   2  17
ENDBRANCH   1  12
BRANCH   1  20
ATOM     20  N   UNL     1      -1.450  -2.474   0.658  0.00  0.00    -0.298 NA
ATOM     21  C   UNL     1      -2.189  -2.719   1.905  0.00  0.00    +0.066 C 
ATOM     22  C   UNL     1      -2.536  -4.207   2.005  0.00  0.00    -0.063 C 
ATOM     23  N   UNL     1      -1.299  -5.000   1.964  0.00  0.00    +0.387 N 
ATOM     24  C   UNL     1      -0.561  -4.754   0.717  0.00  0.00    -0.063 C 
ATOM     25  C   UNL     1      -0.213  -3.267   0.617  0.00  0.00    +0.066 C 
ATOM     26  H   UNL     1      -0.664  -4.681   2.803  0.00  0.00    -0.081 HD
BRANCH  23  27
ATOM     27  C   UNL     1      -1.585  -6.430   2.133  0.00  0.00    +0.019 C 
BRANCH  27  28
ATOM     28  C   UNL     1      -2.119  -6.675   3.521  0.00  0.00    +0.201 C 
ATOM     29  O   UNL     1      -2.247  -5.749   4.293  0.00  0.00    -0.278 OA
ATOM     30  N   UNL     1      -2.452  -7.923   3.905  0.00  0.00    -0.287 N 
ATOM     31  H   UNL     1      -2.267  -8.773   3.232  0.00  0.00    +0.155 HD
BRANCH  30  32
ATOM     32  C   UNL     1      -3.034  -8.138   5.159  0.00  0.00    +0.036 A 
ATOM     33  C   UNL     1      -2.646  -7.366   6.247  0.00  0.00    +0.023 A 
ATOM     34  C   UNL     1      -3.225  -7.576   7.483  0.00  0.00    +0.005 A 
ATOM     35  C   UNL     1      -4.183  -8.561   7.642  0.00  0.00    +0.038 A 
ATOM     36  C   UNL     1      -4.568  -9.336   6.561  0.00  0.00    +0.125 A 
ATOM     37  C   UNL     1      -3.995  -9.126   5.320  0.00  0.00    +0.061 A 
ATOM     38  F   UNL     1      -5.504 -10.298   6.720  0.00  0.00    -0.205 F 
ENDBRANCH  30  32
ENDBRANCH  27  28
ENDBRANCH  23  27
ENDBRANCH   1  20
TORSDOF 6
