REMARK  Name = ZINC39655894
REMARK  8 active torsions:
REMARK  status: ('A' for Active; 'I' for Inactive)
REMARK    1  A    between atoms: C_1  and  C_2
REMARK    2  A    between atoms: C_8  and  C_11
REMARK    3  A    between atoms: C_11  and  C_12
REMARK    4  A    between atoms: C_12  and  N_13
REMARK    5  A    between atoms: C_14  and  C_16
REMARK    6  A    between atoms: C_27  and  C_29
REMARK    7  A    between atoms: C_32  and  O_35
REMARK    8  A    between atoms: O_35  and  C_36
REMARK                            x       y       z     vdW  Elec       q    Type
REMARK                         _______ _______ _______ _____ _____    ______ ____
ROOT
ATOM      1  C   UNL     1       4.082  -0.092  -7.929  0.00  0.00    +0.100 C 
ATOM      2  C   UNL     1       4.510   0.827  -9.095  0.00  0.00    +0.121 C 
ATOM      3  N   UNL     1       5.457   0.009  -9.888  0.00  0.00    -0.296 N 
ATOM      4  C   UNL     1       4.870  -1.352  -9.875  0.00  0.00    +0.115 C 
ATOM      5  C   UNL     1       4.319  -1.521  -8.445  0.00  0.00    -0.004 C 
ATOM      6  C   UNL     1       3.006  -2.297  -8.475  0.00  0.00    -0.010 C 
ATOM      7  C   UNL     1       3.276  -3.732  -8.935  0.00  0.00    -0.082 C 
ATOM      8  N   UNL     1       4.226  -4.372  -8.017  0.00  0.00    +0.379 N 
ATOM      9  C   UNL     1       5.517  -3.675  -8.065  0.00  0.00    -0.082 C 
ATOM     10  C   UNL     1       5.341  -2.237  -7.567  0.00  0.00    -0.010 C 
ATOM     11  C   UNL     1       6.596   0.412 -10.487  0.00  0.00    +0.247 C 
ATOM     12  O   UNL     1       7.016   1.538 -10.300  0.00  0.00    -0.270 OA
ATOM     13  H   UNL     1       3.860  -4.335  -7.077  0.00  0.00    -0.086 HD
ATOM     14  H   UNL     1       4.356  -5.336  -8.287  0.00  0.00    -0.086 HD
ENDROOT
BRANCH  11  15
ATOM     15  C   UNL     1       7.334  -0.514 -11.368  0.00  0.00    +0.037 A 
ATOM     16  C   UNL     1       6.681  -1.611 -11.935  0.00  0.00    +0.016 A 
ATOM     17  C   UNL     1       7.372  -2.472 -12.757  0.00  0.00    +0.047 A 
ATOM     18  C   UNL     1       8.718  -2.251 -13.023  0.00  0.00    +0.130 A 
ATOM     19  C   UNL     1       9.372  -1.161 -12.461  0.00  0.00    +0.047 A 
ATOM     20  C   UNL     1       8.686  -0.292 -11.643  0.00  0.00    +0.016 A 
BRANCH  18  21
ATOM     21  O   UNL     1       9.397  -3.103 -13.834  0.00  0.00    -0.406 OA
BRANCH  21  22
ATOM     22  C   UNL     1      10.778  -2.817 -14.065  0.00  0.00    +0.575 C 
ATOM     23  F   UNL     1      11.466  -2.828 -12.847  0.00  0.00    -0.133 F 
ATOM     24  F   UNL     1      11.319  -3.787 -14.915  0.00  0.00    -0.133 F 
ATOM     25  F   UNL     1      10.900  -1.556 -14.658  0.00  0.00    -0.133 F 
ENDBRANCH  21  22
ENDBRANCH  18  21
ENDBRANCH  11  15
BRANCH   1  27
ATOM     26  N   UNL     1       2.182  -0.069  -6.346  0.00  0.00    -0.315 N 
ATOM     27  C   UNL     1       2.625   0.114  -7.606  0.00  0.00    +0.218 C 
ATOM     28  O   UNL     1       1.851   0.445  -8.479  0.00  0.00    -0.275 OA
ATOM     29  H   UNL     1       2.801  -0.334  -5.648  0.00  0.00    +0.149 HD
BRANCH  26  30
ATOM     30  C   UNL     1       0.765   0.131  -6.032  0.00  0.00    +0.109 C 
BRANCH  30  31
ATOM     31  C   UNL     1       0.529  -0.139  -4.544  0.00  0.00    +0.056 C 
BRANCH  31  39
ATOM     32  C   UNL     1      -3.294  -4.334  -5.315  0.00  0.00    +0.044 C 
ATOM     33  C   UNL     1      -3.243  -2.907  -4.835  0.00  0.00    -0.050 A 
ATOM     34  C   UNL     1      -4.408  -2.278  -4.419  0.00  0.00    +0.005 A 
ATOM     35  C   UNL     1      -4.383  -0.973  -3.977  0.00  0.00    +0.026 A 
ATOM     36  C   UNL     1      -3.180  -0.277  -3.947  0.00  0.00    +0.047 A 
ATOM     37  N   UNL     1      -2.833   1.002  -3.571  0.00  0.00    -0.360 N 
ATOM     38  C   UNL     1      -1.488   1.188  -3.741  0.00  0.00    +0.087 A 
ATOM     39  C   UNL     1      -0.928   0.067  -4.221  0.00  0.00    -0.021 A 
ATOM     40  C   UNL     1      -2.002  -0.918  -4.371  0.00  0.00    +0.003 A 
ATOM     41  C   UNL     1      -2.049  -2.243  -4.809  0.00  0.00    +0.013 A 
ATOM     42  H   UNL     1      -3.451   1.671  -3.236  0.00  0.00    +0.165 HD
ENDBRANCH  31  39
ENDBRANCH  30  31
ENDBRANCH  26  30
ENDBRANCH   1  27
TORSDOF 7
