REMARK  Name = ZINC20803063
REMARK  11 active torsions:
REMARK  status: ('A' for Active; 'I' for Inactive)
REMARK    1  A    between atoms: C_1  and  C_2
REMARK    2  A    between atoms: C_2  and  C_3
REMARK    3  A    between atoms: C_2  and  C_4
REMARK    4  A    between atoms: C_7  and  N_10
REMARK    5  A    between atoms: C_11  and  C_13
REMARK    6  A    between atoms: C_13  and  C_14
REMARK    7  A    between atoms: C_22  and  C_24
REMARK    8  A    between atoms: C_24  and  N_25
REMARK    9  A    between atoms: N_28  and  C_31
REMARK   10  A    between atoms: C_34  and  O_37
REMARK   11  A    between atoms: O_37  and  C_38
REMARK                            x       y       z     vdW  Elec       q    Type
REMARK                         _______ _______ _______ _____ _____    ______ ____
ROOT
ATOM      1  C   UNL     1       3.929  -4.572   0.043  0.00  0.00    +0.170 C 
ATOM      2  C   UNL     1       3.943  -6.071  -0.092  0.00  0.00    +0.234 C 
ATOM      3  O   UNL     1       3.229  -6.583  -0.927  0.00  0.00    -0.274 OA
ATOM      4  N   UNL     1       4.704  -6.861   0.666  0.00  0.00    -0.312 N 
ATOM      5  C   UNL     1       5.539  -6.398   1.766  0.00  0.00    +0.123 C 
ATOM      6  C   UNL     1       5.862  -4.911   1.613  0.00  0.00    +0.127 C 
ATOM      7  N   UNL     1       4.613  -4.200   1.290  0.00  0.00    -0.289 N 
ATOM      8  C   UNL     1       4.119  -3.247   2.104  0.00  0.00    +0.200 C 
ATOM      9  O   UNL     1       3.045  -2.739   1.860  0.00  0.00    -0.278 OA
ATOM     10  H   UNL     1       4.673  -7.931   0.412  0.00  0.00    +0.149 HD
ENDROOT
BRANCH   1  11
ATOM     11  C   UNL     1       2.482  -4.075   0.085  0.00  0.00    +0.128 C 
BRANCH  11  13
ATOM     12  N   UNL     1       0.455  -4.478   1.444  0.00  0.00    -0.285 N 
ATOM     13  C   UNL     1       1.773  -4.692   1.263  0.00  0.00    +0.219 C 
ATOM     14  O   UNL     1       2.389  -5.380   2.049  0.00  0.00    -0.275 OA
ATOM     15  H   UNL     1      -0.121  -3.923   0.688  0.00  0.00    +0.155 HD
BRANCH  12  19
ATOM     16  C   UNL     1      -1.440  -5.916   4.864  0.00  0.00    -0.045 A 
ATOM     17  C   UNL     1      -2.163  -5.736   3.699  0.00  0.00    +0.006 A 
ATOM     18  C   UNL     1      -1.538  -5.259   2.564  0.00  0.00    +0.023 A 
ATOM     19  C   UNL     1      -0.182  -4.960   2.593  0.00  0.00    +0.033 A 
ATOM     20  C   UNL     1       0.541  -5.142   3.764  0.00  0.00    +0.023 A 
ATOM     21  C   UNL     1      -0.089  -5.619   4.897  0.00  0.00    +0.006 A 
BRANCH  16  23
ATOM     22  C   UNL     1      -1.467  -7.748   6.535  0.00  0.00    +0.012 C 
ATOM     23  C   UNL     1      -2.125  -6.436   6.102  0.00  0.00    +0.013 C 
ATOM     24  C   UNL     1      -1.998  -5.407   7.226  0.00  0.00    +0.012 C 
ENDBRANCH  16  23
ENDBRANCH  12  19
ENDBRANCH  11  13
ENDBRANCH   1  11
BRANCH   8  25
ATOM     25  C   UNL     1       4.900  -2.812   3.317  0.00  0.00    +0.019 C 
BRANCH  25  26
ATOM     26  N   UNL     1       4.152  -1.770   4.034  0.00  0.00    +0.387 N 
ATOM     27  C   UNL     1       4.053  -0.545   3.228  0.00  0.00    -0.059 C 
ATOM     28  C   UNL     1       3.201   0.485   3.974  0.00  0.00    +0.086 C 
ATOM     29  N   UNL     1       3.810   0.766   5.282  0.00  0.00    -0.333 N 
ATOM     30  C   UNL     1       3.910  -0.459   6.087  0.00  0.00    +0.086 C 
ATOM     31  C   UNL     1       4.761  -1.489   5.341  0.00  0.00    -0.059 C 
ATOM     32  H   UNL     1       3.133  -2.146   4.207  0.00  0.00    -0.081 HD
BRANCH  29  33
ATOM     33  C   UNL     1       3.098   1.758   5.964  0.00  0.00    +0.030 A 
ATOM     34  C   UNL     1       2.591   1.503   7.232  0.00  0.00    +0.027 A 
ATOM     35  C   UNL     1       1.893   2.485   7.907  0.00  0.00    +0.047 A 
ATOM     36  C   UNL     1       1.688   3.722   7.315  0.00  0.00    +0.120 A 
ATOM     37  C   UNL     1       2.189   3.976   6.046  0.00  0.00    +0.047 A 
ATOM     38  C   UNL     1       2.892   2.998   5.372  0.00  0.00    +0.027 A 
BRANCH  36  39
ATOM     39  O   UNL     1       0.996   4.687   7.978  0.00  0.00    -0.495 OA
ATOM     40  C   UNL     1       0.509   4.356   9.280  0.00  0.00    +0.277 C 
ENDBRANCH  36  39
ENDBRANCH  29  33
ENDBRANCH  25  26
ENDBRANCH   8  25
TORSDOF 8
