REMARK  Name = ZINC64117483
REMARK  10 active torsions:
REMARK  status: ('A' for Active; 'I' for Inactive)
REMARK    1  A    between atoms: C_1  and  C_2
REMARK    2  A    between atoms: C_7  and  C_8
REMARK    3  A    between atoms: C_8  and  C_9
REMARK    4  A    between atoms: C_9  and  C_11
REMARK    5  A    between atoms: C_9  and  N_12
REMARK    6  A    between atoms: C_13  and  C_15
REMARK    7  A    between atoms: C_15  and  C_17
REMARK    8  A    between atoms: C_15  and  N_27
REMARK    9  A    between atoms: C_17  and  C_18
REMARK   10  A    between atoms: C_28  and  C_30
REMARK                            x       y       z     vdW  Elec       q    Type
REMARK                         _______ _______ _______ _____ _____    ______ ____
ROOT
ATOM      1  C   UNL     1      -4.260  -2.141   3.294  0.00  0.00    +0.163 C 
ENDROOT
BRANCH   1   3
ATOM      2  N   UNL     1      -2.155  -0.849   3.159  0.00  0.00    -0.311 N 
ATOM      3  C   UNL     1      -3.497  -0.869   3.027  0.00  0.00    +0.234 C 
ATOM      4  O   UNL     1      -4.089   0.135   2.693  0.00  0.00    -0.274 OA
ATOM      5  H   UNL     1      -1.682  -1.652   3.425  0.00  0.00    +0.149 HD
BRANCH   2   6
ATOM      6  C   UNL     1      -1.413   0.387   2.899  0.00  0.00    +0.074 C 
ATOM      7  C   UNL     1      -1.403   1.252   4.161  0.00  0.00    +0.028 C 
BRANCH   6   8
ATOM      8  C   UNL     1       0.025   0.045   2.504  0.00  0.00    +0.057 C 
BRANCH   8  15
ATOM      9  C   UNL     1      -0.018   1.503   0.010  0.00  0.00    +0.044 C 
ATOM     10  C   UNL     1       0.002  -0.004   0.002  0.00  0.00    -0.047 A 
ATOM     11  C   UNL     1       0.006  -0.689  -1.199  0.00  0.00    +0.003 A 
ATOM     12  C   UNL     1       0.025  -2.071  -1.207  0.00  0.00    +0.000 A 
ATOM     13  C   UNL     1       0.040  -2.768  -0.013  0.00  0.00    +0.000 A 
ATOM     14  C   UNL     1       0.037  -2.084   1.188  0.00  0.00    +0.004 A 
ATOM     15  C   UNL     1       0.023  -0.702   1.195  0.00  0.00    -0.043 A 
ENDBRANCH   8  15
ENDBRANCH   6   8
ENDBRANCH   2   6
ENDBRANCH   1   3
BRANCH   1  16
ATOM     16  N   UNL     1      -5.573  -2.067   2.648  0.00  0.00    -0.299 N 
ATOM     17  C   UNL     1      -6.437  -1.090   2.987  0.00  0.00    +0.251 C 
ATOM     18  O   UNL     1      -6.128  -0.270   3.831  0.00  0.00    -0.270 OA
ATOM     19  H   UNL     1      -5.820  -2.721   1.975  0.00  0.00    +0.150 HD
BRANCH  17  20
ATOM     20  C   UNL     1      -7.751  -1.016   2.340  0.00  0.00    +0.074 A 
ATOM     21  C   UNL     1      -8.772  -0.100   2.538  0.00  0.00    +0.021 A 
ATOM     22  C   UNL     1      -9.900  -0.289   1.776  0.00  0.00    +0.008 A 
ATOM     23  C   UNL     1      -9.941  -1.329   0.907  0.00  0.00    +0.046 A 
ATOM     24  S   UNL     1      -8.448  -2.077   1.089  0.00  0.00    -0.092 S 
ENDBRANCH  17  20
ENDBRANCH   1  16
BRANCH   1  25
ATOM     25  C   UNL     1      -4.444  -2.318   4.803  0.00  0.00    +0.065 C 
BRANCH  25  26
ATOM     26  C   UNL     1      -5.098  -3.647   5.077  0.00  0.00    -0.039 C 
ATOM     27  C   UNL     1      -4.480  -4.810   5.386  0.00  0.00    -0.001 A 
ATOM     28  C   UNL     1      -3.067  -5.171   5.552  0.00  0.00    +0.010 A 
ATOM     29  C   UNL     1      -2.749  -6.446   5.869  0.00  0.00    +0.001 A 
ATOM     30  C   UNL     1      -3.732  -7.430   6.043  0.00  0.00    +0.002 A 
ATOM     31  C   UNL     1      -5.051  -7.175   5.907  0.00  0.00    +0.026 A 
ATOM     32  C   UNL     1      -5.499  -5.867   5.574  0.00  0.00    +0.043 A 
ATOM     33  N   UNL     1      -6.701  -5.377   5.389  0.00  0.00    -0.380 N 
ATOM     34  C   UNL     1      -6.580  -3.950   5.068  0.00  0.00    +0.144 C 
ATOM     35  H   UNL     1      -7.532  -5.873   5.458  0.00  0.00    +0.160 HD
ENDBRANCH  25  26
ENDBRANCH   1  25
TORSDOF 8
