REMARK  Name = ZINC39595362
REMARK  7 active torsions:
REMARK  status: ('A' for Active; 'I' for Inactive)
REMARK    1  A    between atoms: C_1  and  C_2
REMARK    2  A    between atoms: C_2  and  C_4
REMARK    3  A    between atoms: C_2  and  O_29
REMARK    4  A    between atoms: C_4  and  N_5
REMARK    5  A    between atoms: C_6  and  C_8
REMARK    6  A    between atoms: C_19  and  C_21
REMARK    7  A    between atoms: O_29  and  C_30
REMARK                            x       y       z     vdW  Elec       q    Type
REMARK                         _______ _______ _______ _____ _____    ______ ____
ROOT
ATOM      1  C   UNL     1       0.755  -3.991  -2.400  0.00  0.00    +0.100 C 
ATOM      2  C   UNL     1       1.501  -4.260  -1.073  0.00  0.00    +0.121 C 
ATOM      3  N   UNL     1       2.315  -5.469  -1.341  0.00  0.00    -0.296 N 
ATOM      4  C   UNL     1       2.810  -5.281  -2.726  0.00  0.00    +0.115 C 
ATOM      5  C   UNL     1       1.617  -4.662  -3.481  0.00  0.00    -0.004 C 
ATOM      6  C   UNL     1       0.820  -5.751  -4.192  0.00  0.00    -0.010 C 
ATOM      7  C   UNL     1       1.679  -6.365  -5.301  0.00  0.00    -0.082 C 
ATOM      8  N   UNL     1       2.073  -5.319  -6.253  0.00  0.00    +0.379 N 
ATOM      9  C   UNL     1       2.918  -4.324  -5.581  0.00  0.00    -0.082 C 
ATOM     10  C   UNL     1       2.111  -3.624  -4.484  0.00  0.00    -0.010 C 
ATOM     11  C   UNL     1       2.553  -6.505  -0.512  0.00  0.00    +0.248 C 
ATOM     12  O   UNL     1       2.002  -6.556   0.570  0.00  0.00    -0.270 OA
ATOM     13  H   UNL     1       2.588  -5.736  -7.014  0.00  0.00    -0.086 HD
ATOM     14  H   UNL     1       1.247  -4.868  -6.616  0.00  0.00    -0.086 HD
ENDROOT
BRANCH  11  15
ATOM     15  C   UNL     1       3.482  -7.579  -0.919  0.00  0.00    +0.055 A 
ATOM     16  C   UNL     1       4.619  -7.274  -1.672  0.00  0.00    +0.016 A 
ATOM     17  C   UNL     1       5.482  -8.280  -2.049  0.00  0.00    +0.021 A 
ATOM     18  C   UNL     1       5.225  -9.592  -1.684  0.00  0.00    +0.042 A 
ATOM     19  C   UNL     1       4.100  -9.902  -0.939  0.00  0.00    +0.040 A 
ATOM     20  C   UNL     1       3.230  -8.902  -0.549  0.00  0.00    +0.054 A 
ATOM     21 CL   UNL     1       1.824  -9.290   0.392  0.00  0.00    -0.083 Cl
ATOM     22 CL   UNL     1       6.317 -10.853  -2.163  0.00  0.00    -0.083 Cl
ENDBRANCH  11  15
BRANCH   1  24
ATOM     23  N   UNL     1      -0.389  -2.013  -3.348  0.00  0.00    -0.312 N 
ATOM     24  C   UNL     1       0.654  -2.509  -2.653  0.00  0.00    +0.218 C 
ATOM     25  O   UNL     1       1.513  -1.762  -2.233  0.00  0.00    -0.275 OA
ATOM     26  H   UNL     1      -1.075  -2.610  -3.684  0.00  0.00    +0.149 HD
BRANCH  23  27
ATOM     27  C   UNL     1      -0.487  -0.572  -3.594  0.00  0.00    +0.148 C 
BRANCH  27  29
ATOM     28  C   UNL     1      -1.793   1.208  -4.763  0.00  0.00    +0.053 C 
ATOM     29  C   UNL     1      -1.755  -0.277  -4.398  0.00  0.00    +0.187 C 
BRANCH  29  30
ATOM     30  O   UNL     1      -2.903  -0.605  -3.613  0.00  0.00    -0.488 OA
BRANCH  30  31
ATOM     31  C   UNL     1      -4.051  -0.885  -4.285  0.00  0.00    +0.121 A 
ATOM     32  C   UNL     1      -4.057  -0.900  -5.672  0.00  0.00    +0.048 A 
ATOM     33  C   UNL     1      -5.224  -1.185  -6.354  0.00  0.00    +0.042 A 
ATOM     34  C   UNL     1      -6.387  -1.456  -5.654  0.00  0.00    +0.124 A 
ATOM     35  C   UNL     1      -6.383  -1.441  -4.270  0.00  0.00    +0.042 A 
ATOM     36  C   UNL     1      -5.215  -1.163  -3.585  0.00  0.00    +0.048 A 
ATOM     37  F   UNL     1      -7.528  -1.734  -6.323  0.00  0.00    -0.205 F 
ENDBRANCH  30  31
ENDBRANCH  29  30
ENDBRANCH  27  29
ENDBRANCH  23  27
ENDBRANCH   1  24
TORSDOF 6
