REMARK  Name = ZINC12548088
REMARK  6 active torsions:
REMARK  status: ('A' for Active; 'I' for Inactive)
REMARK    1  A    between atoms: C_4  and  N_17
REMARK    2  A    between atoms: C_5  and  C_7
REMARK    3  A    between atoms: C_18  and  C_20
REMARK    4  A    between atoms: N_23  and  S_26
REMARK    5  A    between atoms: S_26  and  C_29
REMARK    6  A    between atoms: C_32  and  C_35
REMARK                            x       y       z     vdW  Elec       q    Type
REMARK                         _______ _______ _______ _____ _____    ______ ____
ROOT
ATOM      1  N   UNL     1       1.548  -2.679   2.130  0.00  0.00    -0.285 N 
ATOM      2  C   UNL     1       0.862  -2.011   1.183  0.00  0.00    +0.220 C 
ATOM      3  O   UNL     1       0.230  -2.622   0.347  0.00  0.00    -0.275 OA
ATOM      4  H   UNL     1       2.106  -2.194   2.758  0.00  0.00    +0.155 HD
ENDROOT
BRANCH   1   8
ATOM      5  C   UNL     1       1.274  -6.836   2.363  0.00  0.00    +0.001 A 
ATOM      6  C   UNL     1       1.245  -6.202   1.132  0.00  0.00    +0.002 A 
ATOM      7  C   UNL     1       1.330  -4.826   1.052  0.00  0.00    +0.024 A 
ATOM      8  C   UNL     1       1.456  -4.069   2.209  0.00  0.00    +0.044 A 
ATOM      9  C   UNL     1       1.486  -4.708   3.456  0.00  0.00    +0.038 A 
ATOM     10  C   UNL     1       1.393  -6.098   3.522  0.00  0.00    +0.013 A 
BRANCH   9  11
ATOM     11  C   UNL     1       1.614  -3.912   4.695  0.00  0.00    +0.141 A 
ATOM     12  N   UNL     1       1.754  -4.432   5.954  0.00  0.00    -0.338 N 
ATOM     13  H   UNL     1       1.787  -5.402   6.195  0.00  0.00    +0.167 HD
ATOM     14  C   UNL     1       1.840  -3.366   6.828  0.00  0.00    +0.066 A 
ATOM     15  C   UNL     1       1.988  -3.258   8.204  0.00  0.00    +0.028 A 
ATOM     16  C   UNL     1       2.043  -2.011   8.790  0.00  0.00    +0.002 A 
ATOM     17  C   UNL     1       1.951  -0.865   8.014  0.00  0.00    +0.002 A 
ATOM     18  C   UNL     1       1.805  -0.950   6.659  0.00  0.00    +0.030 A 
ATOM     19  C   UNL     1       1.747  -2.204   6.042  0.00  0.00    +0.089 A 
ATOM     20  N   UNL     1       1.616  -2.602   4.753  0.00  0.00    -0.228 NA
ENDBRANCH   9  11
ENDBRANCH   1   8
BRANCH   2  21
ATOM     21  C   UNL     1       0.879  -0.504   1.161  0.00  0.00    +0.078 C 
ATOM     22  C   UNL     1       0.026  -0.001  -0.006  0.00  0.00    +0.030 C 
ATOM     23  C   UNL     1       0.018   1.531  -0.004  0.00  0.00    +0.110 C 
ATOM     24  N   UNL     1       1.406   2.011  -0.020  0.00  0.00    -0.177 NA
ATOM     25  C   UNL     1       2.336   1.519   1.006  0.00  0.00    +0.110 C 
ATOM     26  C   UNL     1       2.318  -0.013   0.992  0.00  0.00    +0.030 C 
BRANCH  24  27
ATOM     27  S   UNL     1       1.913   3.087  -1.172  0.00  0.00    +0.061 S 
ATOM     28  O   UNL     1       3.320   2.927  -1.286  0.00  0.00    -0.153 OA
ATOM     29  O   UNL     1       1.037   2.938  -2.281  0.00  0.00    -0.153 OA
BRANCH  27  30
ATOM     30  C   UNL     1       1.641   4.705  -0.529  0.00  0.00    +0.106 A 
ATOM     31  C   UNL     1       0.437   5.345  -0.763  0.00  0.00    +0.030 A 
ATOM     32  C   UNL     1       0.215   6.610  -0.259  0.00  0.00    +0.021 A 
ATOM     33  C   UNL     1       1.214   7.249   0.479  0.00  0.00    +0.052 A 
ATOM     34  C   UNL     1       2.429   6.599   0.707  0.00  0.00    +0.021 A 
ATOM     35  C   UNL     1       2.635   5.332   0.201  0.00  0.00    +0.030 A 
BRANCH  33  36
ATOM     36  C   UNL     1       0.993   8.564   1.002  0.00  0.00    +0.099 C 
ATOM     37  N   UNL     1       0.818   9.607   1.416  0.00  0.00    -0.191 NA
ENDBRANCH  33  36
ENDBRANCH  27  30
ENDBRANCH  24  27
ENDBRANCH   2  21
TORSDOF 6
