REMARK  Name = ZINC35705159
REMARK  12 active torsions:
REMARK  status: ('A' for Active; 'I' for Inactive)
REMARK    1  A    between atoms: C_1  and  C_2
REMARK    2  A    between atoms: C_2  and  O_3
REMARK    3  A    between atoms: O_3  and  C_4
REMARK    4  A    between atoms: C_4  and  C_6
REMARK    5  A    between atoms: C_7  and  C_35
REMARK    6  A    between atoms: C_11  and  C_13
REMARK    7  A    between atoms: C_15  and  C_20
REMARK    8  A    between atoms: C_18  and  C_19
REMARK    9  A    between atoms: C_21  and  C_24
REMARK   10  A    between atoms: C_25  and  N_27
REMARK   11  A    between atoms: N_27  and  C_28
REMARK   12  A    between atoms: C_28  and  C_29
REMARK                            x       y       z     vdW  Elec       q    Type
REMARK                         _______ _______ _______ _____ _____    ______ ____
ROOT
ATOM      1  C   UNL     1      -2.779  -2.015   0.017  0.00  0.00    +0.091 C 
ATOM      2  C   UNL     1      -2.935  -3.388  -0.025  0.00  0.00    +0.158 C 
ATOM      3  N   UNL     1      -4.144  -3.926  -0.019  0.00  0.00    -0.220 NA
ATOM      4  C   UNL     1      -5.269  -3.244   0.026  0.00  0.00    +0.166 C 
ATOM      5  N   UNL     1      -5.333  -1.879   0.073  0.00  0.00    -0.267 N 
ATOM      6  C   UNL     1      -4.029  -1.165   0.076  0.00  0.00    +0.150 C 
ATOM      7  C   UNL     1      -6.591  -1.312   0.117  0.00  0.00    +0.048 C 
ATOM      8  C   UNL     1      -7.655  -2.144   0.111  0.00  0.00    +0.072 C 
ATOM      9  S   UNL     1      -6.872  -3.743   0.041  0.00  0.00    -0.060 S 
ENDROOT
BRANCH   6  10
ATOM     10  C   UNL     1      -3.958  -0.324   1.324  0.00  0.00    -0.019 A 
ATOM     11  C   UNL     1      -4.502  -0.792   2.506  0.00  0.00    +0.009 A 
ATOM     12  C   UNL     1      -4.438  -0.020   3.650  0.00  0.00    -0.050 A 
ATOM     13  C   UNL     1      -3.829   1.221   3.614  0.00  0.00    +0.003 A 
ATOM     14  C   UNL     1      -3.285   1.689   2.433  0.00  0.00    +0.004 A 
ATOM     15  C   UNL     1      -3.345   0.915   1.289  0.00  0.00    -0.045 A 
ATOM     16  C   UNL     1      -2.747   1.423   0.002  0.00  0.00    +0.044 C 
ATOM     17  C   UNL     1      -5.031  -0.531   4.938  0.00  0.00    +0.044 C 
ENDBRANCH   6  10
BRANCH   2  18
ATOM     18  C   UNL     1      -1.720  -4.278  -0.079  0.00  0.00    +0.435 C 
ATOM     19  F   UNL     1      -0.566  -3.502   0.079  0.00  0.00    -0.164 F 
ATOM     20  F   UNL     1      -1.790  -5.225   0.948  0.00  0.00    -0.164 F 
ATOM     21  F   UNL     1      -1.676  -4.932  -1.315  0.00  0.00    -0.164 F 
ENDBRANCH   2  18
BRANCH   7  22
ATOM     22  C   UNL     1      -6.766   0.147   0.170  0.00  0.00    +0.091 C 
ATOM     23  C   UNL     1      -7.993   0.672   0.354  0.00  0.00    +0.239 C 
ATOM     24  O   UNL     1      -9.044  -0.141   0.622  0.00  0.00    -0.271 OA
BRANCH  23  25
ATOM     25  N   UNL     1      -8.181   2.041   0.270  0.00  0.00    -0.309 N 
ATOM     26  H   UNL     1      -7.445   2.616   0.005  0.00  0.00    +0.149 HD
BRANCH  25  27
ATOM     27  C   UNL     1      -9.489   2.622   0.580  0.00  0.00    +0.136 C 
BRANCH  27  28
ATOM     28  C   UNL     1      -9.462   4.124   0.291  0.00  0.00    +0.135 C 
ATOM     29  C   UNL     1     -10.796   4.766   0.728  0.00  0.00    +0.035 C 
ATOM     30  C   UNL     1     -11.054   5.795  -0.406  0.00  0.00    +0.031 C 
ATOM     31  C   UNL     1     -10.463   5.042  -1.625  0.00  0.00    +0.160 C 
ATOM     32  O   UNL     1      -9.313   4.346  -1.116  0.00  0.00    -0.375 OA
ENDBRANCH  27  28
ENDBRANCH  25  27
ENDBRANCH  23  25
ENDBRANCH   7  22
BRANCH   1  33
ATOM     33  C   UNL     1      -1.506  -1.431   0.011  0.00  0.00    +0.339 C 
ATOM     34  O   UNL     1      -0.998  -1.069   1.058  0.00  0.00    -0.245 OA
BRANCH  33  35
ATOM     35  O   UNL     1      -0.842  -1.270  -1.155  0.00  0.00    -0.462 OA
BRANCH  35  37
ATOM     36  C   UNL     1       1.034  -0.536  -2.490  0.00  0.00    +0.048 C 
ATOM     37  C   UNL     1       0.490  -0.761  -1.077  0.00  0.00    +0.229 C 
ENDBRANCH  35  37
ENDBRANCH  33  35
ENDBRANCH   1  33
TORSDOF 9
