REMARK  Name = ZINC23647016
REMARK  7 active torsions:
REMARK  status: ('A' for Active; 'I' for Inactive)
REMARK    1  A    between atoms: C_4  and  C_7
REMARK    2  A    between atoms: N_11  and  C_29
REMARK    3  A    between atoms: C_12  and  S_14
REMARK    4  A    between atoms: S_14  and  C_15
REMARK    5  A    between atoms: C_15  and  C_16
REMARK    6  A    between atoms: N_18  and  N_19
REMARK    7  A    between atoms: C_20  and  C_22
REMARK                            x       y       z     vdW  Elec       q    Type
REMARK                         _______ _______ _______ _____ _____    ______ ____
ROOT
ATOM      1  C   UNL     1      -8.440  -7.056   0.035  0.00  0.00    +0.041 C 
ATOM      2  C   UNL     1      -7.145  -7.371   0.327  0.00  0.00    +0.129 C 
ATOM      3  C   UNL     1      -6.649  -8.627   0.925  0.00  0.00    +0.275 C 
ATOM      4  O   UNL     1      -7.307  -9.595   1.260  0.00  0.00    -0.268 OA
ATOM      5  N   UNL     1      -5.310  -8.474   1.023  0.00  0.00    -0.214 N 
ATOM      6  C   UNL     1      -4.979  -7.234   0.532  0.00  0.00    +0.169 C 
ATOM      7  N   UNL     1      -6.043  -6.588   0.132  0.00  0.00    -0.220 NA
ENDROOT
BRANCH   5   8
ATOM      8  C   UNL     1      -4.411  -9.420   1.538  0.00  0.00    +0.044 A 
ATOM      9  C   UNL     1      -3.466 -10.005   0.707  0.00  0.00    +0.027 A 
ATOM     10  C   UNL     1      -2.578 -10.932   1.217  0.00  0.00    +0.040 A 
ATOM     11  C   UNL     1      -2.638 -11.287   2.554  0.00  0.00    +0.124 A 
ATOM     12  C   UNL     1      -3.584 -10.708   3.384  0.00  0.00    +0.040 A 
ATOM     13  C   UNL     1      -4.470  -9.777   2.878  0.00  0.00    +0.027 A 
ATOM     14  F   UNL     1      -1.772 -12.197   3.050  0.00  0.00    -0.205 F 
ENDBRANCH   5   8
BRANCH   1  18
ATOM     15  C   UNL     1     -11.466 -10.005   0.365  0.00  0.00    +0.000 A 
ATOM     16  C   UNL     1     -11.720  -8.709   0.779  0.00  0.00    +0.001 A 
ATOM     17  C   UNL     1     -10.742  -7.744   0.676  0.00  0.00    +0.008 A 
ATOM     18  C   UNL     1      -9.488  -8.077   0.149  0.00  0.00    -0.023 A 
ATOM     19  C   UNL     1      -9.242  -9.389  -0.274  0.00  0.00    +0.008 A 
ATOM     20  C   UNL     1     -10.229 -10.344  -0.158  0.00  0.00    +0.001 A 
ENDBRANCH   1  18
BRANCH   6  21
ATOM     21  S   UNL     1      -3.338  -6.596   0.459  0.00  0.00    -0.080 S 
BRANCH  21  22
ATOM     22  C   UNL     1      -3.664  -4.975  -0.276  0.00  0.00    +0.174 C 
BRANCH  22  23
ATOM     23  C   UNL     1      -2.366  -4.226  -0.438  0.00  0.00    +0.239 C 
ATOM     24  O   UNL     1      -1.323  -4.739  -0.090  0.00  0.00    -0.273 OA
ATOM     25  N   UNL     1      -2.364  -2.988  -0.968  0.00  0.00    -0.233 N 
ATOM     26  H   UNL     1      -3.309  -2.522  -1.283  0.00  0.00    +0.173 HD
BRANCH  25  27
ATOM     27  N   UNL     1      -1.157  -2.292  -1.119  0.00  0.00    -0.230 N 
ATOM     28  C   UNL     1      -1.155  -1.053  -1.649  0.00  0.00    +0.263 C 
ATOM     29  O   UNL     1      -2.200  -0.539  -1.997  0.00  0.00    -0.269 OA
ATOM     30  H   UNL     1      -0.211  -2.757  -0.804  0.00  0.00    +0.173 HD
BRANCH  28  31
ATOM     31  C   UNL     1       0.117  -0.320  -1.808  0.00  0.00    +0.073 A 
ATOM     32  C   UNL     1       1.321  -0.907  -1.410  0.00  0.00    +0.016 A 
ATOM     33  C   UNL     1       2.505  -0.218  -1.562  0.00  0.00    +0.001 A 
ATOM     34  C   UNL     1       2.505   1.055  -2.107  0.00  0.00    +0.003 A 
ATOM     35  C   UNL     1       1.320   1.645  -2.504  0.00  0.00    +0.039 A 
ATOM     36  C   UNL     1       0.124   0.966  -2.358  0.00  0.00    +0.136 A 
ATOM     37  F   UNL     1      -1.034   1.540  -2.752  0.00  0.00    -0.205 F 
ENDBRANCH  28  31
ENDBRANCH  25  27
ENDBRANCH  22  23
ENDBRANCH  21  22
ENDBRANCH   6  21
TORSDOF 7
