REMARK  Name = ZINC66359219
REMARK  8 active torsions:
REMARK  status: ('A' for Active; 'I' for Inactive)
REMARK    1  A    between atoms: C_1  and  N_2
REMARK    2  A    between atoms: N_2  and  C_3
REMARK    3  A    between atoms: C_6  and  C_10
REMARK    4  A    between atoms: C_10  and  N_11
REMARK    5  A    between atoms: N_14  and  C_15
REMARK    6  A    between atoms: C_15  and  C_16
REMARK    7  A    between atoms: C_19  and  C_22
REMARK    8  A    between atoms: N_24  and  C_25
REMARK                            x       y       z     vdW  Elec       q    Type
REMARK                         _______ _______ _______ _____ _____    ______ ____
ROOT
ATOM      1  N   UNL     1      -1.351  -4.764  -2.463  0.00  0.00    -0.295 N 
ATOM      2  C   UNL     1      -1.585  -6.091  -2.499  0.00  0.00    +0.300 C 
ATOM      3  O   UNL     1      -0.653  -6.872  -2.529  0.00  0.00    -0.253 OA
ATOM      4  N   UNL     1      -2.851  -6.552  -2.503  0.00  0.00    -0.295 N 
ATOM      5  H   UNL     1      -2.094  -4.141  -2.439  0.00  0.00    +0.151 HD
ATOM      6  H   UNL     1      -3.594  -5.930  -2.479  0.00  0.00    +0.151 HD
ENDROOT
BRANCH   1   7
ATOM      7  C   UNL     1       0.025  -4.262  -2.458  0.00  0.00    +0.141 C 
BRANCH   7  13
ATOM      8  C   UNL     1      -0.018   1.461   0.010  0.00  0.00    +0.130 C 
ATOM      9  N   UNL     1       0.002  -0.004   0.002  0.00  0.00    -0.323 N 
ATOM     10  C   UNL     1       0.024  -0.743   1.267  0.00  0.00    +0.130 C 
ATOM     11  C   UNL     1       0.000  -0.693  -1.206  0.00  0.00    +0.098 A 
ATOM     12  C   UNL     1       0.013  -2.084  -1.206  0.00  0.00    +0.047 A 
ATOM     13  C   UNL     1       0.011  -2.756  -2.415  0.00  0.00    -0.026 A 
ATOM     14  C   UNL     1      -0.004  -2.012  -3.587  0.00  0.00    +0.023 A 
ATOM     15  C   UNL     1      -0.017  -0.633  -3.513  0.00  0.00    +0.084 A 
ATOM     16  N   UNL     1      -0.020  -0.019  -2.345  0.00  0.00    -0.350 N 
ATOM     17  H   UNL     1      -0.033   0.951  -2.321  0.00  0.00    +0.166 HD
ENDBRANCH   7  13
ENDBRANCH   1   7
BRANCH   4  18
ATOM     18  C   UNL     1      -3.105  -7.995  -2.543  0.00  0.00    +0.141 C 
BRANCH  18  19
ATOM     19  C   UNL     1      -4.591  -8.243  -2.539  0.00  0.00    -0.030 A 
ATOM     20  C   UNL     1      -5.262  -8.386  -1.338  0.00  0.00    +0.006 A 
ATOM     21  C   UNL     1      -6.623  -8.614  -1.327  0.00  0.00    +0.013 A 
ATOM     22  C   UNL     1      -7.322  -8.701  -2.532  0.00  0.00    +0.037 A 
ATOM     23  C   UNL     1      -6.639  -8.556  -3.740  0.00  0.00    +0.013 A 
ATOM     24  C   UNL     1      -5.279  -8.322  -3.737  0.00  0.00    +0.006 A 
BRANCH  22  25
ATOM     25  C   UNL     1      -8.780  -8.945  -2.528  0.00  0.00    +0.244 C 
ATOM     26  O   UNL     1      -9.372  -9.072  -1.474  0.00  0.00    -0.270 OA
ATOM     27  N   UNL     1      -9.453  -9.028  -3.693  0.00  0.00    -0.308 N 
ATOM     28  H   UNL     1      -8.980  -8.927  -4.534  0.00  0.00    +0.149 HD
BRANCH  27  29
ATOM     29  C   UNL     1     -10.898  -9.270  -3.689  0.00  0.00    +0.073 C 
ATOM     30  C   UNL     1     -11.446 -10.286  -4.693  0.00  0.00    +0.024 C 
ATOM     31  C   UNL     1     -11.697  -8.791  -4.902  0.00  0.00    +0.024 C 
ENDBRANCH  27  29
ENDBRANCH  22  25
ENDBRANCH  18  19
ENDBRANCH   4  18
TORSDOF 6
