REMARK  Name = ZINC60160282
REMARK  15 active torsions:
REMARK  status: ('A' for Active; 'I' for Inactive)
REMARK    1  A    between atoms: C_1  and  C_2
REMARK    2  A    between atoms: C_2  and  C_3
REMARK    3  A    between atoms: C_2  and  C_4
REMARK    4  A    between atoms: C_4  and  C_6
REMARK    5  A    between atoms: C_4  and  N_16
REMARK    6  A    between atoms: C_9  and  C_12
REMARK    7  A    between atoms: C_12  and  C_13
REMARK    8  A    between atoms: C_12  and  C_14
REMARK    9  A    between atoms: C_12  and  C_15
REMARK   10  A    between atoms: N_16  and  C_17
REMARK   11  A    between atoms: C_17  and  C_18
REMARK   12  A    between atoms: C_21  and  C_23
REMARK   13  A    between atoms: N_25  and  C_26
REMARK   14  A    between atoms: C_29  and  O_32
REMARK   15  A    between atoms: O_32  and  C_33
REMARK                            x       y       z     vdW  Elec       q    Type
REMARK                         _______ _______ _______ _____ _____    ______ ____
ROOT
ATOM      1  C   UNL     1      -3.600  -0.438  -0.829  0.00  0.00    -0.016 C 
ENDROOT
BRANCH   1   2
ATOM      2  C   UNL     1      -4.421   0.066  -1.987  0.00  0.00    +0.086 A 
ATOM      3  N   UNL     1      -4.772  -0.562  -3.091  0.00  0.00    -0.148 NA
ATOM      4  N   UNL     1      -5.471  -0.007  -3.986  0.00  0.00    -0.137 NA
ATOM      5  C   UNL     1      -5.863   1.251  -3.802  0.00  0.00    +0.187 A 
ATOM      6  S   UNL     1      -5.136   1.578  -2.203  0.00  0.00    -0.048 S 
BRANCH   5   7
ATOM      7  C   UNL     1      -6.671   2.125  -4.669  0.00  0.00    +0.275 C 
ATOM      8  O   UNL     1      -6.926   3.261  -4.319  0.00  0.00    -0.268 OA
ATOM      9  N   UNL     1      -7.129   1.665  -5.851  0.00  0.00    -0.280 N 
ATOM     10  H   UNL     1      -6.991   0.737  -6.096  0.00  0.00    +0.155 HD
BRANCH   9  11
ATOM     11  C   UNL     1      -7.803   2.527  -6.723  0.00  0.00    +0.034 A 
ATOM     12  C   UNL     1      -8.847   2.048  -7.504  0.00  0.00    +0.027 A 
ATOM     13  C   UNL     1      -9.512   2.899  -8.365  0.00  0.00    +0.047 A 
ATOM     14  C   UNL     1      -9.137   4.232  -8.450  0.00  0.00    +0.120 A 
ATOM     15  C   UNL     1      -8.095   4.711  -7.670  0.00  0.00    +0.047 A 
ATOM     16  C   UNL     1      -7.433   3.863  -6.805  0.00  0.00    +0.027 A 
BRANCH  14  17
ATOM     17  O   UNL     1      -9.792   5.069  -9.298  0.00  0.00    -0.495 OA
ATOM     18  C   UNL     1      -9.354   6.429  -9.334  0.00  0.00    +0.277 C 
ENDBRANCH  14  17
ENDBRANCH   9  11
ENDBRANCH   5   7
ENDBRANCH   1   2
BRANCH   1  19
ATOM     19  N   UNL     1      -2.181  -0.146  -1.070  0.00  0.00    +0.388 N 
ATOM     20  H   UNL     1      -2.066   0.841  -1.246  0.00  0.00    -0.084 HD
ATOM     21  H   UNL     1      -1.862  -0.669  -1.872  0.00  0.00    -0.084 HD
BRANCH  19  22
ATOM     22  C   UNL     1      -1.394  -0.528   0.110  0.00  0.00    -0.038 C 
BRANCH  22  23
ATOM     23  C   UNL     1      -1.455  -2.023   0.291  0.00  0.00    -0.061 A 
ATOM     24  C   UNL     1      -1.387  -2.856  -0.810  0.00  0.00    +0.002 A 
ATOM     25  C   UNL     1      -1.442  -4.228  -0.644  0.00  0.00    +0.004 A 
ATOM     26  C   UNL     1      -1.566  -4.766   0.624  0.00  0.00    -0.042 A 
ATOM     27  C   UNL     1      -1.634  -3.933   1.725  0.00  0.00    +0.004 A 
ATOM     28  C   UNL     1      -1.574  -2.562   1.559  0.00  0.00    +0.002 A 
BRANCH  26  29
ATOM     29  C   UNL     1      -1.628  -6.260   0.805  0.00  0.00    -0.013 C 
ATOM     30  C   UNL     1      -0.347  -6.894   0.258  0.00  0.00    +0.015 C 
ATOM     31  C   UNL     1      -1.764  -6.589   2.293  0.00  0.00    +0.015 C 
ATOM     32  C   UNL     1      -2.836  -6.816   0.047  0.00  0.00    +0.015 C 
ENDBRANCH  26  29
ENDBRANCH  22  23
BRANCH  22  34
ATOM     33  C   UNL     1       0.136   1.430  -0.149  0.00  0.00    +0.006 C 
ATOM     34  C   UNL     1       0.060  -0.097  -0.085  0.00  0.00    -0.027 C 
ATOM     35  C   UNL     1       0.903  -0.601   1.088  0.00  0.00    +0.006 C 
ENDBRANCH  22  34
ENDBRANCH  19  22
ENDBRANCH   1  19
TORSDOF 9
