REMARK  Name = ZINC40307622
REMARK  6 active torsions:
REMARK  status: ('A' for Active; 'I' for Inactive)
REMARK    1  A    between atoms: C_1  and  C_2
REMARK    2  A    between atoms: C_6  and  O_19
REMARK    3  A    between atoms: C_7  and  N_8
REMARK    4  A    between atoms: C_9  and  C_11
REMARK    5  A    between atoms: C_16  and  N_17
REMARK    6  A    between atoms: O_19  and  C_20
REMARK                            x       y       z     vdW  Elec       q    Type
REMARK                         _______ _______ _______ _____ _____    ______ ____
ROOT
ATOM      1  N   UNL     1       0.088   0.007   2.414  0.00  0.00    -0.278 N 
ATOM      2  C   UNL     1       0.277  -0.666   3.566  0.00  0.00    +0.250 C 
ATOM      3  O   UNL     1       0.547  -1.852   3.541  0.00  0.00    -0.270 OA
ATOM      4  H   UNL     1      -0.080   0.962   2.432  0.00  0.00    +0.155 HD
ENDROOT
BRANCH   1  11
ATOM      5  C   UNL     1       1.189   1.357   0.166  0.00  0.00    +0.046 C 
ATOM      6  C   UNL     1       0.663  -0.052   0.069  0.00  0.00    -0.025 A 
ATOM      7  C   UNL     1       0.713  -0.727  -1.137  0.00  0.00    +0.020 A 
ATOM      8  C   UNL     1       0.230  -2.020  -1.229  0.00  0.00    +0.022 A 
ATOM      9  C   UNL     1      -0.304  -2.644  -0.116  0.00  0.00    +0.062 A 
ATOM     10  C   UNL     1      -0.357  -1.974   1.095  0.00  0.00    +0.143 A 
ATOM     11  C   UNL     1       0.134  -0.673   1.190  0.00  0.00    +0.079 A 
ATOM     12 BR   UNL     1       0.301  -2.937  -2.882  0.00  0.00    -0.050 Br
BRANCH  10  13
ATOM     13  O   UNL     1      -0.882  -2.586   2.190  0.00  0.00    -0.493 OA
ATOM     14  C   UNL     1      -1.362  -3.921   2.019  0.00  0.00    +0.277 C 
ENDBRANCH  10  13
ENDBRANCH   1  11
BRANCH   2  15
ATOM     15  C   UNL     1       0.155   0.035   4.857  0.00  0.00    +0.058 A 
ATOM     16  C   UNL     1      -0.278   1.363   4.898  0.00  0.00    +0.016 A 
ATOM     17  C   UNL     1      -0.389   2.013   6.107  0.00  0.00    +0.021 A 
ATOM     18  C   UNL     1      -0.073   1.355   7.287  0.00  0.00    +0.043 A 
ATOM     19  C   UNL     1       0.356   0.043   7.263  0.00  0.00    +0.043 A 
ATOM     20  C   UNL     1       0.468  -0.630   6.053  0.00  0.00    +0.038 A 
ATOM     21 CL   UNL     1      -0.218   2.188   8.803  0.00  0.00    -0.083 Cl
BRANCH  20  22
ATOM     22  N   UNL     1       0.894  -1.952   6.027  0.00  0.00    -0.357 N 
ATOM     23  H   UNL     1       0.897  -2.444   5.191  0.00  0.00    +0.142 HD
ATOM     24  H   UNL     1       1.189  -2.383   6.844  0.00  0.00    +0.142 HD
ENDBRANCH  20  22
ENDBRANCH   2  15
TORSDOF 4
