REMARK  Name = ZINC09263064
REMARK  9 active torsions:
REMARK  status: ('A' for Active; 'I' for Inactive)
REMARK    1  A    between atoms: C_1  and  C_2
REMARK    2  A    between atoms: C_4  and  C_30
REMARK    3  A    between atoms: C_5  and  S_9
REMARK    4  A    between atoms: C_6  and  C_8
REMARK    5  A    between atoms: S_9  and  N_12
REMARK    6  A    between atoms: C_16  and  C_18
REMARK    7  A    between atoms: C_18  and  C_19
REMARK    8  A    between atoms: C_19  and  N_20
REMARK    9  A    between atoms: C_21  and  C_23
REMARK                            x       y       z     vdW  Elec       q    Type
REMARK                         _______ _______ _______ _____ _____    ______ ____
ROOT
ATOM      1  N   UNL     1      -7.982  -0.464  -0.514  0.00  0.00    -0.192 N 
ATOM      2  C   UNL     1      -6.953   0.254   0.076  0.00  0.00    +0.201 A 
ATOM      3  N   UNL     1      -6.707   0.498   1.356  0.00  0.00    -0.125 NA
ATOM      4  N   UNL     1      -5.712   1.181   1.724  0.00  0.00    -0.145 NA
ATOM      5  C   UNL     1      -4.856   1.694   0.863  0.00  0.00    +0.105 A 
ATOM      6  S   UNL     1      -5.580   1.126  -0.673  0.00  0.00    -0.034 S 
ATOM      7  H   UNL     1      -8.064  -0.490  -1.480  0.00  0.00    +0.176 HD
ENDROOT
BRANCH   1   8
ATOM      8  S   UNL     1      -9.072  -1.278   0.431  0.00  0.00    +0.074 S 
ATOM      9  O   UNL     1      -9.999  -1.892  -0.454  0.00  0.00    -0.150 OA
ATOM     10  O   UNL     1      -8.314  -2.021   1.376  0.00  0.00    -0.150 OA
BRANCH   8  15
ATOM     11  C   UNL     1     -12.156   2.855   3.563  0.00  0.00    +0.044 C 
ATOM     12  C   UNL     1     -11.385   1.823   2.781  0.00  0.00    -0.050 A 
ATOM     13  C   UNL     1     -10.499   0.984   3.430  0.00  0.00    +0.008 A 
ATOM     14  C   UNL     1      -9.793   0.037   2.712  0.00  0.00    -0.023 A 
ATOM     15  C   UNL     1      -9.972  -0.071   1.346  0.00  0.00    +0.114 A 
ATOM     16  C   UNL     1     -10.854   0.772   0.696  0.00  0.00    -0.023 A 
ATOM     17  C   UNL     1     -11.564   1.716   1.414  0.00  0.00    +0.008 A 
ATOM     18  C   UNL     1     -11.045   0.659  -0.794  0.00  0.00    +0.046 C 
ATOM     19  C   UNL     1      -8.827  -0.879   3.420  0.00  0.00    +0.046 C 
ENDBRANCH   8  15
ENDBRANCH   1   8
BRANCH   5  20
ATOM     20  C   UNL     1      -3.623   2.526   1.103  0.00  0.00    +0.083 C 
BRANCH  20  21
ATOM     21  C   UNL     1      -2.410   1.607   1.260  0.00  0.00    +0.111 C 
BRANCH  21  22
ATOM     22  N   UNL     1      -1.211   2.417   1.493  0.00  0.00    -0.311 N 
ATOM     23  C   UNL     1      -0.016   1.818   1.662  0.00  0.00    +0.244 C 
ATOM     24  O   UNL     1       0.068   0.606   1.620  0.00  0.00    -0.270 OA
ATOM     25  H   UNL     1      -1.278   3.384   1.526  0.00  0.00    +0.149 HD
BRANCH  23  26
ATOM     26  C   UNL     1       1.195   2.635   1.891  0.00  0.00    +0.038 A 
ATOM     27  C   UNL     1       1.103   4.027   1.934  0.00  0.00    +0.013 A 
ATOM     28  C   UNL     1       2.235   4.784   2.153  0.00  0.00    +0.002 A 
ATOM     29  C   UNL     1       3.462   4.167   2.320  0.00  0.00    +0.015 A 
ATOM     30  C   UNL     1       3.562   2.787   2.274  0.00  0.00    +0.019 A 
ATOM     31  C   UNL     1       2.435   2.018   2.060  0.00  0.00    +0.028 A 
ATOM     32 BR   UNL     1       5.244   1.954   2.503  0.00  0.00    -0.050 Br
ENDBRANCH  23  26
ENDBRANCH  21  22
ENDBRANCH  20  21
ENDBRANCH   5  20
TORSDOF 6
