REMARK  Name = ZINC09375412
REMARK  9 active torsions:
REMARK  status: ('A' for Active; 'I' for Inactive)
REMARK    1  A    between atoms: C_1  and  C_2
REMARK    2  A    between atoms: C_3  and  C_28
REMARK    3  A    between atoms: C_4  and  C_23
REMARK    4  A    between atoms: C_6  and  C_21
REMARK    5  A    between atoms: C_7  and  S_9
REMARK    6  A    between atoms: S_9  and  C_10
REMARK    7  A    between atoms: C_10  and  C_11
REMARK    8  A    between atoms: N_13  and  C_14
REMARK    9  A    between atoms: N_30  and  C_31
REMARK                            x       y       z     vdW  Elec       q    Type
REMARK                         _______ _______ _______ _____ _____    ______ ____
ROOT
ATOM      1  C   UNL     1      -3.964  -2.716   0.290  0.00  0.00    +0.061 C 
ATOM      2  C   UNL     1      -2.578  -3.302   0.372  0.00  0.00    +0.015 C 
ATOM      3  C   UNL     1      -1.512  -2.487   0.324  0.00  0.00    +0.047 C 
ATOM      4  C   UNL     1      -0.109  -3.017   0.397  0.00  0.00    +0.134 C 
ATOM      5  C   UNL     1      -0.097  -4.430   0.907  0.00  0.00    +0.072 C 
ATOM      6  C   UNL     1      -1.230  -5.181   0.929  0.00  0.00    +0.080 C 
ATOM      7  N   UNL     1      -2.425  -4.657   0.490  0.00  0.00    -0.312 N 
ATOM      8  H   UNL     1      -3.257  -5.329   0.233  0.00  0.00    +0.152 HD
ENDROOT
BRANCH   4   9
ATOM      9  C   UNL     1       0.508  -2.980  -0.978  0.00  0.00    +0.118 A 
ATOM     10  C   UNL     1       1.612  -2.296  -1.327  0.00  0.00    +0.045 A 
ATOM     11  C   UNL     1       1.830  -2.543  -2.701  0.00  0.00    +0.041 A 
ATOM     12  C   UNL     1       0.845  -3.364  -3.111  0.00  0.00    +0.195 A 
ATOM     13  O   UNL     1       0.051  -3.629  -2.061  0.00  0.00    -0.467 OA
ENDBRANCH   4   9
BRANCH   3  14
ATOM     14  C   UNL     1      -1.716  -1.091   0.206  0.00  0.00    +0.247 C 
ATOM     15  O   UNL     1      -2.846  -0.637   0.234  0.00  0.00    -0.270 OA
ATOM     16  N   UNL     1      -0.661  -0.265   0.062  0.00  0.00    -0.282 N 
ATOM     17  H   UNL     1       0.353  -0.680  -0.035  0.00  0.00    +0.155 HD
BRANCH  16  18
ATOM     18  C   UNL     1      -0.856   1.121   0.035  0.00  0.00    +0.034 A 
ATOM     19  C   UNL     1       0.087   1.966   0.605  0.00  0.00    +0.026 A 
ATOM     20  C   UNL     1      -0.104   3.333   0.574  0.00  0.00    +0.040 A 
ATOM     21  C   UNL     1      -1.241   3.861  -0.016  0.00  0.00    +0.124 A 
ATOM     22  C   UNL     1      -2.185   3.019  -0.579  0.00  0.00    +0.040 A 
ATOM     23  C   UNL     1      -1.995   1.652  -0.555  0.00  0.00    +0.026 A 
ATOM     24  F   UNL     1      -1.429   5.199  -0.040  0.00  0.00    -0.205 F 
ENDBRANCH  16  18
ENDBRANCH   3  14
BRANCH   5  25
ATOM     25  C   UNL     1       1.131  -4.996   1.378  0.00  0.00    +0.098 C 
ATOM     26  N   UNL     1       2.105  -5.446   1.752  0.00  0.00    -0.191 NA
ENDBRANCH   5  25
BRANCH   6  27
ATOM     27  S   UNL     1      -1.169  -6.838   1.526  0.00  0.00    -0.100 S 
BRANCH  27  28
ATOM     28  C   UNL     1      -2.904  -7.310   1.321  0.00  0.00    +0.171 C 
BRANCH  28  29
ATOM     29  C   UNL     1      -3.096  -8.732   1.781  0.00  0.00    +0.227 C 
ATOM     30  O   UNL     1      -2.152  -9.365   2.205  0.00  0.00    -0.275 OA
ATOM     31  N   UNL     1      -4.316  -9.302   1.721  0.00  0.00    -0.285 N 
ATOM     32  H   UNL     1      -5.185  -8.707   1.404  0.00  0.00    +0.155 HD
BRANCH  31  33
ATOM     33  C   UNL     1      -4.477 -10.650   2.062  0.00  0.00    +0.034 A 
ATOM     34  C   UNL     1      -5.407 -11.431   1.388  0.00  0.00    +0.026 A 
ATOM     35  C   UNL     1      -5.559 -12.763   1.722  0.00  0.00    +0.040 A 
ATOM     36  C   UNL     1      -4.795 -13.316   2.735  0.00  0.00    +0.124 A 
ATOM     37  C   UNL     1      -3.872 -12.537   3.412  0.00  0.00    +0.040 A 
ATOM     38  C   UNL     1      -3.711 -11.207   3.078  0.00  0.00    +0.026 A 
ATOM     39  F   UNL     1      -4.950 -14.617   3.063  0.00  0.00    -0.205 F 
ENDBRANCH  31  33
ENDBRANCH  28  29
ENDBRANCH  27  28
ENDBRANCH   6  27
TORSDOF 8
