REMARK  Name = ZINC02841077
REMARK  8 active torsions:
REMARK  status: ('A' for Active; 'I' for Inactive)
REMARK    1  A    between atoms: C_1  and  C_2
REMARK    2  A    between atoms: C_3  and  C_27
REMARK    3  A    between atoms: C_7  and  N_8
REMARK    4  A    between atoms: C_9  and  C_11
REMARK    5  A    between atoms: C_11  and  S_12
REMARK    6  A    between atoms: S_12  and  C_13
REMARK    7  A    between atoms: C_16  and  C_19
REMARK    8  A    between atoms: N_17  and  N_18
REMARK                            x       y       z     vdW  Elec       q    Type
REMARK                         _______ _______ _______ _____ _____    ______ ____
ROOT
ATOM      1  S   UNL     1       0.593   1.782  -0.093  0.00  0.00    -0.075 S 
ENDROOT
BRANCH   1   2
ATOM      2  C   UNL     1       0.610   0.022  -0.153  0.00  0.00    +0.209 A 
ATOM      3  N   UNL     1       1.676  -0.748  -0.162  0.00  0.00    -0.121 NA
ATOM      4  N   UNL     1       1.327  -1.984  -0.207  0.00  0.00    -0.127 NA
ATOM      5  C   UNL     1       0.018  -2.079  -0.237  0.00  0.00    +0.182 A 
ATOM      6  N   UNL     1      -0.481  -0.798  -0.204  0.00  0.00    -0.224 N 
BRANCH   5   7
ATOM      7  C   UNL     1      -0.771  -3.328  -0.297  0.00  0.00    +0.021 A 
ATOM      8  C   UNL     1      -0.183  -4.546   0.050  0.00  0.00    +0.013 A 
ATOM      9  C   UNL     1      -0.925  -5.707  -0.002  0.00  0.00    +0.021 A 
ATOM     10  C   UNL     1      -2.249  -5.668  -0.408  0.00  0.00    +0.041 A 
ATOM     11  C   UNL     1      -2.836  -4.464  -0.760  0.00  0.00    +0.021 A 
ATOM     12  C   UNL     1      -2.105  -3.296  -0.706  0.00  0.00    +0.013 A 
ATOM     13 CL   UNL     1      -3.175  -7.135  -0.479  0.00  0.00    -0.084 Cl
ENDBRANCH   5   7
BRANCH   6  14
ATOM     14  N   UNL     1      -1.795  -0.423  -0.218  0.00  0.00    -0.295 N 
ATOM     15  H   UNL     1      -2.105  -0.228  -1.159  0.00  0.00    +0.163 HD
ATOM     16  H   UNL     1      -2.376  -1.125   0.215  0.00  0.00    +0.163 HD
ENDBRANCH   6  14
ENDBRANCH   1   2
BRANCH   1  17
ATOM     17  C   UNL     1       2.372   2.112  -0.044  0.00  0.00    +0.173 C 
BRANCH  17  19
ATOM     18  N   UNL     1       3.863   4.084   0.055  0.00  0.00    -0.285 N 
ATOM     19  C   UNL     1       2.606   3.600   0.012  0.00  0.00    +0.227 C 
ATOM     20  O   UNL     1       1.663   4.362   0.018  0.00  0.00    -0.275 OA
ATOM     21  H   UNL     1       4.618   3.478  -0.008  0.00  0.00    +0.155 HD
BRANCH  18  28
ATOM     22  C   UNL     1       6.114   4.948   1.566  0.00  0.00    +0.046 C 
ATOM     23  C   UNL     1       5.166   5.925   0.919  0.00  0.00    -0.025 A 
ATOM     24  C   UNL     1       5.380   7.284   1.046  0.00  0.00    -0.032 A 
ATOM     25  C   UNL     1       4.507   8.181   0.458  0.00  0.00    +0.021 A 
ATOM     26  C   UNL     1       3.420   7.720  -0.265  0.00  0.00    +0.017 A 
ATOM     27  C   UNL     1       3.204   6.363  -0.400  0.00  0.00    +0.024 A 
ATOM     28  C   UNL     1       4.079   5.460   0.190  0.00  0.00    +0.037 A 
ATOM     29 BR   UNL     1       4.800  10.040   0.640  0.00  0.00    -0.050 Br
ATOM     30  C   UNL     1       6.562   7.789   1.833  0.00  0.00    +0.045 C 
ENDBRANCH  18  28
ENDBRANCH  17  19
ENDBRANCH   1  17
TORSDOF 6
