REMARK  Name = ZINC55173674
REMARK  4 active torsions:
REMARK  status: ('A' for Active; 'I' for Inactive)
REMARK    1  A    between atoms: C_1  and  C_2
REMARK    2  A    between atoms: C_3  and  C_8
REMARK    3  A    between atoms: N_10  and  C_11
REMARK    4  A    between atoms: N_10  and  C_12
REMARK                            x       y       z     vdW  Elec       q    Type
REMARK                         _______ _______ _______ _____ _____    ______ ____
ROOT
ATOM      1  C   UNL     1      -1.229  -1.033  -3.137  0.00  0.00    +0.255 C 
ATOM      2  O   UNL     1      -2.075  -0.475  -3.812  0.00  0.00    -0.269 OA
ATOM      3  N   UNL     1       0.053  -1.063  -3.552  0.00  0.00    -0.297 N 
ATOM      4  C   UNL     1       1.066  -1.756  -2.752  0.00  0.00    +0.132 C 
ENDROOT
BRANCH   3   5
ATOM      5  C   UNL     1       0.433  -0.404  -4.804  0.00  0.00    +0.082 C 
ATOM      6  C   UNL     1       1.903  -0.696  -5.108  0.00  0.00    +0.010 C 
ATOM      7  C   UNL     1       2.300  -0.008  -6.416  0.00  0.00    +0.009 C 
ATOM      8  C   UNL     1       1.429  -0.537  -7.556  0.00  0.00    -0.010 C 
ATOM      9  C   UNL     1       1.630  -2.047  -7.694  0.00  0.00    +0.007 C 
ATOM     10  C   UNL     1       1.234  -2.736  -6.386  0.00  0.00    -0.010 C 
ATOM     11  C   UNL     1       2.105  -2.207  -5.246  0.00  0.00    +0.009 C 
ATOM     12  C   UNL     1      -0.237  -2.444  -6.082  0.00  0.00    +0.009 C 
ATOM     13  C   UNL     1      -0.439  -0.933  -5.944  0.00  0.00    +0.010 C 
ATOM     14  C   UNL     1      -0.042  -0.245  -7.252  0.00  0.00    +0.009 C 
ENDBRANCH   3   5
BRANCH   1  17
ATOM     15  C   UNL     1      -3.999  -0.873  -1.711  0.00  0.00    +0.067 C 
ATOM     16  C   UNL     1      -2.811  -1.638  -1.191  0.00  0.00    +0.060 A 
ATOM     17  C   UNL     1      -1.604  -1.669  -1.874  0.00  0.00    +0.098 A 
ATOM     18  S   UNL     1      -0.635  -2.701  -0.786  0.00  0.00    -0.048 S 
ATOM     19  C   UNL     1      -1.814  -2.980   0.382  0.00  0.00    +0.156 A 
ATOM     20  N   UNL     1      -2.859  -2.307  -0.066  0.00  0.00    -0.230 NA
ATOM     21  N   UNL     1      -1.712  -3.728   1.536  0.00  0.00    -0.337 N 
ATOM     22  H   UNL     1      -0.878  -4.173   1.752  0.00  0.00    +0.144 HD
ATOM     23  H   UNL     1      -2.474  -3.809   2.130  0.00  0.00    +0.144 HD
ENDBRANCH   1  17
TORSDOF 2
