REMARK  Name = ZINC59121210
REMARK  8 active torsions:
REMARK  status: ('A' for Active; 'I' for Inactive)
REMARK    1  A    between atoms: C_4  and  C_7
REMARK    2  A    between atoms: C_7  and  C_9
REMARK    3  A    between atoms: C_7  and  N_28
REMARK    4  A    between atoms: C_9  and  C_11
REMARK    5  A    between atoms: C_9  and  N_17
REMARK    6  A    between atoms: N_17  and  S_18
REMARK    7  A    between atoms: S_18  and  C_21
REMARK    8  A    between atoms: N_28  and  C_29
REMARK                            x       y       z     vdW  Elec       q    Type
REMARK                         _______ _______ _______ _____ _____    ______ ____
ROOT
ATOM      1  C   UNL     1       4.019  -1.168  -1.464  0.00  0.00    +0.097 C 
ENDROOT
BRANCH   1   2
ATOM      2  C   UNL     1       5.334  -1.903  -1.481  0.00  0.00    -0.030 A 
ATOM      3  C   UNL     1       6.522  -1.196  -1.484  0.00  0.00    +0.005 A 
ATOM      4  C   UNL     1       7.728  -1.871  -1.500  0.00  0.00    +0.000 A 
ATOM      5  C   UNL     1       7.747  -3.253  -1.513  0.00  0.00    +0.000 A 
ATOM      6  C   UNL     1       6.559  -3.960  -1.509  0.00  0.00    +0.000 A 
ATOM      7  C   UNL     1       5.353  -3.285  -1.488  0.00  0.00    +0.005 A 
ENDBRANCH   1   2
BRANCH   1   8
ATOM      8  N   UNL     1       4.100  -0.001  -2.347  0.00  0.00    -0.184 NA
ATOM      9  H   UNL     1       4.465   0.834  -2.015  0.00  0.00    +0.149 HD
BRANCH   8  10
ATOM     10  S   UNL     1       3.568  -0.109  -3.911  0.00  0.00    +0.059 S 
ATOM     11  O   UNL     1       3.752   1.175  -4.492  0.00  0.00    -0.153 OA
ATOM     12  O   UNL     1       4.151  -1.283  -4.459  0.00  0.00    -0.153 OA
BRANCH  10  13
ATOM     13  C   UNL     1       1.830  -0.390  -3.852  0.00  0.00    +0.105 A 
ATOM     14  C   UNL     1       1.340  -1.682  -3.807  0.00  0.00    +0.030 A 
ATOM     15  C   UNL     1      -0.024  -1.903  -3.761  0.00  0.00    +0.022 A 
ATOM     16  C   UNL     1      -0.898  -0.831  -3.759  0.00  0.00    +0.041 A 
ATOM     17  C   UNL     1      -0.408   0.462  -3.804  0.00  0.00    +0.022 A 
ATOM     18  C   UNL     1       0.956   0.682  -3.845  0.00  0.00    +0.030 A 
ATOM     19 CL   UNL     1      -2.611  -1.108  -3.702  0.00  0.00    -0.084 Cl
ENDBRANCH  10  13
ENDBRANCH   8  10
ENDBRANCH   1   8
BRANCH   1  20
ATOM     20  C   UNL     1       3.711  -0.707  -0.038  0.00  0.00    -0.017 C 
BRANCH  20  24
ATOM     21  C   UNL     1      -0.017   1.378   0.010  0.00  0.00    +0.000 A 
ATOM     22  C   UNL     1       1.171   2.086   0.002  0.00  0.00    +0.000 A 
ATOM     23  C   UNL     1       2.377   1.411  -0.013  0.00  0.00    +0.002 A 
ATOM     24  C   UNL     1       2.396   0.029  -0.020  0.00  0.00    -0.060 A 
ATOM     25  C   UNL     1       1.208  -0.679  -0.012  0.00  0.00    +0.002 A 
ATOM     26  C   UNL     1       0.002  -0.004   0.002  0.00  0.00    +0.000 A 
ENDBRANCH  20  24
BRANCH  20  27
ATOM     27  N   UNL     1       3.630  -1.877   0.848  0.00  0.00    +0.387 N 
ATOM     28  H   UNL     1       2.845  -2.450   0.577  0.00  0.00    -0.085 HD
ATOM     29  H   UNL     1       4.480  -2.414   0.773  0.00  0.00    -0.085 HD
BRANCH  27  30
ATOM     30  C   UNL     1       3.454  -1.429   2.236  0.00  0.00    -0.071 C 
ATOM     31  C   UNL     1       4.700  -0.665   2.687  0.00  0.00    -0.016 C 
ATOM     32  C   UNL     1       4.516  -0.198   4.133  0.00  0.00    -0.002 C 
ATOM     33  C   UNL     1       4.307  -1.414   5.038  0.00  0.00    -0.000 C 
ATOM     34  C   UNL     1       3.061  -2.178   4.587  0.00  0.00    -0.002 C 
ATOM     35  C   UNL     1       3.244  -2.644   3.141  0.00  0.00    -0.016 C 
ENDBRANCH  27  30
ENDBRANCH  20  27
ENDBRANCH   1  20
TORSDOF 8
