REMARK  Name = ZINC34942116
REMARK  7 active torsions:
REMARK  status: ('A' for Active; 'I' for Inactive)
REMARK    1  A    between atoms: C_1  and  C_2
REMARK    2  A    between atoms: C_2  and  C_3
REMARK    3  A    between atoms: C_2  and  C_4
REMARK    4  A    between atoms: C_4  and  C_6
REMARK    5  A    between atoms: C_4  and  N_25
REMARK    6  A    between atoms: N_18  and  C_19
REMARK    7  A    between atoms: N_28  and  C_29
REMARK                            x       y       z     vdW  Elec       q    Type
REMARK                         _______ _______ _______ _____ _____    ______ ____
ROOT
ATOM      1  C   UNL     1       1.578   0.134   1.134  0.00  0.00    +0.236 C 
ATOM      2  O   UNL     1       2.417  -0.742   1.139  0.00  0.00    -0.274 OA
ATOM      3  N   UNL     1       1.950   1.424   1.013  0.00  0.00    -0.300 N 
ATOM      4  C   UNL     1       0.955   2.501   1.105  0.00  0.00    +0.110 C 
ATOM      5  C   UNL     1       1.409   3.502   2.173  0.00  0.00    +0.054 C 
ATOM      6  C   UNL     1       2.828   3.973   1.855  0.00  0.00    +0.115 C 
ATOM      7  C   UNL     1       3.791   2.785   1.858  0.00  0.00    +0.054 C 
ATOM      8  C   UNL     1       3.358   1.779   0.793  0.00  0.00    +0.110 C 
ATOM      9  C   UNL     1       3.271   4.998   2.866  0.00  0.00    +0.238 C 
ATOM     10  O   UNL     1       3.373   4.811   4.060  0.00  0.00    -0.273 OA
ATOM     11  N   UNL     1       3.534   6.154   2.233  0.00  0.00    -0.298 N 
ATOM     12  C   UNL     1       3.301   6.010   0.797  0.00  0.00    +0.214 C 
ATOM     13  N   UNL     1       2.854   4.634   0.544  0.00  0.00    -0.300 N 
ATOM     14  H   UNL     1       3.836   6.967   2.667  0.00  0.00    +0.150 HD
ENDROOT
BRANCH  13  15
ATOM     15  C   UNL     1       2.522   4.070  -0.689  0.00  0.00    +0.032 A 
ATOM     16  C   UNL     1       2.193   2.723  -0.773  0.00  0.00    +0.023 A 
ATOM     17  C   UNL     1       1.865   2.168  -1.995  0.00  0.00    +0.002 A 
ATOM     18  C   UNL     1       1.863   2.952  -3.134  0.00  0.00    +0.000 A 
ATOM     19  C   UNL     1       2.189   4.294  -3.054  0.00  0.00    +0.002 A 
ATOM     20  C   UNL     1       2.513   4.856  -1.835  0.00  0.00    +0.023 A 
ENDBRANCH  13  15
BRANCH   1  21
ATOM     21  C   UNL     1       0.119  -0.220   1.264  0.00  0.00    +0.163 C 
BRANCH  21  22
ATOM     22  N   UNL     1      -0.094  -0.966   2.507  0.00  0.00    -0.288 N 
ATOM     23  C   UNL     1      -1.305  -0.959   3.099  0.00  0.00    +0.304 C 
ATOM     24  O   UNL     1      -2.221  -0.334   2.600  0.00  0.00    -0.252 OA
ATOM     25  N   UNL     1      -1.500  -1.645   4.242  0.00  0.00    -0.268 N 
ATOM     26  H   UNL     1       0.637  -1.464   2.905  0.00  0.00    +0.151 HD
ATOM     27  H   UNL     1      -0.756  -2.094   4.672  0.00  0.00    +0.156 HD
BRANCH  25  28
ATOM     28  C   UNL     1      -2.779  -1.709   4.810  0.00  0.00    +0.049 A 
ATOM     29  C   UNL     1      -3.704  -0.705   4.557  0.00  0.00    +0.024 A 
ATOM     30  C   UNL     1      -4.964  -0.771   5.118  0.00  0.00    +0.002 A 
ATOM     31  C   UNL     1      -5.305  -1.836   5.931  0.00  0.00    +0.001 A 
ATOM     32  C   UNL     1      -4.387  -2.838   6.186  0.00  0.00    +0.017 A 
ATOM     33  C   UNL     1      -3.126  -2.780   5.624  0.00  0.00    +0.039 A 
ATOM     34 BR   UNL     1      -1.872  -4.154   5.967  0.00  0.00    -0.048 Br
ENDBRANCH  25  28
ENDBRANCH  21  22
BRANCH  21  36
ATOM     35  C   UNL     1       0.055  -0.366  -1.229  0.00  0.00    +0.009 C 
ATOM     36  C   UNL     1      -0.304  -1.083   0.074  0.00  0.00    +0.012 C 
ATOM     37  C   UNL     1       0.424  -2.427   0.133  0.00  0.00    +0.009 C 
ENDBRANCH  21  36
ENDBRANCH   1  21
TORSDOF 5
