REMARK  Name = ZINC48571855
REMARK  8 active torsions:
REMARK  status: ('A' for Active; 'I' for Inactive)
REMARK    1  A    between atoms: C_1  and  C_2
REMARK    2  A    between atoms: C_2  and  C_24
REMARK    3  A    between atoms: N_3  and  N_4
REMARK    4  A    between atoms: C_5  and  C_7
REMARK    5  A    between atoms: C_10  and  N_13
REMARK    6  A    between atoms: N_13  and  S_14
REMARK    7  A    between atoms: S_14  and  C_17
REMARK    8  A    between atoms: C_25  and  C_26
REMARK                            x       y       z     vdW  Elec       q    Type
REMARK                         _______ _______ _______ _____ _____    ______ ____
ROOT
ATOM      1  C   UNL     1       0.046   0.083   4.788  0.00  0.00    +0.038 A 
ATOM      2  C   UNL     1       0.021   1.481   4.798  0.00  0.00    +0.015 A 
ATOM      3  C   UNL     1       0.023   2.159   5.995  0.00  0.00    +0.027 A 
ATOM      4  C   UNL     1       0.049   1.456   7.195  0.00  0.00    +0.074 A 
ATOM      5  C   UNL     1       0.074   0.064   7.189  0.00  0.00    +0.027 A 
ATOM      6  C   UNL     1       0.067  -0.621   5.996  0.00  0.00    +0.015 A 
ENDROOT
BRANCH   1   8
ATOM      7  N   UNL     1       0.024   0.033   2.344  0.00  0.00    -0.203 N 
ATOM      8  C   UNL     1       0.044  -0.647   3.507  0.00  0.00    +0.263 C 
ATOM      9  O   UNL     1       0.060  -1.864   3.500  0.00  0.00    -0.268 OA
ATOM     10  H   UNL     1       0.011   1.002   2.349  0.00  0.00    +0.178 HD
BRANCH   7  13
ATOM     11  C   UNL     1      -0.018   1.503   0.010  0.00  0.00    +0.067 C 
ATOM     12  C   UNL     1       0.002  -0.004   0.002  0.00  0.00    +0.056 C 
ATOM     13  N   UNL     1       0.022  -0.661   1.126  0.00  0.00    -0.185 NA
BRANCH  12  14
ATOM     14  C   UNL     1       0.000  -0.706  -1.230  0.00  0.00    +0.025 C 
ATOM     15  C   UNL     1       0.018  -2.055  -1.237  0.00  0.00    +0.010 C 
BRANCH  15  16
ATOM     16  C   UNL     1       0.016  -2.784  -2.516  0.00  0.00    -0.025 A 
ATOM     17  C   UNL     1       0.001  -2.082  -3.725  0.00  0.00    +0.008 A 
ATOM     18  C   UNL     1      -0.001  -2.772  -4.919  0.00  0.00    +0.001 A 
ATOM     19  C   UNL     1       0.012  -4.156  -4.922  0.00  0.00    +0.000 A 
ATOM     20  C   UNL     1       0.027  -4.858  -3.730  0.00  0.00    +0.001 A 
ATOM     21  C   UNL     1       0.035  -4.182  -2.528  0.00  0.00    +0.008 A 
ENDBRANCH  15  16
ENDBRANCH  12  14
ENDBRANCH   7  13
ENDBRANCH   1   8
BRANCH   4  22
ATOM     22  N   UNL     1       0.051   2.144   8.403  0.00  0.00    -0.098 NA
BRANCH  22  23
ATOM     23  S   UNL     1       0.083   1.309   9.833  0.00  0.00    +0.092 S 
ATOM     24  O   UNL     1      -1.150   0.607   9.920  0.00  0.00    -0.148 OA
ATOM     25  O   UNL     1       1.341   0.650   9.891  0.00  0.00    -0.148 OA
BRANCH  23  26
ATOM     26  C   UNL     1       0.077   2.499  11.132  0.00  0.00    +0.110 A 
ATOM     27  C   UNL     1       1.272   2.991  11.624  0.00  0.00    +0.030 A 
ATOM     28  C   UNL     1       1.268   3.924  12.643  0.00  0.00    +0.022 A 
ATOM     29  C   UNL     1       0.068   4.367  13.171  0.00  0.00    +0.041 A 
ATOM     30  C   UNL     1      -1.127   3.874  12.679  0.00  0.00    +0.022 A 
ATOM     31  C   UNL     1      -1.122   2.945  11.656  0.00  0.00    +0.030 A 
ATOM     32 CL   UNL     1       0.063   5.539  14.452  0.00  0.00    -0.084 Cl
ENDBRANCH  23  26
ENDBRANCH  22  23
ENDBRANCH   4  22
TORSDOF 7
