REMARK  Name = ZINC64303998
REMARK  9 active torsions:
REMARK  status: ('A' for Active; 'I' for Inactive)
REMARK    1  A    between atoms: C_1  and  C_2
REMARK    2  A    between atoms: C_2  and  C_3
REMARK    3  A    between atoms: C_2  and  N_4
REMARK    4  A    between atoms: C_5  and  C_7
REMARK    5  A    between atoms: C_10  and  N_13
REMARK    6  A    between atoms: C_14  and  C_16
REMARK    7  A    between atoms: N_18  and  C_19
REMARK    8  A    between atoms: N_22  and  C_25
REMARK    9  A    between atoms: C_25  and  C_26
REMARK                            x       y       z     vdW  Elec       q    Type
REMARK                         _______ _______ _______ _____ _____    ______ ____
ROOT
ATOM      1  N   UNL     1       5.894  -1.934  -4.675  0.00  0.00    -0.278 N 
ATOM      2  C   UNL     1       7.206  -2.090  -4.942  0.00  0.00    +0.303 C 
ATOM      3  O   UNL     1       8.028  -1.919  -4.067  0.00  0.00    -0.265 OA
ATOM      4  H   UNL     1       5.232  -2.144  -5.352  0.00  0.00    +0.155 HD
ENDROOT
BRANCH   1   8
ATOM      5  C   UNL     1       4.682  -0.551  -0.939  0.00  0.00    +0.037 A 
ATOM      6  C   UNL     1       5.879  -0.097  -1.499  0.00  0.00    +0.015 A 
ATOM      7  C   UNL     1       6.277  -0.556  -2.734  0.00  0.00    +0.024 A 
ATOM      8  C   UNL     1       5.489  -1.472  -3.425  0.00  0.00    +0.034 A 
ATOM      9  C   UNL     1       4.296  -1.925  -2.870  0.00  0.00    +0.024 A 
ATOM     10  C   UNL     1       3.895  -1.474  -1.633  0.00  0.00    +0.015 A 
BRANCH   5  12
ATOM     11  N   UNL     1       5.012   0.830   1.054  0.00  0.00    -0.309 N 
ATOM     12  C   UNL     1       4.252  -0.061   0.386  0.00  0.00    +0.244 C 
ATOM     13  O   UNL     1       3.213  -0.460   0.874  0.00  0.00    -0.270 OA
ATOM     14  H   UNL     1       5.841   1.148   0.664  0.00  0.00    +0.149 HD
BRANCH  11  16
ATOM     15  C   UNL     1       5.045   0.335   3.449  0.00  0.00    +0.027 C 
ATOM     16  C   UNL     1       4.586   1.316   2.368  0.00  0.00    +0.067 C 
ATOM     17  C   UNL     1       5.207   2.690   2.630  0.00  0.00    +0.027 C 
ENDBRANCH  11  16
ENDBRANCH   5  12
ENDBRANCH   1   8
BRANCH   2  18
ATOM     18  C   UNL     1       7.647  -2.474  -6.317  0.00  0.00    +0.300 C 
ATOM     19  O   UNL     1       6.824  -2.645  -7.192  0.00  0.00    -0.265 OA
ATOM     20  N   UNL     1       8.959  -2.630  -6.585  0.00  0.00    -0.305 N 
ATOM     21  H   UNL     1       9.616  -2.493  -5.885  0.00  0.00    +0.149 HD
BRANCH  20  22
ATOM     22  C   UNL     1       9.391  -3.006  -7.933  0.00  0.00    +0.070 C 
ATOM     23  C   UNL     1       9.340  -4.529  -8.081  0.00  0.00    +0.003 C 
ATOM     24  C   UNL     1       9.868  -4.920  -9.463  0.00  0.00    -0.077 C 
ATOM     25  N   UNL     1      11.254  -4.460  -9.609  0.00  0.00    +0.383 N 
ATOM     26  C   UNL     1      11.302  -2.994  -9.540  0.00  0.00    -0.077 C 
ATOM     27  C   UNL     1      10.829  -2.529  -8.161  0.00  0.00    +0.003 C 
ATOM     28  H   UNL     1      11.817  -4.849  -8.867  0.00  0.00    -0.082 HD
BRANCH  25  29
ATOM     29  C   UNL     1      11.782  -4.905 -10.906  0.00  0.00    -0.006 C 
BRANCH  29  30
ATOM     30  C   UNL     1      11.910  -6.429 -10.908  0.00  0.00    +0.325 C 
ATOM     31  F   UNL     1      12.660  -6.836  -9.799  0.00  0.00    -0.211 F 
ATOM     32  F   UNL     1      10.637  -7.005 -10.846  0.00  0.00    -0.211 F 
ENDBRANCH  29  30
ENDBRANCH  25  29
ENDBRANCH  20  22
ENDBRANCH   2  18
TORSDOF 7
