REMARK  Name = ZINC45950153
REMARK  9 active torsions:
REMARK  status: ('A' for Active; 'I' for Inactive)
REMARK    1  A    between atoms: C_1  and  C_2
REMARK    2  A    between atoms: C_4  and  N_12
REMARK    3  A    between atoms: C_7  and  N_8
REMARK    4  A    between atoms: C_9  and  C_11
REMARK    5  A    between atoms: C_13  and  C_15
REMARK    6  A    between atoms: C_19  and  S_21
REMARK    7  A    between atoms: S_21  and  N_24
REMARK    8  A    between atoms: N_24  and  C_25
REMARK    9  A    between atoms: N_24  and  C_26
REMARK                            x       y       z     vdW  Elec       q    Type
REMARK                         _______ _______ _______ _____ _____    ______ ____
ROOT
ATOM      1  C   UNL     1       0.774  -4.450  -3.325  0.00  0.00    +0.039 A 
ATOM      2  C   UNL     1       0.467  -3.875  -4.560  0.00  0.00    +0.013 A 
ATOM      3  C   UNL     1       0.129  -4.680  -5.627  0.00  0.00    +0.003 A 
ATOM      4  C   UNL     1       0.093  -6.056  -5.476  0.00  0.00    +0.029 A 
ATOM      5  C   UNL     1       0.396  -6.632  -4.255  0.00  0.00    +0.109 A 
ATOM      6  C   UNL     1       0.742  -5.838  -3.181  0.00  0.00    +0.042 A 
ENDROOT
BRANCH   1   8
ATOM      7  N   UNL     1       1.169  -2.253  -2.319  0.00  0.00    -0.281 N 
ATOM      8  C   UNL     1       1.138  -3.593  -2.177  0.00  0.00    +0.248 C 
ATOM      9  O   UNL     1       1.410  -4.096  -1.105  0.00  0.00    -0.270 OA
ATOM     10  H   UNL     1       1.019  -1.854  -3.191  0.00  0.00    +0.155 HD
BRANCH   7  14
ATOM     11  C   UNL     1       3.503  -1.503   1.942  0.00  0.00    +0.046 C 
ATOM     12  C   UNL     1       2.544  -1.049   0.871  0.00  0.00    -0.027 A 
ATOM     13  C   UNL     1       2.300  -1.855  -0.223  0.00  0.00    +0.028 A 
ATOM     14  C   UNL     1       1.416  -1.436  -1.209  0.00  0.00    +0.034 A 
ATOM     15  C   UNL     1       0.778  -0.208  -1.095  0.00  0.00    +0.025 A 
ATOM     16  C   UNL     1       1.023   0.597  -0.001  0.00  0.00    +0.025 A 
ATOM     17  C   UNL     1       1.902   0.177   0.988  0.00  0.00    +0.036 A 
BRANCH  17  18
ATOM     18  N   UNL     1       2.146   0.991   2.102  0.00  0.00    -0.285 N 
ATOM     19  C   UNL     1       2.027   2.329   1.996  0.00  0.00    +0.214 C 
ATOM     20  O   UNL     1       1.628   2.823   0.963  0.00  0.00    -0.276 OA
ATOM     21  C   UNL     1       2.390   3.212   3.163  0.00  0.00    +0.109 C 
ATOM     22  H   UNL     1       2.400   0.592   2.948  0.00  0.00    +0.155 HD
ENDBRANCH  17  18
ENDBRANCH   7  14
ENDBRANCH   1   8
BRANCH   5  23
ATOM     23  S   UNL     1       0.348  -8.384  -4.074  0.00  0.00    +0.074 S 
ATOM     24  O   UNL     1       0.141  -8.643  -2.692  0.00  0.00    -0.150 OA
ATOM     25  O   UNL     1      -0.528  -8.872  -5.080  0.00  0.00    -0.150 OA
BRANCH  23  26
ATOM     26  N   UNL     1       1.858  -8.956  -4.442  0.00  0.00    -0.206 N 
ATOM     27  C   UNL     1       2.834  -9.186  -3.374  0.00  0.00    +0.157 C 
BRANCH  26  28
ATOM     28  C   UNL     1       2.200  -9.219  -5.770  0.00  0.00    +0.052 A 
ATOM     29  C   UNL     1       3.273  -8.559  -6.356  0.00  0.00    +0.025 A 
ATOM     30  C   UNL     1       3.610  -8.822  -7.670  0.00  0.00    +0.003 A 
ATOM     31  C   UNL     1       2.880  -9.741  -8.402  0.00  0.00    +0.020 A 
ATOM     32  C   UNL     1       1.811 -10.400  -7.822  0.00  0.00    +0.043 A 
ATOM     33  C   UNL     1       1.472 -10.145  -6.506  0.00  0.00    +0.044 A 
ATOM     34 CL   UNL     1       0.897 -11.552  -8.745  0.00  0.00    -0.083 Cl
ENDBRANCH  26  28
ENDBRANCH  23  26
ENDBRANCH   5  23
TORSDOF 6
