REMARK  Name = ZINC36050191
REMARK  13 active torsions:
REMARK  status: ('A' for Active; 'I' for Inactive)
REMARK    1  A    between atoms: C_1  and  C_2
REMARK    2  A    between atoms: C_2  and  C_3
REMARK    3  A    between atoms: C_3  and  C_5
REMARK    4  A    between atoms: C_3  and  N_6
REMARK    5  A    between atoms: N_6  and  C_7
REMARK    6  A    between atoms: C_9  and  C_10
REMARK    7  A    between atoms: C_15  and  C_35
REMARK    8  A    between atoms: C_16  and  C_30
REMARK    9  A    between atoms: C_17  and  C_20
REMARK   10  A    between atoms: C_23  and  C_26
REMARK   11  A    between atoms: C_30  and  O_32
REMARK   12  A    between atoms: O_32  and  C_33
REMARK   13  A    between atoms: C_33  and  C_34
REMARK                            x       y       z     vdW  Elec       q    Type
REMARK                         _______ _______ _______ _____ _____    ______ ____
ROOT
ATOM      1  C   UNL     1       0.338  -0.006  -5.756  0.00  0.00    +0.048 C 
ATOM      2  C   UNL     1      -0.529   0.234  -6.764  0.00  0.00    +0.072 C 
ATOM      3  S   UNL     1       0.567   0.419  -8.157  0.00  0.00    -0.060 S 
ATOM      4  C   UNL     1       2.028   0.181  -7.368  0.00  0.00    +0.166 C 
ATOM      5  N   UNL     1       3.269   0.184  -7.810  0.00  0.00    -0.230 NA
ATOM      6  C   UNL     1       4.339  -0.021  -7.058  0.00  0.00    +0.053 C 
ATOM      7  C   UNL     1       4.207  -0.261  -5.704  0.00  0.00    +0.082 C 
ATOM      8  C   UNL     1       2.811  -0.279  -5.123  0.00  0.00    +0.150 C 
ATOM      9  N   UNL     1       1.684  -0.030  -6.062  0.00  0.00    -0.267 N 
ATOM     10  C   UNL     1       5.709   0.006  -7.684  0.00  0.00    +0.066 C 
ENDROOT
BRANCH   8  11
ATOM     11  C   UNL     1       2.745   0.767  -4.040  0.00  0.00    -0.022 A 
ATOM     12  C   UNL     1       2.696   2.107  -4.376  0.00  0.00    +0.006 A 
ATOM     13  C   UNL     1       2.636   3.067  -3.383  0.00  0.00    +0.013 A 
ATOM     14  C   UNL     1       2.624   2.686  -2.054  0.00  0.00    +0.055 A 
ATOM     15  C   UNL     1       2.673   1.346  -1.718  0.00  0.00    +0.013 A 
ATOM     16  C   UNL     1       2.729   0.386  -2.712  0.00  0.00    +0.006 A 
BRANCH  14  17
ATOM     17  C   UNL     1       2.560   3.732  -0.971  0.00  0.00    +0.417 C 
ATOM     18  F   UNL     1       1.222   4.002  -0.663  0.00  0.00    -0.166 F 
ATOM     19  F   UNL     1       3.216   3.262   0.171  0.00  0.00    -0.166 F 
ATOM     20  F   UNL     1       3.181   4.904  -1.417  0.00  0.00    -0.166 F 
ENDBRANCH  14  17
ENDBRANCH   8  11
BRANCH   1  23
ATOM     21  C   UNL     1      -1.439  -0.072  -4.085  0.00  0.00    +0.239 C 
ATOM     22  O   UNL     1      -2.333   0.180  -5.072  0.00  0.00    -0.271 OA
ATOM     23  C   UNL     1      -0.135  -0.228  -4.382  0.00  0.00    +0.091 C 
BRANCH  21  24
ATOM     24  N   UNL     1      -1.867  -0.170  -2.772  0.00  0.00    -0.309 N 
ATOM     25  H   UNL     1      -1.219  -0.276  -2.058  0.00  0.00    +0.149 HD
BRANCH  24  26
ATOM     26  C   UNL     1      -3.297  -0.113  -2.462  0.00  0.00    +0.070 C 
ATOM     27  C   UNL     1      -3.721   1.346  -2.277  0.00  0.00    +0.028 C 
BRANCH  26  29
ATOM     28  C   UNL     1      -3.264  -2.372  -1.396  0.00  0.00    +0.005 C 
ATOM     29  C   UNL     1      -3.571  -0.890  -1.172  0.00  0.00    +0.018 C 
ENDBRANCH  26  29
ENDBRANCH  24  26
ENDBRANCH  21  24
ENDBRANCH   1  23
BRANCH   7  30
ATOM     30  C   UNL     1       5.330  -0.480  -4.896  0.00  0.00    +0.339 C 
ATOM     31  O   UNL     1       6.446  -0.462  -5.385  0.00  0.00    -0.245 OA
BRANCH  30  32
ATOM     32  O   UNL     1       5.175  -0.713  -3.574  0.00  0.00    -0.462 OA
BRANCH  32  33
ATOM     33  C   UNL     1       6.364  -0.928  -2.810  0.00  0.00    +0.229 C 
ATOM     34  C   UNL     1       5.992  -1.173  -1.346  0.00  0.00    +0.048 C 
ENDBRANCH  32  33
ENDBRANCH  30  32
ENDBRANCH   7  30
TORSDOF 9
