REMARK  Name = ZINC10505479
REMARK  8 active torsions:
REMARK  status: ('A' for Active; 'I' for Inactive)
REMARK    1  A    between atoms: C_1  and  C_2
REMARK    2  A    between atoms: C_2  and  C_4
REMARK    3  A    between atoms: C_2  and  N_10
REMARK    4  A    between atoms: C_11  and  C_13
REMARK    5  A    between atoms: C_18  and  N_19
REMARK    6  A    between atoms: N_19  and  C_20
REMARK    7  A    between atoms: C_20  and  N_22
REMARK    8  A    between atoms: C_23  and  C_25
REMARK                            x       y       z     vdW  Elec       q    Type
REMARK                         _______ _______ _______ _____ _____    ______ ____
ROOT
ATOM      1  C   UNL     1      -3.760  10.009   0.275  0.00  0.00    +0.058 A 
ATOM      2  C   UNL     1      -3.819  11.400   0.383  0.00  0.00    +0.015 A 
ATOM      3  C   UNL     1      -2.656  12.140   0.368  0.00  0.00    +0.001 A 
ATOM      4  C   UNL     1      -1.428  11.511   0.247  0.00  0.00    +0.002 A 
ATOM      5  C   UNL     1      -1.353  10.137   0.144  0.00  0.00    +0.024 A 
ATOM      6  C   UNL     1      -2.514   9.375   0.152  0.00  0.00    +0.045 A 
ENDROOT
BRANCH   1   8
ATOM      7  N   UNL     1      -6.199   9.827   0.296  0.00  0.00    -0.305 N 
ATOM      8  C   UNL     1      -5.000   9.210   0.290  0.00  0.00    +0.246 C 
ATOM      9  O   UNL     1      -4.941   7.996   0.298  0.00  0.00    -0.270 OA
ATOM     10  H   UNL     1      -6.245  10.796   0.290  0.00  0.00    +0.150 HD
BRANCH   7  12
ATOM     11  C   UNL     1      -7.803   8.643  -1.119  0.00  0.00    +0.033 C 
ATOM     12  C   UNL     1      -7.430   9.034   0.312  0.00  0.00    +0.100 C 
BRANCH  12  13
ATOM     13  C   UNL     1      -8.545   9.849   0.917  0.00  0.00    -0.027 A 
ATOM     14  C   UNL     1      -8.656  11.195   0.620  0.00  0.00    +0.005 A 
ATOM     15  C   UNL     1      -9.681  11.941   1.171  0.00  0.00    +0.000 A 
ATOM     16  C   UNL     1     -10.589  11.344   2.026  0.00  0.00    +0.000 A 
ATOM     17  C   UNL     1     -10.474  10.000   2.326  0.00  0.00    +0.000 A 
ATOM     18  C   UNL     1      -9.452   9.252   1.772  0.00  0.00    +0.005 A 
ENDBRANCH  12  13
ENDBRANCH   7  12
ENDBRANCH   1   8
BRANCH   6  19
ATOM     19  N   UNL     1      -2.442   7.989   0.044  0.00  0.00    -0.296 N 
ATOM     20  H   UNL     1      -3.019   7.520  -0.579  0.00  0.00    +0.154 HD
BRANCH  19  21
ATOM     21  C   UNL     1      -1.570   7.299   0.805  0.00  0.00    +0.141 C 
ATOM     22  S   UNL     1      -0.468   8.133   1.815  0.00  0.00    -0.018 S 
BRANCH  21  23
ATOM     23  N   UNL     1      -1.566   5.951   0.772  0.00  0.00    -0.264 N 
ATOM     24  C   UNL     1      -0.695   5.261   1.533  0.00  0.00    +0.250 C 
ATOM     25  O   UNL     1       0.088   5.853   2.250  0.00  0.00    -0.270 OA
ATOM     26  H   UNL     1      -2.191   5.479   0.200  0.00  0.00    +0.157 HD
BRANCH  24  27
ATOM     27  C   UNL     1      -0.690   3.783   1.496  0.00  0.00    +0.040 A 
ATOM     28  C   UNL     1       0.212   3.065   2.284  0.00  0.00    +0.033 A 
ATOM     29  C   UNL     1       0.211   1.685   2.245  0.00  0.00    +0.043 A 
ATOM     30  C   UNL     1      -0.681   1.013   1.426  0.00  0.00    +0.040 A 
ATOM     31  C   UNL     1      -1.574   1.720   0.639  0.00  0.00    +0.043 A 
ATOM     32  C   UNL     1      -1.588   3.100   0.674  0.00  0.00    +0.033 A 
ATOM     33 CL   UNL     1      -2.684   0.869  -0.389  0.00  0.00    -0.083 Cl
ATOM     34 CL   UNL     1       1.332   0.790   3.223  0.00  0.00    -0.083 Cl
ENDBRANCH  24  27
ENDBRANCH  21  23
ENDBRANCH  19  21
ENDBRANCH   6  19
TORSDOF 7
