REMARK  Name = ZINC17244463
REMARK  6 active torsions:
REMARK  status: ('A' for Active; 'I' for Inactive)
REMARK    1  A    between atoms: C_1  and  C_2
REMARK    2  A    between atoms: C_5  and  C_34
REMARK    3  A    between atoms: N_8  and  S_10
REMARK    4  A    between atoms: S_10  and  C_13
REMARK    5  A    between atoms: C_16  and  C_19
REMARK    6  A    between atoms: N_21  and  N_22
REMARK                            x       y       z     vdW  Elec       q    Type
REMARK                         _______ _______ _______ _____ _____    ______ ____
ROOT
ATOM      1  C   UNL     1      -1.253   1.526   4.835  0.00  0.00    +0.106 A 
ATOM      2  C   UNL     1      -0.453   1.981   5.867  0.00  0.00    +0.029 A 
ATOM      3  C   UNL     1      -0.940   2.908   6.766  0.00  0.00    +0.015 A 
ATOM      4  C   UNL     1      -2.248   3.379   6.637  0.00  0.00    +0.038 A 
ATOM      5  C   UNL     1      -3.052   2.912   5.597  0.00  0.00    +0.015 A 
ATOM      6  C   UNL     1      -2.551   1.989   4.702  0.00  0.00    +0.029 A 
ENDROOT
BRANCH   4   7
ATOM      7  C   UNL     1      -2.778   4.368   7.599  0.00  0.00    +0.260 C 
ATOM      8  O   UNL     1      -3.917   4.777   7.485  0.00  0.00    -0.269 OA
ATOM      9  N   UNL     1      -1.999   4.817   8.603  0.00  0.00    -0.231 N 
ATOM     10  H   UNL     1      -0.968   4.447   8.707  0.00  0.00    +0.173 HD
BRANCH   9  11
ATOM     11  N   UNL     1      -2.502   5.755   9.515  0.00  0.00    -0.242 N 
ATOM     12  C   UNL     1      -1.703   6.215  10.543  0.00  0.00    +0.176 A 
ATOM     13  N   UNL     1      -0.464   5.891  10.831  0.00  0.00    -0.221 NA
ATOM     14  C   UNL     1       0.203   6.430  11.878  0.00  0.00    +0.116 A 
ATOM     15  C   UNL     1       1.532   6.174  12.292  0.00  0.00    +0.152 A 
ATOM     16  C   UNL     1       2.059   6.807  13.390  0.00  0.00    +0.079 A 
ATOM     17  C   UNL     1       1.313   7.716  14.130  0.00  0.00    +0.127 A 
ATOM     18  C   UNL     1       0.009   7.989  13.751  0.00  0.00    +0.055 A 
ATOM     19  C   UNL     1      -0.525   7.359  12.653  0.00  0.00    +0.046 A 
ATOM     20  S   UNL     1      -2.096   7.396  11.825  0.00  0.00    -0.051 S 
ATOM     21  F   UNL     1       1.853   8.327  15.206  0.00  0.00    -0.205 F 
ATOM     22  F   UNL     1       2.290   5.296  11.599  0.00  0.00    -0.203 F 
ATOM     23  H   UNL     1      -3.532   6.125   9.411  0.00  0.00    +0.172 HD
ENDBRANCH   9  11
ENDBRANCH   4   7
BRANCH   1  24
ATOM     24  S   UNL     1      -0.621   0.347   3.688  0.00  0.00    +0.061 S 
ATOM     25  O   UNL     1      -1.744  -0.332   3.144  0.00  0.00    -0.153 OA
ATOM     26  O   UNL     1       0.435  -0.336   4.349  0.00  0.00    -0.153 OA
BRANCH  24  32
ATOM     27  C   UNL     1       3.619   1.586   1.189  0.00  0.00    +0.009 C 
ATOM     28  C   UNL     1       2.175   1.082   1.218  0.00  0.00    +0.002 C 
ATOM     29  C   UNL     1       1.423   1.616  -0.003  0.00  0.00    +0.009 C 
ATOM     30  C   UNL     1      -0.013   1.086   0.008  0.00  0.00    +0.002 C 
ATOM     31  C   UNL     1      -0.726   1.581   1.270  0.00  0.00    +0.112 C 
ATOM     32  N   UNL     1       0.069   1.195   2.444  0.00  0.00    -0.176 NA
ATOM     33  C   UNL     1       1.486   1.577   2.494  0.00  0.00    +0.112 C 
ATOM     34  C   UNL     1      -0.754   1.593  -1.230  0.00  0.00    +0.009 C 
ENDBRANCH  24  32
ENDBRANCH   1  24
TORSDOF 4
