REMARK  Name = ZINC22346562
REMARK  13 active torsions:
REMARK  status: ('A' for Active; 'I' for Inactive)
REMARK    1  A    between atoms: C_1  and  C_2
REMARK    2  A    between atoms: C_2  and  O_3
REMARK    3  A    between atoms: O_3  and  C_4
REMARK    4  A    between atoms: C_7  and  S_10
REMARK    5  A    between atoms: S_10  and  N_13
REMARK    6  A    between atoms: N_13  and  C_14
REMARK    7  A    between atoms: N_13  and  C_34
REMARK    8  A    between atoms: C_14  and  C_15
REMARK    9  A    between atoms: N_17  and  C_18
REMARK   10  A    between atoms: C_18  and  C_20
REMARK   11  A    between atoms: C_18  and  C_21
REMARK   12  A    between atoms: C_24  and  N_27
REMARK   13  A    between atoms: C_30  and  C_33
REMARK                            x       y       z     vdW  Elec       q    Type
REMARK                         _______ _______ _______ _____ _____    ______ ____
ROOT
ATOM      1  C   UNL     1       5.822   2.112   2.642  0.00  0.00    +0.227 C 
ENDROOT
BRANCH   1   2
ATOM      2  C   UNL     1       4.455   1.959   2.026  0.00  0.00    +0.233 C 
ATOM      3  O   UNL     1       4.045   0.858   1.725  0.00  0.00    -0.274 OA
ATOM      4  N   UNL     1       3.689   3.046   1.809  0.00  0.00    -0.307 N 
ATOM      5  H   UNL     1       4.061   4.045   2.081  0.00  0.00    +0.149 HD
BRANCH   4   6
ATOM      6  C   UNL     1       2.360   2.898   1.210  0.00  0.00    +0.100 C 
ATOM      7  C   UNL     1       2.488   2.865  -0.314  0.00  0.00    +0.033 C 
BRANCH   6   8
ATOM      8  C   UNL     1       1.493   4.061   1.617  0.00  0.00    -0.027 A 
ATOM      9  C   UNL     1       0.164   3.853   1.937  0.00  0.00    +0.007 A 
ATOM     10  C   UNL     1      -0.635   4.918   2.304  0.00  0.00    +0.023 A 
ATOM     11  C   UNL     1      -0.099   6.198   2.363  0.00  0.00    +0.030 A 
ATOM     12  C   UNL     1       1.236   6.404   2.040  0.00  0.00    +0.023 A 
ATOM     13  C   UNL     1       2.028   5.335   1.668  0.00  0.00    +0.007 A 
BRANCH  11  14
ATOM     14  N   UNL     1      -0.903   7.276   2.739  0.00  0.00    -0.330 N 
ATOM     15  C   UNL     1      -0.319   7.995   3.879  0.00  0.00    +0.105 C 
ATOM     16  C   UNL     1      -1.146   9.249   4.171  0.00  0.00    +0.022 C 
ATOM     17  C   UNL     1      -2.588   8.843   4.484  0.00  0.00    -0.011 C 
ATOM     18  C   UNL     1      -3.157   8.055   3.301  0.00  0.00    +0.022 C 
ATOM     19  C   UNL     1      -2.272   6.835   3.035  0.00  0.00    +0.105 C 
ATOM     20  C   UNL     1      -3.434  10.097   4.716  0.00  0.00    +0.007 C 
ENDBRANCH  11  14
ENDBRANCH   6   8
ENDBRANCH   4   6
ENDBRANCH   1   2
BRANCH   1  21
ATOM     21  N   UNL     1       6.449   0.795   2.772  0.00  0.00    -0.194 N 
BRANCH  21  22
ATOM     22  C   UNL     1       6.181   0.002   3.890  0.00  0.00    +0.052 A 
ATOM     23  C   UNL     1       7.222  -0.430   4.703  0.00  0.00    +0.025 A 
ATOM     24  C   UNL     1       6.953  -1.210   5.810  0.00  0.00    +0.002 A 
ATOM     25  C   UNL     1       5.651  -1.571   6.104  0.00  0.00    +0.000 A 
ATOM     26  C   UNL     1       4.613  -1.147   5.294  0.00  0.00    +0.002 A 
ATOM     27  C   UNL     1       4.875  -0.363   4.188  0.00  0.00    +0.025 A 
ENDBRANCH  21  22
BRANCH  21  28
ATOM     28  S   UNL     1       7.476   0.246   1.594  0.00  0.00    +0.075 S 
ATOM     29  O   UNL     1       7.582  -1.160   1.770  0.00  0.00    -0.150 OA
ATOM     30  O   UNL     1       7.042   0.830   0.373  0.00  0.00    -0.150 OA
BRANCH  28  34
ATOM     31  C   UNL     1      11.569   1.972   2.473  0.00  0.00    +0.121 A 
ATOM     32  C   UNL     1      11.244   0.696   2.910  0.00  0.00    +0.047 A 
ATOM     33  C   UNL     1       9.995   0.172   2.640  0.00  0.00    +0.032 A 
ATOM     34  C   UNL     1       9.068   0.918   1.936  0.00  0.00    +0.109 A 
ATOM     35  C   UNL     1       9.391   2.188   1.495  0.00  0.00    +0.032 A 
ATOM     36  C   UNL     1      10.637   2.719   1.766  0.00  0.00    +0.047 A 
BRANCH  31  37
ATOM     37  O   UNL     1      12.797   2.491   2.737  0.00  0.00    -0.492 OA
BRANCH  37  39
ATOM     38  C   UNL     1      14.482   4.220   2.647  0.00  0.00    +0.048 C 
ATOM     39  C   UNL     1      13.061   3.811   2.257  0.00  0.00    +0.225 C 
ENDBRANCH  37  39
ENDBRANCH  31  37
ENDBRANCH  28  34
ENDBRANCH  21  28
ENDBRANCH   1  21
TORSDOF 10
