REMARK  Name = ZINC10470012
REMARK  5 active torsions:
REMARK  status: ('A' for Active; 'I' for Inactive)
REMARK    1  A    between atoms: C_4  and  C_15
REMARK    2  A    between atoms: C_5  and  S_6
REMARK    3  A    between atoms: S_6  and  N_9
REMARK    4  A    between atoms: N_17  and  N_18
REMARK    5  A    between atoms: C_19  and  C_21
REMARK                            x       y       z     vdW  Elec       q    Type
REMARK                         _______ _______ _______ _____ _____    ______ ____
ROOT
ATOM      1  C   UNL     1       1.708  -2.367  -0.804  0.00  0.00    +0.269 C 
ATOM      2  O   UNL     1       1.161  -2.196   0.270  0.00  0.00    -0.268 OA
ATOM      3  N   UNL     1       1.095  -3.085  -1.766  0.00  0.00    -0.230 N 
ATOM      4  H   UNL     1       1.531  -3.221  -2.621  0.00  0.00    +0.173 HD
ENDROOT
BRANCH   1   8
ATOM      5  C   UNL     1       5.069  -0.673  -0.673  0.00  0.00    +0.037 A 
ATOM      6  C   UNL     1       5.387  -0.935  -1.968  0.00  0.00    +0.048 A 
ATOM      7  S   UNL     1       4.000  -1.797  -2.550  0.00  0.00    -0.090 S 
ATOM      8  C   UNL     1       3.034  -1.793  -1.050  0.00  0.00    +0.102 A 
ATOM      9  C   UNL     1       3.862  -1.102  -0.180  0.00  0.00    +0.125 A 
BRANCH   9  10
ATOM     10  S   UNL     1       3.391  -0.795   1.490  0.00  0.00    +0.062 S 
ATOM     11  O   UNL     1       3.641  -1.995   2.210  0.00  0.00    -0.153 OA
ATOM     12  O   UNL     1       2.107  -0.188   1.444  0.00  0.00    -0.153 OA
BRANCH  10  13
ATOM     13  N   UNL     1       4.431   0.344   2.091  0.00  0.00    -0.177 NA
ATOM     14  C   UNL     1       4.193   1.774   1.855  0.00  0.00    +0.109 C 
ATOM     15  C   UNL     1       5.454   2.389   1.240  0.00  0.00    +0.017 C 
ATOM     16  C   UNL     1       6.654   2.092   2.143  0.00  0.00    +0.003 C 
ATOM     17  C   UNL     1       6.855   0.579   2.245  0.00  0.00    +0.017 C 
ATOM     18  C   UNL     1       5.610  -0.057   2.871  0.00  0.00    +0.109 C 
ENDBRANCH  10  13
ENDBRANCH   9  10
ENDBRANCH   1   8
BRANCH   3  19
ATOM     19  N   UNL     1      -0.172  -3.634  -1.530  0.00  0.00    -0.230 N 
ATOM     20  C   UNL     1      -0.785  -4.352  -2.492  0.00  0.00    +0.267 C 
ATOM     21  O   UNL     1      -0.238  -4.523  -3.566  0.00  0.00    -0.268 OA
ATOM     22  H   UNL     1      -0.608  -3.497  -0.675  0.00  0.00    +0.173 HD
BRANCH  20  23
ATOM     23  C   UNL     1      -2.111  -4.926  -2.246  0.00  0.00    +0.076 A 
ATOM     24  C   UNL     1      -2.904  -5.686  -3.088  0.00  0.00    +0.024 A 
ATOM     25  C   UNL     1      -4.133  -6.122  -2.610  0.00  0.00    -0.036 A 
ATOM     26  C   UNL     1      -4.468  -5.739  -1.357  0.00  0.00    -0.006 A 
ATOM     27  S   UNL     1      -3.123  -4.836  -0.777  0.00  0.00    -0.088 S 
ATOM     28  C   UNL     1      -5.762  -6.037  -0.636  0.00  0.00    +0.043 C 
ATOM     29  C   UNL     1      -5.787  -7.549  -0.352  0.00  0.00    +0.005 C 
ATOM     30  C   UNL     1      -6.182  -8.309  -1.597  0.00  0.00    +0.001 C 
ATOM     31  C   UNL     1      -5.159  -8.366  -2.702  0.00  0.00    +0.005 C 
ATOM     32  C   UNL     1      -5.041  -7.034  -3.445  0.00  0.00    +0.036 C 
ENDBRANCH  20  23
ENDBRANCH   3  19
TORSDOF 5
