REMARK  Name = ZINC33009614
REMARK  6 active torsions:
REMARK  status: ('A' for Active; 'I' for Inactive)
REMARK    1  A    between atoms: C_4  and  C_7
REMARK    2  A    between atoms: N_9  and  C_10
REMARK    3  A    between atoms: C_13  and  N_30
REMARK    4  A    between atoms: C_14  and  N_16
REMARK    5  A    between atoms: N_19  and  C_20
REMARK    6  A    between atoms: C_25  and  C_26
REMARK                            x       y       z     vdW  Elec       q    Type
REMARK                         _______ _______ _______ _____ _____    ______ ____
ROOT
ATOM      1  C   UNL     1       6.035  -0.681   0.107  0.00  0.00    +0.036 A 
ATOM      2  C   UNL     1       5.996  -2.070   0.108  0.00  0.00    +0.025 A 
ATOM      3  C   UNL     1       7.170  -2.796   0.165  0.00  0.00    +0.027 A 
ATOM      4  C   UNL     1       8.391  -2.140   0.233  0.00  0.00    +0.051 A 
ATOM      5  C   UNL     1       8.432  -0.746   0.238  0.00  0.00    +0.058 A 
ATOM      6  C   UNL     1       7.253  -0.020   0.175  0.00  0.00    +0.048 A 
ENDROOT
BRANCH   5   7
ATOM      7  N   UNL     1       9.664  -0.081   0.306  0.00  0.00    -0.267 N 
ATOM      8  C   UNL     1       9.780   1.173  -0.173  0.00  0.00    +0.308 C 
ATOM      9  O   UNL     1       8.848   1.689  -0.760  0.00  0.00    -0.252 OA
ATOM     10  N   UNL     1      10.930   1.856  -0.003  0.00  0.00    -0.269 N 
ATOM     11  H   UNL     1      10.536  -0.582   0.752  0.00  0.00    +0.156 HD
ATOM     12  H   UNL     1      11.802   1.361   0.449  0.00  0.00    +0.156 HD
BRANCH  10  13
ATOM     13  C   UNL     1      11.014   3.195  -0.401  0.00  0.00    +0.046 A 
ATOM     14  C   UNL     1       9.906   4.026  -0.289  0.00  0.00    +0.024 A 
ATOM     15  C   UNL     1       9.993   5.347  -0.678  0.00  0.00    +0.002 A 
ATOM     16  C   UNL     1      11.179   5.842  -1.190  0.00  0.00    +0.001 A 
ATOM     17  C   UNL     1      12.282   5.017  -1.308  0.00  0.00    +0.014 A 
ATOM     18  C   UNL     1      12.203   3.695  -0.915  0.00  0.00    +0.076 A 
BRANCH  18  19
ATOM     19  C   UNL     1      13.405   2.796  -1.045  0.00  0.00    +0.419 C 
ATOM     20  F   UNL     1      14.473   3.521  -1.584  0.00  0.00    -0.166 F 
ATOM     21  F   UNL     1      13.761   2.308   0.217  0.00  0.00    -0.166 F 
ATOM     22  F   UNL     1      13.097   1.724  -1.889  0.00  0.00    -0.166 F 
ENDBRANCH  18  19
ENDBRANCH  10  13
ENDBRANCH   5   7
BRANCH   4  23
ATOM     23  N   UNL     1       9.581  -2.877   0.296  0.00  0.00    -0.328 N 
ATOM     24  C   UNL     1       9.781  -3.659  -0.931  0.00  0.00    +0.105 C 
ATOM     25  C   UNL     1      11.154  -4.334  -0.888  0.00  0.00    +0.019 C 
ATOM     26  C   UNL     1      11.231  -5.247   0.339  0.00  0.00    +0.003 C 
ATOM     27  C   UNL     1      10.971  -4.417   1.599  0.00  0.00    +0.019 C 
ATOM     28  C   UNL     1       9.603  -3.739   1.485  0.00  0.00    +0.105 C 
ENDBRANCH   4  23
BRANCH   1  31
ATOM     29  C   UNL     1       3.749  -0.489  -0.528  0.00  0.00    +0.248 C 
ATOM     30  O   UNL     1       3.823  -1.568  -1.083  0.00  0.00    -0.270 OA
ATOM     31  N   UNL     1       4.843   0.051   0.044  0.00  0.00    -0.281 N 
ATOM     32  H   UNL     1       4.800   1.068   0.461  0.00  0.00    +0.155 HD
BRANCH  29  36
ATOM     33  C   UNL     1       0.042   1.579  -0.395  0.00  0.00    +0.000 A 
ATOM     34  C   UNL     1       1.163   2.137   0.193  0.00  0.00    +0.001 A 
ATOM     35  C   UNL     1       2.370   1.470   0.154  0.00  0.00    +0.013 A 
ATOM     36  C   UNL     1       2.459   0.231  -0.481  0.00  0.00    +0.037 A 
ATOM     37  C   UNL     1       1.323  -0.326  -1.073  0.00  0.00    +0.013 A 
ATOM     38  C   UNL     1       0.122   0.351  -1.026  0.00  0.00    +0.001 A 
ENDBRANCH  29  36
ENDBRANCH   1  31
TORSDOF 6
