REMARK  Name = ZINC36050111
REMARK  11 active torsions:
REMARK  status: ('A' for Active; 'I' for Inactive)
REMARK    1  A    between atoms: C_1  and  C_2
REMARK    2  A    between atoms: C_3  and  C_30
REMARK    3  A    between atoms: C_4  and  C_23
REMARK    4  A    between atoms: C_7  and  C_12
REMARK    5  A    between atoms: C_13  and  N_15
REMARK    6  A    between atoms: N_15  and  C_16
REMARK    7  A    between atoms: C_30  and  O_32
REMARK    8  A    between atoms: O_32  and  C_33
REMARK    9  A    between atoms: C_33  and  C_34
REMARK   10  A    between atoms: C_34  and  O_35
REMARK   11  A    between atoms: O_35  and  C_36
REMARK                            x       y       z     vdW  Elec       q    Type
REMARK                         _______ _______ _______ _____ _____    ______ ____
ROOT
ATOM      1  C   UNL     1       0.412   0.784  -1.312  0.00  0.00    +0.066 C 
ATOM      2  C   UNL     1       0.384  -0.711  -1.127  0.00  0.00    +0.053 C 
ATOM      3  C   UNL     1      -0.690  -1.304  -0.491  0.00  0.00    +0.082 C 
ATOM      4  C   UNL     1      -0.672  -2.808  -0.329  0.00  0.00    +0.150 C 
ATOM      5  N   UNL     1       0.508  -3.532  -0.872  0.00  0.00    -0.267 N 
ATOM      6  C   UNL     1       0.735  -4.894  -0.838  0.00  0.00    +0.048 C 
ATOM      7  C   UNL     1       1.879  -5.353  -1.391  0.00  0.00    +0.072 C 
ATOM      8  S   UNL     1       2.640  -3.848  -1.966  0.00  0.00    -0.060 S 
ATOM      9  C   UNL     1       1.465  -2.758  -1.466  0.00  0.00    +0.166 C 
ATOM     10  N   UNL     1       1.385  -1.448  -1.579  0.00  0.00    -0.230 NA
ENDROOT
BRANCH   4  11
ATOM     11  C   UNL     1      -0.769  -3.117   1.142  0.00  0.00    -0.022 A 
ATOM     12  C   UNL     1       0.318  -2.897   1.968  0.00  0.00    +0.008 A 
ATOM     13  C   UNL     1       0.229  -3.180   3.318  0.00  0.00    +0.038 A 
ATOM     14  C   UNL     1      -0.949  -3.685   3.843  0.00  0.00    +0.123 A 
ATOM     15  C   UNL     1      -2.036  -3.905   3.015  0.00  0.00    +0.038 A 
ATOM     16  C   UNL     1      -1.947  -3.616   1.667  0.00  0.00    +0.008 A 
ATOM     17  F   UNL     1      -1.036  -3.963   5.162  0.00  0.00    -0.205 F 
ENDBRANCH   4  11
BRANCH   6  18
ATOM     18  C   UNL     1      -0.233  -5.811  -0.220  0.00  0.00    +0.091 C 
ATOM     19  C   UNL     1       0.069  -7.117  -0.084  0.00  0.00    +0.243 C 
ATOM     20  O   UNL     1       1.217  -7.606  -0.614  0.00  0.00    -0.270 OA
BRANCH  19  21
ATOM     21  N   UNL     1      -0.793  -7.960   0.599  0.00  0.00    -0.282 N 
ATOM     22  H   UNL     1      -1.657  -7.633   0.895  0.00  0.00    +0.155 HD
BRANCH  21  23
ATOM     23  C   UNL     1      -0.418  -9.281   0.860  0.00  0.00    +0.034 A 
ATOM     24  C   UNL     1       0.918  -9.595   1.077  0.00  0.00    +0.026 A 
ATOM     25  C   UNL     1       1.286 -10.901   1.335  0.00  0.00    +0.040 A 
ATOM     26  C   UNL     1       0.325 -11.897   1.378  0.00  0.00    +0.124 A 
ATOM     27  C   UNL     1      -1.007 -11.586   1.162  0.00  0.00    +0.040 A 
ATOM     28  C   UNL     1      -1.381 -10.281   0.909  0.00  0.00    +0.026 A 
ATOM     29  F   UNL     1       0.688 -13.174   1.631  0.00  0.00    -0.205 F 
ENDBRANCH  21  23
ENDBRANCH  19  21
ENDBRANCH   6  18
BRANCH   3  30
ATOM     30  C   UNL     1      -1.759  -0.538  -0.011  0.00  0.00    +0.339 C 
ATOM     31  O   UNL     1      -1.706   0.679  -0.058  0.00  0.00    -0.245 OA
BRANCH  30  32
ATOM     32  O   UNL     1      -2.850  -1.147   0.504  0.00  0.00    -0.459 OA
BRANCH  32  33
ATOM     33  C   UNL     1      -3.949  -0.310   0.869  0.00  0.00    +0.260 C 
BRANCH  33  34
ATOM     34  C   UNL     1      -5.037  -1.158   1.532  0.00  0.00    +0.200 C 
BRANCH  34  35
ATOM     35  O   UNL     1      -4.552  -1.665   2.777  0.00  0.00    -0.380 OA
ATOM     36  C   UNL     1      -5.455  -2.559   3.431  0.00  0.00    +0.194 C 
ENDBRANCH  34  35
ENDBRANCH  33  34
ENDBRANCH  32  33
ENDBRANCH  30  32
ENDBRANCH   3  30
TORSDOF 9
