REMARK  Name = ZINC20841848
REMARK  9 active torsions:
REMARK  status: ('A' for Active; 'I' for Inactive)
REMARK    1  A    between atoms: C_1  and  C_2
REMARK    2  A    between atoms: C_2  and  C_3
REMARK    3  A    between atoms: C_2  and  C_4
REMARK    4  A    between atoms: C_2  and  C_5
REMARK    5  A    between atoms: C_8  and  S_11
REMARK    6  A    between atoms: N_9  and  N_10
REMARK    7  A    between atoms: S_11  and  C_12
REMARK    8  A    between atoms: C_12  and  C_13
REMARK    9  A    between atoms: N_15  and  C_16
REMARK                            x       y       z     vdW  Elec       q    Type
REMARK                         _______ _______ _______ _____ _____    ______ ____
ROOT
ATOM      1  S   UNL     1       1.510   5.092   0.014  0.00  0.00    -0.075 S 
ENDROOT
BRANCH   1   5
ATOM      2  C   UNL     1      -0.019   1.503  -0.014  0.00  0.00    +0.156 A 
ATOM      3  N   UNL     1      -1.079   2.261  -0.010  0.00  0.00    -0.131 NA
ATOM      4  N   UNL     1      -0.736   3.499   0.005  0.00  0.00    -0.121 NA
ATOM      5  C   UNL     1       0.573   3.599   0.003  0.00  0.00    +0.209 A 
ATOM      6  N   UNL     1       1.071   2.328  -0.010  0.00  0.00    -0.227 N 
BRANCH   2   8
ATOM      7  C   UNL     1       0.733  -0.515   1.215  0.00  0.00    +0.019 C 
ATOM      8  C   UNL     1       0.001  -0.004  -0.027  0.00  0.00    +0.024 C 
ATOM      9  C   UNL     1      -1.435  -0.533  -0.028  0.00  0.00    +0.019 C 
ATOM     10  C   UNL     1       0.725  -0.493  -1.283  0.00  0.00    +0.019 C 
ENDBRANCH   2   8
BRANCH   6  11
ATOM     11  N   UNL     1       2.386   1.957  -0.017  0.00  0.00    -0.295 N 
ATOM     12  H   UNL     1       3.174   2.725  -0.013  0.00  0.00    +0.163 HD
ATOM     13  H   UNL     1       2.657   0.891  -0.027  0.00  0.00    +0.163 HD
ENDBRANCH   6  11
ENDBRANCH   1   5
BRANCH   1  14
ATOM     14  C   UNL     1       0.168   6.305   0.028  0.00  0.00    +0.173 C 
BRANCH  14  15
ATOM     15  C   UNL     1       0.748   7.696   0.039  0.00  0.00    +0.227 C 
ATOM     16  O   UNL     1       1.951   7.851   0.037  0.00  0.00    -0.275 OA
ATOM     17  N   UNL     1      -0.070   8.768   0.050  0.00  0.00    -0.285 N 
ATOM     18  H   UNL     1      -1.159   8.629  -0.025  0.00  0.00    +0.155 HD
BRANCH  17  19
ATOM     19  C   UNL     1       0.466  10.056   0.158  0.00  0.00    +0.036 A 
ATOM     20  C   UNL     1      -0.219  11.037   0.861  0.00  0.00    +0.043 A 
ATOM     21  C   UNL     1       0.315  12.307   0.971  0.00  0.00    +0.044 A 
ATOM     22  C   UNL     1       1.526  12.604   0.371  0.00  0.00    +0.040 A 
ATOM     23  C   UNL     1       2.209  11.629  -0.335  0.00  0.00    +0.044 A 
ATOM     24  C   UNL     1       1.681  10.356  -0.443  0.00  0.00    +0.043 A 
ATOM     25 CL   UNL     1       3.728  12.005  -1.085  0.00  0.00    -0.083 Cl
ATOM     26 CL   UNL     1      -0.538  13.534   1.856  0.00  0.00    -0.083 Cl
ENDBRANCH  17  19
ENDBRANCH  14  15
ENDBRANCH   1  14
TORSDOF 6
