REMARK  Name = ZINC25059818
REMARK  8 active torsions:
REMARK  status: ('A' for Active; 'I' for Inactive)
REMARK    1  A    between atoms: C_1  and  C_2
REMARK    2  A    between atoms: C_5  and  C_8
REMARK    3  A    between atoms: N_13  and  C_14
REMARK    4  A    between atoms: C_14  and  C_15
REMARK    5  A    between atoms: C_20  and  C_23
REMARK    6  A    between atoms: C_23  and  N_24
REMARK    7  A    between atoms: C_26  and  C_33
REMARK    8  A    between atoms: C_29  and  C_32
REMARK                            x       y       z     vdW  Elec       q    Type
REMARK                         _______ _______ _______ _____ _____    ______ ____
ROOT
ATOM      1  C   UNL     1       6.494   4.942   3.008  0.00  0.00    +0.239 C 
ATOM      2  O   UNL     1       7.047   5.168   1.953  0.00  0.00    -0.273 OA
ATOM      3  N   UNL     1       5.223   4.492   3.020  0.00  0.00    -0.263 N 
ATOM      4  C   UNL     1       4.547   4.288   1.823  0.00  0.00    +0.165 A 
ATOM      5  N   UNL     1       3.313   3.863   1.631  0.00  0.00    -0.228 NA
ATOM      6  C   UNL     1       2.822   3.719   0.416  0.00  0.00    +0.064 A 
ATOM      7  C   UNL     1       3.612   4.029  -0.641  0.00  0.00    +0.073 A 
ATOM      8  S   UNL     1       5.106   4.534   0.198  0.00  0.00    -0.060 S 
ATOM      9  H   UNL     1       4.722   4.287   3.978  0.00  0.00    +0.157 HD
ENDROOT
BRANCH   1  10
ATOM     10  C   UNL     1       7.227   5.163   4.306  0.00  0.00    +0.221 C 
BRANCH  10  16
ATOM     11  C   UNL     1       9.707   4.866   3.878  0.00  0.00    +0.165 A 
ATOM     12  N   UNL     1      10.724   5.644   3.633  0.00  0.00    -0.128 NA
ATOM     13  N   UNL     1      10.266   6.968   3.627  0.00  0.00    -0.121 NA
ATOM     14  C   UNL     1       8.940   6.940   3.872  0.00  0.00    +0.203 A 
ATOM     15  S   UNL     1       7.901   8.297   3.970  0.00  0.00    -0.009 SA
ATOM     16  N   UNL     1       8.580   5.650   4.025  0.00  0.00    -0.293 N 
BRANCH  11  21
ATOM     17  C   UNL     1       9.884  -0.874   4.268  0.00  0.00    +0.044 C 
ATOM     18  C   UNL     1       9.838   0.629   4.165  0.00  0.00    -0.050 A 
ATOM     19  C   UNL     1      10.995   1.367   4.341  0.00  0.00    +0.004 A 
ATOM     20  C   UNL     1      10.959   2.743   4.249  0.00  0.00    +0.012 A 
ATOM     21  C   UNL     1       9.753   3.390   3.978  0.00  0.00    +0.019 A 
ATOM     22  C   UNL     1       8.589   2.640   3.808  0.00  0.00    +0.012 A 
ATOM     23  C   UNL     1       8.639   1.264   3.897  0.00  0.00    +0.004 A 
ENDBRANCH  11  21
ENDBRANCH  10  16
ENDBRANCH   1  10
BRANCH   6  24
ATOM     24  C   UNL     1       1.413   3.226   0.207  0.00  0.00    +0.140 C 
BRANCH  24  25
ATOM     25  N   UNL     1       1.401   1.758   0.221  0.00  0.00    -0.292 NA
ATOM     26  C   UNL     1       2.129   1.214  -0.935  0.00  0.00    +0.116 C 
ATOM     27  C   UNL     1       2.143  -0.315  -0.850  0.00  0.00    +0.130 C 
ATOM     28  O   UNL     1       0.797  -0.795  -0.783  0.00  0.00    -0.371 OA
ATOM     29  C   UNL     1       0.059  -0.286   0.331  0.00  0.00    +0.130 C 
ATOM     30  C   UNL     1       0.024   1.242   0.258  0.00  0.00    +0.116 C 
ATOM     31  C   UNL     1      -1.369  -0.832   0.291  0.00  0.00    +0.039 C 
ATOM     32  C   UNL     1       2.830  -0.890  -2.090  0.00  0.00    +0.039 C 
ENDBRANCH  24  25
ENDBRANCH   6  24
TORSDOF 5
