REMARK  Name = ZINC18402929
REMARK  9 active torsions:
REMARK  status: ('A' for Active; 'I' for Inactive)
REMARK    1  A    between atoms: C_1  and  C_2
REMARK    2  A    between atoms: C_2  and  N_3
REMARK    3  A    between atoms: C_12  and  S_13
REMARK    4  A    between atoms: S_13  and  C_14
REMARK    5  A    between atoms: C_14  and  C_15
REMARK    6  A    between atoms: N_17  and  C_18
REMARK    7  A    between atoms: C_21  and  C_24
REMARK    8  A    between atoms: N_26  and  C_27
REMARK    9  A    between atoms: C_29  and  C_33
REMARK                            x       y       z     vdW  Elec       q    Type
REMARK                         _______ _______ _______ _____ _____    ______ ____
ROOT
ATOM      1  N   UNL     1      -0.369   1.370   2.731  0.00  0.00    -0.288 N 
ATOM      2  C   UNL     1      -0.708   0.171   3.239  0.00  0.00    +0.263 A 
ATOM      3  O   UNL     1      -1.693  -0.419   2.827  0.00  0.00    -0.267 OA
ATOM      4  C   UNL     1       0.106  -0.405   4.266  0.00  0.00    +0.076 A 
ATOM      5  C   UNL     1      -0.070  -1.686   4.951  0.00  0.00    -0.023 A 
ATOM      6  C   UNL     1       0.837  -2.004   5.896  0.00  0.00    -0.004 A 
ATOM      7  S   UNL     1       1.964  -0.637   5.931  0.00  0.00    -0.073 S 
ATOM      8  C   UNL     1       1.212   0.361   4.671  0.00  0.00    +0.117 A 
ATOM      9  N   UNL     1       1.489   1.542   4.132  0.00  0.00    -0.216 NA
ATOM     10  C   UNL     1       0.726   2.047   3.183  0.00  0.00    +0.173 A 
ATOM     11  C   UNL     1       0.879  -3.247   6.733  0.00  0.00    +0.046 C 
ATOM     12  C   UNL     1      -0.056  -4.288   6.102  0.00  0.00    -0.009 C 
ATOM     13  C   UNL     1      -1.396  -3.616   5.784  0.00  0.00    +0.008 C 
ATOM     14  C   UNL     1      -1.222  -2.633   4.626  0.00  0.00    +0.037 C 
ATOM     15  C   UNL     1      -0.280  -5.439   7.084  0.00  0.00    +0.008 C 
ENDROOT
BRANCH   1  17
ATOM     16  C   UNL     1      -0.668   1.521   0.308  0.00  0.00    +0.027 C 
ATOM     17  C   UNL     1      -1.195   1.962   1.675  0.00  0.00    +0.124 C 
ENDBRANCH   1  17
BRANCH  10  18
ATOM     18  S   UNL     1       1.125   3.617   2.490  0.00  0.00    -0.078 S 
BRANCH  18  19
ATOM     19  C   UNL     1       2.611   4.013   3.444  0.00  0.00    +0.173 C 
BRANCH  19  20
ATOM     20  C   UNL     1       3.144   5.354   3.009  0.00  0.00    +0.227 C 
ATOM     21  O   UNL     1       2.576   5.980   2.140  0.00  0.00    -0.275 OA
ATOM     22  N   UNL     1       4.253   5.858   3.587  0.00  0.00    -0.285 N 
ATOM     23  H   UNL     1       4.665   5.394   4.333  0.00  0.00    +0.155 HD
BRANCH  22  24
ATOM     24  C   UNL     1       4.810   7.044   3.110  0.00  0.00    +0.033 A 
ATOM     25  C   UNL     1       4.745   7.346   1.754  0.00  0.00    +0.024 A 
ATOM     26  C   UNL     1       5.289   8.518   1.281  0.00  0.00    +0.015 A 
ATOM     27  C   UNL     1       5.917   9.402   2.164  0.00  0.00    +0.037 A 
ATOM     28  C   UNL     1       5.985   9.093   3.525  0.00  0.00    +0.015 A 
ATOM     29  C   UNL     1       5.434   7.921   3.992  0.00  0.00    +0.024 A 
BRANCH  27  30
ATOM     30  C   UNL     1       6.506  10.657   1.659  0.00  0.00    +0.244 C 
ATOM     31  O   UNL     1       7.051  11.425   2.429  0.00  0.00    -0.270 OA
ATOM     32  N   UNL     1       6.439  10.954   0.346  0.00  0.00    -0.314 N 
ATOM     33  C   UNL     1       7.024  12.200  -0.154  0.00  0.00    +0.128 C 
ATOM     34  H   UNL     1       6.004  10.341  -0.267  0.00  0.00    +0.149 HD
ENDBRANCH  27  30
ENDBRANCH  22  24
ENDBRANCH  19  20
ENDBRANCH  18  19
ENDBRANCH  10  18
TORSDOF 6
