REMARK  Name = ZINC36240498
REMARK  5 active torsions:
REMARK  status: ('A' for Active; 'I' for Inactive)
REMARK    1  A    between atoms: C_6  and  N_7
REMARK    2  A    between atoms: C_16  and  S_17
REMARK    3  A    between atoms: S_17  and  C_18
REMARK    4  A    between atoms: C_18  and  C_19
REMARK    5  A    between atoms: N_24  and  C_25
REMARK                            x       y       z     vdW  Elec       q    Type
REMARK                         _______ _______ _______ _____ _____    ______ ____
ROOT
ATOM      1  N   UNL     1      -1.201  -0.722   0.010  0.00  0.00    -0.255 N 
ATOM      2  C   UNL     1      -1.170  -2.064  -0.094  0.00  0.00    +0.268 A 
ATOM      3  O   UNL     1      -0.107  -2.651  -0.194  0.00  0.00    -0.267 OA
ATOM      4  C   UNL     1      -2.402  -2.791  -0.085  0.00  0.00    +0.076 A 
ATOM      5  C   UNL     1      -2.602  -4.238  -0.186  0.00  0.00    -0.023 A 
ATOM      6  C   UNL     1      -3.874  -4.684  -0.153  0.00  0.00    -0.004 A 
ATOM      7  S   UNL     1      -4.869  -3.226   0.013  0.00  0.00    -0.073 S 
ATOM      8  C   UNL     1      -3.569  -2.017   0.036  0.00  0.00    +0.117 A 
ATOM      9  N   UNL     1      -3.533  -0.694   0.135  0.00  0.00    -0.215 NA
ATOM     10  C   UNL     1      -2.384  -0.048   0.129  0.00  0.00    +0.178 A 
ATOM     11  C   UNL     1      -4.341  -6.105  -0.239  0.00  0.00    +0.043 C 
ATOM     12  C   UNL     1      -3.176  -6.967  -0.746  0.00  0.00    +0.005 C 
ATOM     13  C   UNL     1      -1.920  -6.615   0.055  0.00  0.00    +0.005 C 
ATOM     14  C   UNL     1      -1.437  -5.214  -0.324  0.00  0.00    +0.037 C 
ENDROOT
BRANCH   1  20
ATOM     15  C   UNL     1       0.535   0.447  -1.198  0.00  0.00    +0.028 A 
ATOM     16  C   UNL     1       1.721   1.155  -1.204  0.00  0.00    +0.022 A 
ATOM     17  C   UNL     1       2.378   1.415  -0.014  0.00  0.00    +0.041 A 
ATOM     18  C   UNL     1       1.849   0.967   1.184  0.00  0.00    +0.022 A 
ATOM     19  C   UNL     1       0.663   0.258   1.194  0.00  0.00    +0.028 A 
ATOM     20  C   UNL     1       0.002  -0.004   0.002  0.00  0.00    +0.052 A 
ATOM     21 CL   UNL     1       3.869   2.304  -0.024  0.00  0.00    -0.084 Cl
ENDBRANCH   1  20
BRANCH  10  22
ATOM     22  S   UNL     1      -2.373   1.708   0.269  0.00  0.00    -0.078 S 
BRANCH  22  23
ATOM     23  C   UNL     1      -4.128   2.149   0.401  0.00  0.00    +0.173 C 
BRANCH  23  24
ATOM     24  C   UNL     1      -4.262   3.645   0.528  0.00  0.00    +0.231 C 
ATOM     25  O   UNL     1      -3.272   4.344   0.530  0.00  0.00    -0.274 OA
ATOM     26  N   UNL     1      -5.483   4.204   0.640  0.00  0.00    -0.239 N 
ATOM     27  C   UNL     1      -5.603   5.542   0.754  0.00  0.00    +0.306 C 
ATOM     28  O   UNL     1      -4.611   6.243   0.756  0.00  0.00    -0.252 OA
ATOM     29  N   UNL     1      -6.824   6.102   0.866  0.00  0.00    -0.296 N 
ATOM     30  H   UNL     1      -6.275   3.645   0.639  0.00  0.00    +0.159 HD
ATOM     31  H   UNL     1      -7.616   5.542   0.865  0.00  0.00    +0.151 HD
BRANCH  29  32
ATOM     32  C   UNL     1      -6.955   7.556   0.990  0.00  0.00    +0.075 C 
ATOM     33  C   UNL     1      -7.943   8.091   2.028  0.00  0.00    +0.024 C 
ATOM     34  C   UNL     1      -8.272   8.188   0.537  0.00  0.00    +0.024 C 
ENDBRANCH  29  32
ENDBRANCH  23  24
ENDBRANCH  22  23
ENDBRANCH  10  22
TORSDOF 5
