REMARK  Name = ZINC62824278
REMARK  2 active torsions:
REMARK  status: ('A' for Active; 'I' for Inactive)
REMARK    1  A    between atoms: C_3  and  N_18
REMARK    2  A    between atoms: C_4  and  C_8
REMARK                            x       y       z     vdW  Elec       q    Type
REMARK                         _______ _______ _______ _____ _____    ______ ____
ROOT
ATOM      1  C   UNL     1      -0.016   1.381   0.009  0.00  0.00    +0.016 A 
ATOM      2  C   UNL     1       1.019   1.814   0.816  0.00  0.00    +0.024 A 
ATOM      3  C   UNL     1       2.233   1.143   0.808  0.00  0.00    +0.035 A 
ATOM      4  C   UNL     1       2.404   0.025  -0.021  0.00  0.00    +0.041 A 
ATOM      5  C   UNL     1       1.351  -0.401  -0.830  0.00  0.00    +0.027 A 
ATOM      6  C   UNL     1       0.149   0.277  -0.810  0.00  0.00    +0.014 A 
ATOM      7  I   UNL     1      -1.431  -0.365  -2.026  0.00  0.00    -0.044 I 
ENDROOT
BRANCH   4   8
ATOM      8  C   UNL     1       3.693  -0.697  -0.037  0.00  0.00    +0.166 A 
ATOM      9  N   UNL     1       4.893  -0.162  -0.133  0.00  0.00    -0.129 NA
ATOM     10  N   UNL     1       5.786  -1.088  -0.109  0.00  0.00    -0.134 NA
ATOM     11  C   UNL     1       5.215  -2.254   0.006  0.00  0.00    +0.134 A 
ATOM     12  N   UNL     1       3.871  -2.048   0.049  0.00  0.00    -0.311 N 
ATOM     13  C   UNL     1       2.835  -3.075   0.150  0.00  0.00    +0.125 C 
ATOM     14  C   UNL     1       3.400  -4.295   0.883  0.00  0.00    +0.022 C 
ATOM     15  C   UNL     1       4.037  -5.252  -0.124  0.00  0.00    +0.002 C 
ATOM     16  C   UNL     1       5.194  -4.574  -0.850  0.00  0.00    +0.008 C 
ATOM     17  C   UNL     1       5.894  -3.596   0.089  0.00  0.00    +0.076 C 
ENDBRANCH   4   8
BRANCH   3  18
ATOM     18  N   UNL     1       3.279   1.579   1.620  0.00  0.00    -0.357 N 
ATOM     19  H   UNL     1       3.158   2.353   2.192  0.00  0.00    +0.142 HD
ATOM     20  H   UNL     1       4.127   1.108   1.613  0.00  0.00    +0.142 HD
ENDBRANCH   3  18
TORSDOF 2
