REMARK  Name = ZINC34923970
REMARK  9 active torsions:
REMARK  status: ('A' for Active; 'I' for Inactive)
REMARK    1  A    between atoms: C_1  and  C_2
REMARK    2  A    between atoms: C_2  and  O_3
REMARK    3  A    between atoms: O_3  and  C_4
REMARK    4  A    between atoms: C_4  and  C_6
REMARK    5  A    between atoms: C_7  and  C_33
REMARK    6  A    between atoms: C_11  and  C_13
REMARK    7  A    between atoms: C_20  and  C_23
REMARK    8  A    between atoms: C_24  and  N_26
REMARK    9  A    between atoms: N_26  and  C_27
REMARK                            x       y       z     vdW  Elec       q    Type
REMARK                         _______ _______ _______ _____ _____    ______ ____
ROOT
ATOM      1  C   UNL     1      -2.845  -2.408   0.040  0.00  0.00    +0.083 C 
ATOM      2  C   UNL     1      -2.962  -3.746  -0.285  0.00  0.00    +0.053 C 
ATOM      3  N   UNL     1      -4.153  -4.321  -0.340  0.00  0.00    -0.230 NA
ATOM      4  C   UNL     1      -5.295  -3.708  -0.102  0.00  0.00    +0.166 C 
ATOM      5  N   UNL     1      -5.396  -2.387   0.235  0.00  0.00    -0.267 N 
ATOM      6  C   UNL     1      -4.114  -1.639   0.332  0.00  0.00    +0.152 C 
ATOM      7  C   UNL     1      -6.666  -1.892   0.453  0.00  0.00    +0.048 C 
ATOM      8  C   UNL     1      -7.704  -2.746   0.317  0.00  0.00    +0.072 C 
ATOM      9  S   UNL     1      -6.879  -4.262  -0.123  0.00  0.00    -0.060 S 
ATOM     10  C   UNL     1      -1.726  -4.556  -0.579  0.00  0.00    +0.066 C 
ENDROOT
BRANCH   6  11
ATOM     11  C   UNL     1      -4.005  -1.076   1.725  0.00  0.00    +0.013 A 
ATOM     12  C   UNL     1      -3.735   0.267   1.909  0.00  0.00    +0.008 A 
ATOM     13  C   UNL     1      -3.635   0.784   3.187  0.00  0.00    +0.001 A 
ATOM     14  C   UNL     1      -3.805  -0.042   4.283  0.00  0.00    +0.003 A 
ATOM     15  C   UNL     1      -4.075  -1.385   4.102  0.00  0.00    +0.039 A 
ATOM     16  C   UNL     1      -4.181  -1.903   2.822  0.00  0.00    +0.129 A 
ATOM     17  F   UNL     1      -4.450  -3.214   2.644  0.00  0.00    -0.205 F 
ENDBRANCH   6  11
BRANCH   7  18
ATOM     18  C   UNL     1      -6.881  -0.485   0.821  0.00  0.00    +0.091 C 
ATOM     19  C   UNL     1      -8.133   0.005   0.906  0.00  0.00    +0.239 C 
ATOM     20  O   UNL     1      -9.196  -0.823   0.764  0.00  0.00    -0.271 OA
BRANCH  19  21
ATOM     21  N   UNL     1      -8.333   1.355   1.139  0.00  0.00    -0.309 N 
ATOM     22  H   UNL     1      -7.575   1.960   1.169  0.00  0.00    +0.149 HD
BRANCH  21  23
ATOM     23  C   UNL     1      -9.690   1.870   1.341  0.00  0.00    +0.073 C 
ATOM     24  C   UNL     1     -10.367   2.069  -0.017  0.00  0.00    +0.022 C 
ATOM     25  C   UNL     1     -11.783   2.607   0.193  0.00  0.00    +0.002 C 
ATOM     26  C   UNL     1     -11.717   3.946   0.930  0.00  0.00    +0.000 C 
ATOM     27  C   UNL     1     -11.040   3.747   2.288  0.00  0.00    +0.002 C 
ATOM     28  C   UNL     1      -9.623   3.209   2.078  0.00  0.00    +0.022 C 
ENDBRANCH  21  23
ENDBRANCH  19  21
ENDBRANCH   7  18
BRANCH   1  29
ATOM     29  C   UNL     1      -1.592  -1.786   0.102  0.00  0.00    +0.339 C 
ATOM     30  O   UNL     1      -0.576  -2.449  -0.019  0.00  0.00    -0.245 OA
BRANCH  29  31
ATOM     31  O   UNL     1      -1.509  -0.452   0.297  0.00  0.00    -0.462 OA
BRANCH  31  33
ATOM     32  C   UNL     1      -0.305   1.626   0.575  0.00  0.00    +0.048 C 
ATOM     33  C   UNL     1      -0.199   0.116   0.350  0.00  0.00    +0.229 C 
ENDBRANCH  31  33
ENDBRANCH  29  31
ENDBRANCH   1  29
TORSDOF 7
