REMARK  Name = ZINC29827803
REMARK  5 active torsions:
REMARK  status: ('A' for Active; 'I' for Inactive)
REMARK    1  A    between atoms: C_8  and  C_10
REMARK    2  A    between atoms: N_15  and  C_17
REMARK    3  A    between atoms: C_17  and  C_18
REMARK    4  A    between atoms: C_21  and  C_27
REMARK    5  A    between atoms: C_23  and  N_24
REMARK                            x       y       z     vdW  Elec       q    Type
REMARK                         _______ _______ _______ _____ _____    ______ ____
ROOT
ATOM      1  C   UNL     1      -6.372   1.032   3.266  0.00  0.00    +0.089 C 
ATOM      2  C   UNL     1      -5.537   1.248   4.531  0.00  0.00    +0.015 C 
ATOM      3  C   UNL     1      -5.314   2.749   4.735  0.00  0.00    +0.016 C 
ATOM      4  C   UNL     1      -4.625   3.331   3.498  0.00  0.00    +0.085 C 
ATOM      5  N   UNL     1      -5.465   3.099   2.316  0.00  0.00    -0.297 NA
ATOM      6  C   UNL     1      -5.653   1.663   2.072  0.00  0.00    +0.097 C 
ENDROOT
BRANCH   1  14
ATOM      7  C   UNL     1      -7.755  -4.731   2.357  0.00  0.00    +0.002 A 
ATOM      8  C   UNL     1      -6.380  -4.885   2.263  0.00  0.00    +0.004 A 
ATOM      9  C   UNL     1      -5.543  -3.799   2.406  0.00  0.00    +0.048 A 
ATOM     10  C   UNL     1      -6.077  -2.542   2.646  0.00  0.00    +0.155 A 
ATOM     11  C   UNL     1      -7.468  -2.382   2.742  0.00  0.00    +0.110 A 
ATOM     12  C   UNL     1      -8.303  -3.490   2.595  0.00  0.00    +0.031 A 
ATOM     13  N   UNL     1      -7.690  -1.060   2.977  0.00  0.00    -0.213 NA
ATOM     14  C   UNL     1      -6.546  -0.445   3.025  0.00  0.00    +0.201 A 
ATOM     15  O   UNL     1      -5.543  -1.313   2.823  0.00  0.00    -0.439 OA
ENDBRANCH   1  14
BRANCH   5  16
ATOM     16  C   UNL     1      -4.902   3.764   1.133  0.00  0.00    +0.121 C 
BRANCH  16  17
ATOM     17  C   UNL     1      -3.656   3.040   0.694  0.00  0.00    -0.003 A 
ATOM     18  C   UNL     1      -2.418   3.460   1.150  0.00  0.00    +0.008 A 
ATOM     19  C   UNL     1      -1.273   2.802   0.751  0.00  0.00    +0.013 A 
ATOM     20  C   UNL     1      -1.365   1.710  -0.113  0.00  0.00    +0.039 A 
ATOM     21  C   UNL     1      -2.615   1.294  -0.572  0.00  0.00    +0.046 A 
ATOM     22  C   UNL     1      -3.753   1.958  -0.163  0.00  0.00    +0.131 A 
BRANCH  20  23
ATOM     23  C   UNL     1      -0.142   1.000  -0.544  0.00  0.00    +0.242 C 
ATOM     24  O   UNL     1      -0.224   0.049  -1.296  0.00  0.00    -0.270 OA
ATOM     25  N   UNL     1       1.065   1.410  -0.107  0.00  0.00    -0.325 N 
ATOM     26  H   UNL     1       1.975   0.882  -0.428  0.00  0.00    +0.145 HD
ATOM     27  H   UNL     1       1.140   2.274   0.570  0.00  0.00    +0.145 HD
ENDBRANCH  20  23
BRANCH  22  28
ATOM     28  N   UNL     1      -5.081   1.516  -0.646  0.00  0.00    +0.057 N 
ATOM     29  O   UNL     1      -5.303   0.331  -0.816  0.00  0.00    -0.126 OA
ATOM     30  O   UNL     1      -5.951   2.338  -0.873  0.00  0.00    -0.126 OA
ENDBRANCH  22  28
ENDBRANCH  16  17
ENDBRANCH   5  16
TORSDOF 5
