REMARK  Name = ZINC65074704
REMARK  6 active torsions:
REMARK  status: ('A' for Active; 'I' for Inactive)
REMARK    1  A    between atoms: C_1  and  C_2
REMARK    2  A    between atoms: C_2  and  C_3
REMARK    3  A    between atoms: C_2  and  C_4
REMARK    4  A    between atoms: C_2  and  N_5
REMARK    5  A    between atoms: N_14  and  S_17
REMARK    6  A    between atoms: S_17  and  C_20
REMARK                            x       y       z     vdW  Elec       q    Type
REMARK                         _______ _______ _______ _____ _____    ______ ____
ROOT
ATOM      1  N   UNL     1       0.588  -0.513  -1.249  0.00  0.00    -0.328 N 
ATOM      2  C   UNL     1       1.903  -0.268  -1.544  0.00  0.00    +0.089 C 
ATOM      3  N   UNL     1       2.570   0.486  -0.754  0.00  0.00    -0.374 N 
ATOM      4  C   UNL     1       3.972   0.836  -0.958  0.00  0.00    +0.129 C 
ATOM      5  C   UNL     1       4.615  -0.129  -1.956  0.00  0.00    +0.102 C 
ATOM      6  N   UNL     1       3.742  -0.227  -3.138  0.00  0.00    -0.303 NA
ATOM      7  C   UNL     1       2.487  -0.904  -2.774  0.00  0.00    +0.075 C 
ATOM      8  C   UNL     1       1.495  -0.782  -3.934  0.00  0.00    +0.047 C 
ATOM      9  C   UNL     1       2.112  -1.397  -5.194  0.00  0.00    +0.111 C 
ATOM     10  N   UNL     1       2.522  -2.776  -4.895  0.00  0.00    -0.176 NA
ATOM     11  C   UNL     1       3.401  -3.018  -3.743  0.00  0.00    +0.111 C 
ATOM     12  C   UNL     1       2.768  -2.384  -2.499  0.00  0.00    +0.047 C 
ATOM     13  H   UNL     1       0.039  -1.020  -1.867  0.00  0.00    +0.148 HD
ATOM     14  H   UNL     1       3.563   0.684  -3.533  0.00  0.00    +0.123 HD
ATOM     15  H   UNL     1       2.117   0.847   0.024  0.00  0.00    +0.161 HD
ENDROOT
BRANCH   1  17
ATOM     16  C   UNL     1       0.025   1.519  -0.010  0.00  0.00    +0.031 C 
ATOM     17  C   UNL     1       0.012  -0.011   0.001  0.00  0.00    +0.025 C 
ATOM     18  C   UNL     1       0.838  -0.519   1.184  0.00  0.00    +0.031 C 
ATOM     19  C   UNL     1      -1.429  -0.508   0.133  0.00  0.00    +0.031 C 
ENDBRANCH   1  17
BRANCH  10  20
ATOM     20  S   UNL     1       2.004  -4.033  -5.840  0.00  0.00    +0.061 S 
ATOM     21  O   UNL     1       2.070  -5.201  -5.033  0.00  0.00    -0.153 OA
ATOM     22  O   UNL     1       0.801  -3.605  -6.463  0.00  0.00    -0.153 OA
BRANCH  20  23
ATOM     23  C   UNL     1       3.190  -4.242  -7.126  0.00  0.00    +0.106 A 
ATOM     24  C   UNL     1       3.048  -3.552  -8.316  0.00  0.00    +0.030 A 
ATOM     25  C   UNL     1       3.978  -3.715  -9.325  0.00  0.00    +0.022 A 
ATOM     26  C   UNL     1       5.052  -4.569  -9.145  0.00  0.00    +0.041 A 
ATOM     27  C   UNL     1       5.193  -5.260  -7.954  0.00  0.00    +0.022 A 
ATOM     28  C   UNL     1       4.266  -5.091  -6.943  0.00  0.00    +0.030 A 
ATOM     29 CL   UNL     1       6.220  -4.775 -10.412  0.00  0.00    -0.084 Cl
ENDBRANCH  20  23
ENDBRANCH  10  20
TORSDOF 3
