REMARK  Name = ZINC08451187
REMARK  12 active torsions:
REMARK  status: ('A' for Active; 'I' for Inactive)
REMARK    1  A    between atoms: C_1  and  C_2
REMARK    2  A    between atoms: C_2  and  C_3
REMARK    3  A    between atoms: C_2  and  O_4
REMARK    4  A    between atoms: O_4  and  C_5
REMARK    5  A    between atoms: C_5  and  C_7
REMARK    6  A    between atoms: C_8  and  C_23
REMARK    7  A    between atoms: C_10  and  N_22
REMARK    8  A    between atoms: C_11  and  C_20
REMARK    9  A    between atoms: C_12  and  C_14
REMARK   10  A    between atoms: C_23  and  S_24
REMARK   11  A    between atoms: S_24  and  C_25
REMARK   12  A    between atoms: C_26  and  C_36
REMARK                            x       y       z     vdW  Elec       q    Type
REMARK                         _______ _______ _______ _____ _____    ______ ____
ROOT
ATOM      1  C   UNL     1       4.316  -0.437   1.057  0.00  0.00    +0.088 C 
ATOM      2  C   UNL     1       5.595  -0.042   1.078  0.00  0.00    +0.128 C 
ATOM      3  O   UNL     1       6.159   0.614   0.054  0.00  0.00    -0.444 OA
ATOM      4  C   UNL     1       5.583   0.562  -1.160  0.00  0.00    +0.198 C 
ATOM      5  C   UNL     1       4.288   0.201  -1.319  0.00  0.00    +0.098 C 
ATOM      6  C   UNL     1       3.437  -0.162  -0.132  0.00  0.00    +0.105 C 
ENDROOT
BRANCH   6   7
ATOM      7  C   UNL     1       2.506   0.981   0.185  0.00  0.00    -0.032 A 
ATOM      8  C   UNL     1       1.131   0.806   0.155  0.00  0.00    +0.024 A 
ATOM      9  C   UNL     1       0.310   1.876   0.452  0.00  0.00    +0.111 A 
ATOM     10  N   UNL     1       0.820   3.052   0.762  0.00  0.00    -0.263 NA
ATOM     11  C   UNL     1       2.122   3.255   0.801  0.00  0.00    +0.111 A 
ATOM     12  C   UNL     1       3.006   2.232   0.515  0.00  0.00    +0.024 A 
ENDBRANCH   6   7
BRANCH   4  13
ATOM     13  N   UNL     1       6.328   0.883  -2.267  0.00  0.00    -0.328 N 
ATOM     14  H   UNL     1       7.257   1.143  -2.167  0.00  0.00    +0.145 HD
ATOM     15  H   UNL     1       5.925   0.850  -3.149  0.00  0.00    +0.145 HD
ENDBRANCH   4  13
BRANCH   1  16
ATOM     16  C   UNL     1       3.781  -1.125   2.174  0.00  0.00    +0.340 C 
ATOM     17  O   UNL     1       4.296  -1.001   3.269  0.00  0.00    -0.245 OA
BRANCH  16  18
ATOM     18  O   UNL     1       2.700  -1.918   2.023  0.00  0.00    -0.459 OA
BRANCH  18  20
ATOM     19  C   UNL     1       0.702  -2.786   3.071  0.00  0.00    +0.052 C 
ATOM     20  C   UNL     1       2.214  -2.582   3.192  0.00  0.00    +0.171 C 
ATOM     21  C   UNL     1       2.902  -3.941   3.330  0.00  0.00    +0.052 C 
ENDBRANCH  18  20
ENDBRANCH  16  18
ENDBRANCH   1  16
BRANCH   5  22
ATOM     22  C   UNL     1       3.722   0.165  -2.634  0.00  0.00    +0.101 C 
ATOM     23  N   UNL     1       3.273   0.136  -3.677  0.00  0.00    -0.191 NA
ENDBRANCH   5  22
BRANCH   2  24
ATOM     24  C   UNL     1       6.430  -0.346   2.296  0.00  0.00    +0.150 C 
BRANCH  24  25
ATOM     25  S   UNL     1       6.636   1.161   3.277  0.00  0.00    -0.097 S 
BRANCH  25  26
ATOM     26  C   UNL     1       7.621   0.534   4.597  0.00  0.00    +0.115 A 
ATOM     27  C   UNL     1       8.033   1.395   5.630  0.00  0.00    +0.084 A 
ATOM     28  C   UNL     1       8.812   0.872   6.669  0.00  0.00    +0.027 A 
ATOM     29  C   UNL     1       9.141  -0.472   6.622  0.00  0.00    -0.025 A 
ATOM     30  C   UNL     1       8.707  -1.252   5.580  0.00  0.00    +0.046 A 
ATOM     31  N   UNL     1       7.964  -0.745   4.610  0.00  0.00    -0.244 NA
ATOM     32  C   UNL     1       9.075  -2.722   5.533  0.00  0.00    +0.056 C 
ATOM     33  C   UNL     1      10.571  -2.838   5.232  0.00  0.00    +0.006 C 
ATOM     34  C   UNL     1      11.389  -2.750   6.505  0.00  0.00    +0.001 C 
ATOM     35  C   UNL     1      11.369  -1.388   7.170  0.00  0.00    +0.005 C 
ATOM     36  C   UNL     1       9.979  -1.074   7.730  0.00  0.00    +0.037 C 
BRANCH  27  37
ATOM     37  C   UNL     1       7.661   2.777   5.621  0.00  0.00    +0.102 C 
ATOM     38  N   UNL     1       7.366   3.874   5.613  0.00  0.00    -0.191 NA
ENDBRANCH  27  37
ENDBRANCH  25  26
ENDBRANCH  24  25
ENDBRANCH   2  24
TORSDOF 10
