REMARK  Name = ZINC13978366
REMARK  11 active torsions:
REMARK  status: ('A' for Active; 'I' for Inactive)
REMARK    1  A    between atoms: C_1  and  C_2
REMARK    2  A    between atoms: C_5  and  C_8
REMARK    3  A    between atoms: C_9  and  C_10
REMARK    4  A    between atoms: N_12  and  C_13
REMARK    5  A    between atoms: C_13  and  N_15
REMARK    6  A    between atoms: N_15  and  C_16
REMARK    7  A    between atoms: C_19  and  S_22
REMARK    8  A    between atoms: S_22  and  N_25
REMARK    9  A    between atoms: N_25  and  C_26
REMARK   10  A    between atoms: C_29  and  C_33
REMARK   11  A    between atoms: C_31  and  C_32
REMARK                            x       y       z     vdW  Elec       q    Type
REMARK                         _______ _______ _______ _____ _____    ______ ____
ROOT
ATOM      1  C   UNL     1       1.699   4.549   3.465  0.00  0.00    +0.033 A 
ATOM      2  C   UNL     1       2.533   3.442   3.384  0.00  0.00    +0.025 A 
ATOM      3  C   UNL     1       2.446   2.592   2.299  0.00  0.00    +0.030 A 
ATOM      4  C   UNL     1       1.530   2.842   1.294  0.00  0.00    +0.109 A 
ATOM      5  C   UNL     1       0.702   3.947   1.369  0.00  0.00    +0.030 A 
ATOM      6  C   UNL     1       0.780   4.798   2.454  0.00  0.00    +0.025 A 
ENDROOT
BRANCH   4   7
ATOM      7  S   UNL     1       1.422   1.755  -0.089  0.00  0.00    +0.072 S 
ATOM      8  O   UNL     1       2.681   1.104  -0.192  0.00  0.00    -0.150 OA
ATOM      9  O   UNL     1       0.864   2.509  -1.156  0.00  0.00    -0.150 OA
BRANCH   7  10
ATOM     10  N   UNL     1       0.315   0.585   0.294  0.00  0.00    -0.216 N 
ATOM     11  H   UNL     1       0.582  -0.347   0.318  0.00  0.00    +0.174 HD
BRANCH  10  12
ATOM     12  C   UNL     1      -1.007   0.940   0.576  0.00  0.00    +0.051 A 
ATOM     13  C   UNL     1      -1.606   1.992  -0.106  0.00  0.00    +0.025 A 
ATOM     14  C   UNL     1      -2.912   2.339   0.175  0.00  0.00    +0.005 A 
ATOM     15  C   UNL     1      -3.625   1.641   1.133  0.00  0.00    -0.050 A 
ATOM     16  C   UNL     1      -3.032   0.594   1.813  0.00  0.00    +0.008 A 
ATOM     17  C   UNL     1      -1.726   0.238   1.534  0.00  0.00    -0.028 A 
ATOM     18  C   UNL     1      -1.083  -0.908   2.272  0.00  0.00    +0.046 C 
ATOM     19  C   UNL     1      -5.051   2.023   1.436  0.00  0.00    +0.044 C 
ENDBRANCH  10  12
ENDBRANCH   7  10
ENDBRANCH   4   7
BRANCH   1  20
ATOM     20  N   UNL     1       1.784   5.412   4.563  0.00  0.00    -0.297 N 
ATOM     21  H   UNL     1       0.975   5.713   5.006  0.00  0.00    +0.154 HD
BRANCH  20  22
ATOM     22  C   UNL     1       2.988   5.824   5.005  0.00  0.00    +0.141 C 
ATOM     23  S   UNL     1       4.418   5.205   4.294  0.00  0.00    -0.018 S 
BRANCH  22  26
ATOM     24  C   UNL     1       4.273   7.135   6.447  0.00  0.00    +0.242 C 
ATOM     25  O   UNL     1       5.289   6.695   5.942  0.00  0.00    -0.270 OA
ATOM     26  N   UNL     1       3.068   6.723   6.005  0.00  0.00    -0.264 N 
ATOM     27  H   UNL     1       2.258   7.074   6.408  0.00  0.00    +0.157 HD
BRANCH  24  29
ATOM     28  C   UNL     1       5.565   8.524   7.975  0.00  0.00    +0.013 C 
ATOM     29  C   UNL     1       4.359   8.111   7.533  0.00  0.00    +0.068 C 
BRANCH  28  34
ATOM     30  C   UNL     1       5.903  12.360  12.244  0.00  0.00    +0.044 C 
ATOM     31  C   UNL     1       5.814  11.354  11.125  0.00  0.00    -0.050 A 
ATOM     32  C   UNL     1       6.973  10.857  10.553  0.00  0.00    +0.004 A 
ATOM     33  C   UNL     1       6.900   9.936   9.529  0.00  0.00    +0.008 A 
ATOM     34  C   UNL     1       5.651   9.506   9.068  0.00  0.00    -0.025 A 
ATOM     35  C   UNL     1       4.486  10.018   9.647  0.00  0.00    +0.008 A 
ATOM     36  C   UNL     1       4.575  10.934  10.674  0.00  0.00    +0.004 A 
ENDBRANCH  28  34
ENDBRANCH  24  29
ENDBRANCH  22  26
ENDBRANCH  20  22
ENDBRANCH   1  20
TORSDOF 8
