REMARK  Name = ZINC62626023
REMARK  7 active torsions:
REMARK  status: ('A' for Active; 'I' for Inactive)
REMARK    1  A    between atoms: C_6  and  C_7
REMARK    2  A    between atoms: C_7  and  C_12
REMARK    3  A    between atoms: N_14  and  N_15
REMARK    4  A    between atoms: N_15  and  C_16
REMARK    5  A    between atoms: C_19  and  S_22
REMARK    6  A    between atoms: S_22  and  N_25
REMARK    7  A    between atoms: N_25  and  C_26
REMARK                            x       y       z     vdW  Elec       q    Type
REMARK                         _______ _______ _______ _____ _____    ______ ____
ROOT
ATOM      1  C   UNL     1      -2.177  -0.311  -1.119  0.00  0.00    +0.240 C 
ATOM      2  O   UNL     1      -2.616  -1.114  -1.915  0.00  0.00    -0.273 OA
ATOM      3  N   UNL     1      -2.479   0.996  -1.244  0.00  0.00    -0.236 N 
ATOM      4  H   UNL     1      -2.071   1.647  -0.652  0.00  0.00    +0.173 HD
ENDROOT
BRANCH   1   5
ATOM      5  C   UNL     1      -1.292  -0.775   0.010  0.00  0.00    +0.073 C 
ATOM      6  C   UNL     1      -1.872  -0.310   1.362  0.00  0.00    +0.021 C 
ATOM      7  C   UNL     1      -2.689  -1.527   1.863  0.00  0.00    +0.001 C 
ATOM      8  C   UNL     1      -1.814  -2.729   1.429  0.00  0.00    +0.001 C 
ATOM      9  C   UNL     1      -1.256  -2.313   0.053  0.00  0.00    +0.021 C 
BRANCH   5  15
ATOM     10  C   UNL     1       0.429   0.467  -1.317  0.00  0.00    +0.006 A 
ATOM     11  C   UNL     1       1.706   0.967  -1.481  0.00  0.00    +0.015 A 
ATOM     12  C   UNL     1       2.658   0.770  -0.497  0.00  0.00    +0.018 A 
ATOM     13  C   UNL     1       2.330   0.073   0.652  0.00  0.00    +0.015 A 
ATOM     14  C   UNL     1       1.052  -0.426   0.816  0.00  0.00    +0.006 A 
ATOM     15  C   UNL     1       0.101  -0.230  -0.169  0.00  0.00    -0.032 A 
ATOM     16 BR   UNL     1       4.407   1.454  -0.721  0.00  0.00    -0.050 Br
ENDBRANCH   5  15
ENDBRANCH   1   5
BRANCH   3  17
ATOM     17  N   UNL     1      -3.384   1.415  -2.229  0.00  0.00    -0.264 N 
ATOM     18  H   UNL     1      -3.792   0.764  -2.820  0.00  0.00    +0.170 HD
BRANCH  17  19
ATOM     19  C   UNL     1      -3.698   2.770  -2.358  0.00  0.00    +0.045 A 
ATOM     20  C   UNL     1      -3.110   3.704  -1.515  0.00  0.00    +0.026 A 
ATOM     21  C   UNL     1      -3.422   5.043  -1.647  0.00  0.00    +0.030 A 
ATOM     22  C   UNL     1      -4.319   5.454  -2.615  0.00  0.00    +0.105 A 
ATOM     23  C   UNL     1      -4.907   4.526  -3.456  0.00  0.00    +0.030 A 
ATOM     24  C   UNL     1      -4.594   3.186  -3.334  0.00  0.00    +0.026 A 
BRANCH  22  25
ATOM     25  S   UNL     1      -4.715   7.163  -2.779  0.00  0.00    +0.059 S 
ATOM     26  O   UNL     1      -5.992   7.226  -3.399  0.00  0.00    -0.153 OA
ATOM     27  O   UNL     1      -4.449   7.764  -1.519  0.00  0.00    -0.153 OA
BRANCH  25  28
ATOM     28  N   UNL     1      -3.635   7.815  -3.851  0.00  0.00    -0.187 NA
ATOM     29  H   UNL     1      -3.002   8.488  -3.554  0.00  0.00    +0.148 HD
BRANCH  28  30
ATOM     30  C   UNL     1      -3.635   7.377  -5.249  0.00  0.00    +0.077 C 
ATOM     31  C   UNL     1      -2.289   7.334  -5.976  0.00  0.00    +0.022 C 
ATOM     32  C   UNL     1      -3.309   8.422  -6.318  0.00  0.00    +0.022 C 
ENDBRANCH  28  30
ENDBRANCH  25  28
ENDBRANCH  22  25
ENDBRANCH  17  19
ENDBRANCH   3  17
TORSDOF 7
