REMARK  Name = ZINC64794457
REMARK  9 active torsions:
REMARK  status: ('A' for Active; 'I' for Inactive)
REMARK    1  A    between atoms: C_1  and  O_2
REMARK    2  A    between atoms: O_2  and  C_3
REMARK    3  A    between atoms: C_7  and  C_9
REMARK    4  A    between atoms: C_9  and  S_10
REMARK    5  A    between atoms: S_10  and  C_11
REMARK    6  A    between atoms: C_14  and  C_22
REMARK    7  A    between atoms: N_15  and  C_16
REMARK    8  A    between atoms: C_16  and  C_17
REMARK    9  A    between atoms: C_23  and  N_31
REMARK                            x       y       z     vdW  Elec       q    Type
REMARK                         _______ _______ _______ _____ _____    ______ ____
ROOT
ATOM      1  C   UNL     1       2.752  -6.452  -1.655  0.00  0.00    +0.193 A 
ATOM      2  N   UNL     1       1.800  -7.130  -2.253  0.00  0.00    -0.122 NA
ATOM      3  N   UNL     1       2.052  -8.389  -2.203  0.00  0.00    -0.128 NA
ATOM      4  C   UNL     1       3.186  -8.594  -1.566  0.00  0.00    +0.174 A 
ATOM      5  N   UNL     1       3.672  -7.358  -1.201  0.00  0.00    -0.294 N 
ENDROOT
BRANCH   4   6
ATOM      6  C   UNL     1       3.816  -9.895  -1.301  0.00  0.00    +0.080 A 
ATOM      7  C   UNL     1       3.374 -11.133  -1.653  0.00  0.00    +0.052 A 
ATOM      8  C   UNL     1       4.170 -12.292  -1.280  0.00  0.00    +0.029 A 
ATOM      9  C   UNL     1       3.915 -13.662  -1.534  0.00  0.00    +0.014 A 
ATOM     10  C   UNL     1       4.814 -14.601  -1.083  0.00  0.00    +0.020 A 
ATOM     11  C   UNL     1       5.950 -14.210  -0.391  0.00  0.00    +0.112 A 
ATOM     12  N   UNL     1       6.183 -12.932  -0.157  0.00  0.00    -0.248 NA
ATOM     13  C   UNL     1       5.355 -11.998  -0.568  0.00  0.00    +0.111 A 
ATOM     14  S   UNL     1       5.344 -10.226  -0.447  0.00  0.00    -0.064 S 
BRANCH   7  15
ATOM     15  N   UNL     1       2.175 -11.289  -2.362  0.00  0.00    -0.356 N 
ATOM     16  H   UNL     1       1.651 -10.510  -2.606  0.00  0.00    +0.142 HD
ATOM     17  H   UNL     1       1.869 -12.175  -2.608  0.00  0.00    +0.142 HD
ENDBRANCH   7  15
ENDBRANCH   4   6
BRANCH   1  18
ATOM     18  S   UNL     1       2.834  -4.701  -1.477  0.00  0.00    -0.081 S 
BRANCH  18  19
ATOM     19  C   UNL     1       1.325  -4.106  -2.289  0.00  0.00    +0.112 C 
BRANCH  19  24
ATOM     20  C   UNL     1       0.606  -0.607  -1.056  0.00  0.00    +0.120 A 
ATOM     21  C   UNL     1       1.173   0.161  -2.063  0.00  0.00    +0.045 A 
ATOM     22  C   UNL     1       1.786  -0.455  -3.136  0.00  0.00    +0.004 A 
ATOM     23  C   UNL     1       1.836  -1.835  -3.208  0.00  0.00    +0.005 A 
ATOM     24  C   UNL     1       1.271  -2.602  -2.207  0.00  0.00    -0.034 A 
ATOM     25  C   UNL     1       0.661  -1.991  -1.128  0.00  0.00    +0.050 A 
BRANCH  20  27
ATOM     26  C   UNL     1      -0.017   1.425   0.010  0.00  0.00    +0.277 C 
ATOM     27  O   UNL     1       0.002  -0.004   0.002  0.00  0.00    -0.495 OA
ENDBRANCH  20  27
ENDBRANCH  19  24
ENDBRANCH  18  19
ENDBRANCH   1  18
BRANCH   5  28
ATOM     28  C   UNL     1       4.912  -7.073  -0.476  0.00  0.00    +0.200 C 
BRANCH  28  29
ATOM     29  C   UNL     1       4.639  -7.067   1.006  0.00  0.00    +0.125 A 
ATOM     30  C   UNL     1       4.720  -8.132   1.825  0.00  0.00    +0.046 A 
ATOM     31  C   UNL     1       4.383  -7.678   3.120  0.00  0.00    +0.041 A 
ATOM     32  C   UNL     1       4.115  -6.364   3.016  0.00  0.00    +0.195 A 
ATOM     33  O   UNL     1       4.277  -5.998   1.734  0.00  0.00    -0.466 OA
ENDBRANCH  28  29
ENDBRANCH   5  28
TORSDOF 8
