REMARK  Name = ZINC50694116
REMARK  5 active torsions:
REMARK  status: ('A' for Active; 'I' for Inactive)
REMARK    1  A    between atoms: C_1  and  C_2
REMARK    2  A    between atoms: C_5  and  N_9
REMARK    3  A    between atoms: C_10  and  C_12
REMARK    4  A    between atoms: C_14  and  N_19
REMARK    5  A    between atoms: C_17  and  N_18
REMARK                            x       y       z     vdW  Elec       q    Type
REMARK                         _______ _______ _______ _____ _____    ______ ____
ROOT
ATOM      1  N   UNL     1       0.070  -4.171  -0.023  0.00  0.00    -0.280 N 
ATOM      2  C   UNL     1      -0.035  -4.839  -1.189  0.00  0.00    +0.250 C 
ATOM      3  O   UNL     1      -0.053  -4.228  -2.240  0.00  0.00    -0.270 OA
ATOM      4  H   UNL     1       0.165  -4.660   0.809  0.00  0.00    +0.155 HD
ENDROOT
BRANCH   1   9
ATOM      5  C   UNL     1      -0.047   1.501   0.018  0.00  0.00    +0.044 C 
ATOM      6  C   UNL     1      -0.016  -0.005   0.008  0.00  0.00    -0.049 A 
ATOM      7  C   UNL     1      -0.612  -0.701  -1.028  0.00  0.00    +0.005 A 
ATOM      8  C   UNL     1      -0.586  -2.081  -1.041  0.00  0.00    +0.025 A 
ATOM      9  C   UNL     1       0.042  -2.772  -0.013  0.00  0.00    +0.048 A 
ATOM     10  C   UNL     1       0.640  -2.071   1.027  0.00  0.00    +0.039 A 
ATOM     11  C   UNL     1       0.614  -0.689   1.031  0.00  0.00    +0.020 A 
ATOM     12 BR   UNL     1       1.495  -3.006   2.431  0.00  0.00    -0.048 Br
ENDBRANCH   1   9
BRANCH   2  13
ATOM     13  C   UNL     1      -0.130  -6.310  -1.190  0.00  0.00    +0.060 A 
ATOM     14  C   UNL     1      -0.219  -7.009   0.017  0.00  0.00    +0.047 A 
ATOM     15  C   UNL     1      -0.307  -8.384   0.009  0.00  0.00    +0.127 A 
ATOM     16  C   UNL     1      -0.307  -9.079  -1.190  0.00  0.00    +0.034 A 
ATOM     17  C   UNL     1      -0.218  -8.403  -2.390  0.00  0.00    +0.026 A 
ATOM     18  C   UNL     1      -0.135  -7.016  -2.402  0.00  0.00    +0.037 A 
BRANCH  18  19
ATOM     19  N   UNL     1      -0.053  -6.333  -3.609  0.00  0.00    -0.357 N 
ATOM     20  H   UNL     1      -0.065  -5.363  -3.619  0.00  0.00    +0.142 HD
ATOM     21  H   UNL     1       0.018  -6.826  -4.441  0.00  0.00    +0.142 HD
ENDBRANCH  18  19
BRANCH  15  22
ATOM     22  N   UNL     1      -0.401  -9.123   1.288  0.00  0.00    +0.056 N 
ATOM     23  O   UNL     1      -0.402  -8.520   2.336  0.00  0.00    -0.126 OA
ATOM     24  O   UNL     1      -0.478 -10.329   1.285  0.00  0.00    -0.126 OA
ENDBRANCH  15  22
ENDBRANCH   2  13
TORSDOF 4
