REMARK  Name = ZINC32961829
REMARK  6 active torsions:
REMARK  status: ('A' for Active; 'I' for Inactive)
REMARK    1  A    between atoms: C_3  and  S_6
REMARK    2  A    between atoms: S_6  and  N_9
REMARK    3  A    between atoms: N_9  and  C_10
REMARK    4  A    between atoms: C_12  and  C_29
REMARK    5  A    between atoms: C_15  and  N_16
REMARK    6  A    between atoms: N_19  and  C_22
REMARK                            x       y       z     vdW  Elec       q    Type
REMARK                         _______ _______ _______ _____ _____    ______ ____
ROOT
ATOM      1  C   UNL     1       5.777   2.518   1.852  0.00  0.00    +0.096 A 
ATOM      2  C   UNL     1       6.648   2.845   0.832  0.00  0.00    +0.043 A 
ATOM      3  C   UNL     1       7.929   3.322   1.137  0.00  0.00    +0.065 A 
ATOM      4  C   UNL     1       8.321   3.463   2.472  0.00  0.00    +0.017 A 
ATOM      5  C   UNL     1       7.448   3.135   3.485  0.00  0.00    +0.026 A 
ATOM      6  C   UNL     1       6.173   2.667   3.184  0.00  0.00    +0.055 A 
ENDROOT
BRANCH   6   7
ATOM      7  N   UNL     1       5.293   2.341   4.212  0.00  0.00    -0.325 N 
ATOM      8  C   UNL     1       5.264   0.982   4.770  0.00  0.00    +0.124 C 
ATOM      9  C   UNL     1       5.479   1.071   6.286  0.00  0.00    +0.124 C 
ATOM     10  N   UNL     1       4.561   2.080   6.833  0.00  0.00    -0.327 N 
ATOM     11  C   UNL     1       4.590   3.439   6.275  0.00  0.00    +0.124 C 
ATOM     12  C   UNL     1       4.379   3.353   4.762  0.00  0.00    +0.124 C 
BRANCH  10  13
ATOM     13  C   UNL     1       3.677   1.754   7.864  0.00  0.00    +0.030 A 
ATOM     14  C   UNL     1       3.577   0.440   8.305  0.00  0.00    +0.024 A 
ATOM     15  C   UNL     1       2.703   0.120   9.325  0.00  0.00    +0.022 A 
ATOM     16  C   UNL     1       1.926   1.107   9.908  0.00  0.00    +0.041 A 
ATOM     17  C   UNL     1       2.024   2.416   9.471  0.00  0.00    +0.022 A 
ATOM     18  C   UNL     1       2.901   2.743   8.455  0.00  0.00    +0.024 A 
ATOM     19 CL   UNL     1       0.828   0.701  11.189  0.00  0.00    -0.084 Cl
ENDBRANCH  10  13
ENDBRANCH   6   7
BRANCH   3  20
ATOM     20  C   UNL     1       8.862   3.672   0.054  0.00  0.00    +0.387 C 
ATOM     21  O   UNL     1       8.518   3.548  -1.114  0.00  0.00    -0.241 OA
ATOM     22  O   UNL     1       9.981   4.088   0.321  0.00  0.00    -0.241 OA
ENDBRANCH   3  20
BRANCH   1  23
ATOM     23  N   UNL     1       4.495   2.041   1.552  0.00  0.00    -0.095 NA
BRANCH  23  24
ATOM     24  S   UNL     1       4.025   1.865  -0.026  0.00  0.00    +0.098 S 
ATOM     25  O   UNL     1       4.836   0.836  -0.578  0.00  0.00    -0.148 OA
ATOM     26  O   UNL     1       3.969   3.171  -0.582  0.00  0.00    -0.148 OA
BRANCH  24  29
ATOM     27  C   UNL     1       0.014   1.242   0.001  0.00  0.00    +0.010 A 
ATOM     28  C   UNL     1       1.207   1.942  -0.009  0.00  0.00    +0.037 A 
ATOM     29  C   UNL     1       2.373   1.252  -0.013  0.00  0.00    +0.148 A 
ATOM     30  S   UNL     1       1.802  -0.440  -0.004  0.00  0.00    -0.077 S 
ATOM     31  C   UNL     1       0.047  -0.113   0.006  0.00  0.00    +0.047 A 
ENDBRANCH  24  29
ENDBRANCH  23  24
ENDBRANCH   1  23
TORSDOF 6
