REMARK  Name = ZINC33825844
REMARK  9 active torsions:
REMARK  status: ('A' for Active; 'I' for Inactive)
REMARK    1  A    between atoms: C_4  and  C_7
REMARK    2  A    between atoms: C_7  and  O_8
REMARK    3  A    between atoms: O_8  and  C_9
REMARK    4  A    between atoms: C_15  and  C_31
REMARK    5  A    between atoms: C_17  and  C_27
REMARK    6  A    between atoms: C_17  and  C_29
REMARK    7  A    between atoms: C_18  and  N_26
REMARK    8  A    between atoms: C_20  and  C_24
REMARK    9  A    between atoms: C_36  and  C_37
REMARK                            x       y       z     vdW  Elec       q    Type
REMARK                         _______ _______ _______ _____ _____    ______ ____
ROOT
ATOM      1  C   UNL     1      -0.074   2.138  -0.261  0.00  0.00    +0.407 C 
ATOM      2  O   UNL     1       0.164   0.949  -0.178  0.00  0.00    -0.226 OA
ATOM      3  N   UNL     1      -1.349   2.574  -0.237  0.00  0.00    -0.243 N 
ATOM      4  C   UNL     1      -2.467   1.625  -0.116  0.00  0.00    +0.125 C 
ATOM      5  C   UNL     1      -3.465   1.920  -1.235  0.00  0.00    +0.048 C 
ATOM      6  C   UNL     1      -4.748   1.117  -1.007  0.00  0.00    +0.064 C 
ATOM      7  C   UNL     1      -5.746   1.467  -2.110  0.00  0.00    +0.170 C 
ATOM      8  C   UNL     1      -6.143   2.933  -2.038  0.00  0.00    +0.127 C 
ATOM      9  C   UNL     1      -5.030   3.818  -1.584  0.00  0.00    +0.052 C 
ATOM     10  C   UNL     1      -3.804   3.390  -1.218  0.00  0.00    -0.026 C 
ATOM     11  C   UNL     1      -2.830   4.326  -0.802  0.00  0.00    +0.020 C 
ATOM     12  C   UNL     1      -1.637   3.921  -0.329  0.00  0.00    +0.081 C 
ENDROOT
BRANCH   6  13
ATOM     13  C   UNL     1      -5.333   1.471   0.336  0.00  0.00    -0.029 A 
ATOM     14  C   UNL     1      -5.385   2.791   0.741  0.00  0.00    +0.004 A 
ATOM     15  C   UNL     1      -5.923   3.115   1.973  0.00  0.00    +0.000 A 
ATOM     16  C   UNL     1      -6.408   2.119   2.799  0.00  0.00    +0.001 A 
ATOM     17  C   UNL     1      -6.356   0.799   2.393  0.00  0.00    +0.012 A 
ATOM     18  C   UNL     1      -5.824   0.475   1.159  0.00  0.00    +0.058 A 
BRANCH  18  19
ATOM     19  C   UNL     1      -5.773  -0.964   0.714  0.00  0.00    +0.418 C 
ATOM     20  F   UNL     1      -6.323  -1.779   1.709  0.00  0.00    -0.166 F 
ATOM     21  F   UNL     1      -6.505  -1.113  -0.468  0.00  0.00    -0.166 F 
ATOM     22  F   UNL     1      -4.443  -1.336   0.489  0.00  0.00    -0.166 F 
ENDBRANCH  18  19
ENDBRANCH   6  13
BRANCH   8  23
ATOM     23  N   UNL     1      -6.580   3.370  -3.370  0.00  0.00    -0.321 NA
ATOM     24  H   UNL     1      -6.870   4.431  -3.331  0.00  0.00    +0.119 HD
ATOM     25  H   UNL     1      -5.757   3.241  -4.087  0.00  0.00    +0.119 HD
ENDBRANCH   8  23
BRANCH   9  26
ATOM     26  C   UNL     1      -5.283   5.226  -1.533  0.00  0.00    +0.097 C 
ATOM     27  N   UNL     1      -5.483   6.344  -1.493  0.00  0.00    -0.191 NA
ENDBRANCH   9  26
BRANCH   7  28
ATOM     28  C   UNL     1      -5.135   1.195  -3.421  0.00  0.00    +0.087 C 
ATOM     29  N   UNL     1      -4.662   0.985  -4.433  0.00  0.00    -0.195 NA
ENDBRANCH   7  28
BRANCH   7  30
ATOM     30  C   UNL     1      -6.949   0.632  -1.956  0.00  0.00    +0.087 C 
ATOM     31  N   UNL     1      -7.877  -0.012  -1.837  0.00  0.00    -0.195 NA
ENDBRANCH   7  30
BRANCH   1  32
ATOM     32  O   UNL     1       0.937   3.019  -0.383  0.00  0.00    -0.445 OA
BRANCH  32  33
ATOM     33  C   UNL     1       2.284   2.478  -0.408  0.00  0.00    +0.269 C 
BRANCH  33  37
ATOM     34  C   UNL     1       5.095   5.670  -0.805  0.00  0.00    +0.000 A 
ATOM     35  C   UNL     1       4.700   5.249   0.451  0.00  0.00    +0.000 A 
ATOM     36  C   UNL     1       3.791   4.216   0.579  0.00  0.00    +0.007 A 
ATOM     37  C   UNL     1       3.275   3.604  -0.548  0.00  0.00    -0.010 A 
ATOM     38  C   UNL     1       3.674   4.022  -1.804  0.00  0.00    +0.007 A 
ATOM     39  C   UNL     1       4.579   5.058  -1.933  0.00  0.00    +0.000 A 
ENDBRANCH  33  37
ENDBRANCH  32  33
ENDBRANCH   1  32
TORSDOF 9
