REMARK  Name = ZINC32934750
REMARK  11 active torsions:
REMARK  status: ('A' for Active; 'I' for Inactive)
REMARK    1  A    between atoms: C_1  and  C_2
REMARK    2  A    between atoms: C_2  and  C_3
REMARK    3  A    between atoms: C_2  and  C_4
REMARK    4  A    between atoms: C_7  and  C_10
REMARK    5  A    between atoms: C_12  and  C_15
REMARK    6  A    between atoms: N_17  and  C_18
REMARK    7  A    between atoms: N_21  and  C_24
REMARK    8  A    between atoms: C_24  and  C_25
REMARK    9  A    between atoms: N_27  and  C_28
REMARK   10  A    between atoms: C_28  and  C_29
REMARK   11  A    between atoms: C_28  and  C_30
REMARK                            x       y       z     vdW  Elec       q    Type
REMARK                         _______ _______ _______ _____ _____    ______ ____
ROOT
ATOM      1  C   UNL     1      -1.660  -1.736  -0.413  0.00  0.00    +0.263 C 
ATOM      2  O   UNL     1      -0.783  -2.418  -0.908  0.00  0.00    -0.269 OA
ATOM      3  N   UNL     1      -1.370  -0.513   0.071  0.00  0.00    -0.307 N 
ATOM      4  H   UNL     1      -2.163   0.104   0.519  0.00  0.00    +0.149 HD
ENDROOT
BRANCH   3   5
ATOM      5  C   UNL     1       0.002  -0.004   0.002  0.00  0.00    +0.070 C 
ATOM      6  C   UNL     1      -0.019   1.527   0.010  0.00  0.00    +0.004 C 
ATOM      7  C   UNL     1       1.419   2.052  -0.001  0.00  0.00    -0.076 C 
ATOM      8  N   UNL     1       2.134   1.548   1.179  0.00  0.00    +0.385 N 
ATOM      9  C   UNL     1       2.208   0.081   1.168  0.00  0.00    -0.076 C 
ATOM     10  C   UNL     1       0.794  -0.503   1.214  0.00  0.00    +0.004 C 
ATOM     11  H   UNL     1       1.565   1.848   2.070  0.00  0.00    -0.081 HD
BRANCH   8  12
ATOM     12  C   UNL     1       3.474   2.142   1.275  0.00  0.00    +0.019 C 
BRANCH  12  13
ATOM     13  C   UNL     1       3.351   3.622   1.530  0.00  0.00    +0.197 C 
ATOM     14  O   UNL     1       2.254   4.132   1.622  0.00  0.00    -0.278 OA
ATOM     15  N   UNL     1       4.459   4.379   1.655  0.00  0.00    -0.315 N 
ATOM     16  H   UNL     1       5.453   3.917   1.572  0.00  0.00    +0.149 HD
BRANCH  15  17
ATOM     17  C   UNL     1       4.338   5.818   1.903  0.00  0.00    +0.067 C 
ATOM     18  C   UNL     1       5.602   6.322   2.603  0.00  0.00    +0.027 C 
ATOM     19  C   UNL     1       4.165   6.552   0.572  0.00  0.00    +0.027 C 
ENDBRANCH  15  17
ENDBRANCH  12  13
ENDBRANCH   8  12
ENDBRANCH   3   5
BRANCH   1  22
ATOM     20  C   UNL     1      -5.235  -1.981   0.250  0.00  0.00    +0.109 A 
ATOM     21  N   UNL     1      -4.001  -1.515   0.198  0.00  0.00    -0.234 NA
ATOM     22  C   UNL     1      -3.040  -2.248  -0.344  0.00  0.00    +0.133 A 
ATOM     23  C   UNL     1      -3.346  -3.493  -0.835  0.00  0.00    +0.080 A 
ATOM     24  S   UNL     1      -5.049  -3.586  -0.508  0.00  0.00    -0.075 S 
BRANCH  20  28
ATOM     25  C   UNL     1      -8.729  -0.148   1.825  0.00  0.00    -0.045 A 
ATOM     26  C   UNL     1      -8.805  -1.415   1.274  0.00  0.00    +0.004 A 
ATOM     27  C   UNL     1      -7.673  -2.015   0.761  0.00  0.00    +0.011 A 
ATOM     28  C   UNL     1      -6.452  -1.342   0.799  0.00  0.00    +0.007 A 
ATOM     29  C   UNL     1      -6.381  -0.067   1.361  0.00  0.00    +0.011 A 
ATOM     30  C   UNL     1      -7.521   0.525   1.866  0.00  0.00    +0.004 A 
BRANCH  25  32
ATOM     31  C   UNL     1      -9.760   0.804   3.870  0.00  0.00    +0.012 C 
ATOM     32  C   UNL     1      -9.968   0.502   2.385  0.00  0.00    +0.013 C 
ATOM     33  C   UNL     1     -10.244   1.806   1.633  0.00  0.00    +0.012 C 
ENDBRANCH  25  32
ENDBRANCH  20  28
ENDBRANCH   1  22
TORSDOF 7
