REMARK  Name = ZINC44453249
REMARK  7 active torsions:
REMARK  status: ('A' for Active; 'I' for Inactive)
REMARK    1  A    between atoms: C_1  and  C_2
REMARK    2  A    between atoms: N_4  and  N_5
REMARK    3  A    between atoms: C_6  and  C_8
REMARK    4  A    between atoms: C_12  and  N_13
REMARK    5  A    between atoms: C_14  and  C_16
REMARK    6  A    between atoms: C_19  and  S_22
REMARK    7  A    between atoms: S_22  and  N_25
REMARK                            x       y       z     vdW  Elec       q    Type
REMARK                         _______ _______ _______ _____ _____    ______ ____
ROOT
ATOM      1  C   UNL     1      -7.169  -4.911   0.044  0.00  0.00    +0.037 A 
ATOM      2  C   UNL     1      -7.425  -3.539   0.048  0.00  0.00    +0.015 A 
ATOM      3  C   UNL     1      -8.727  -3.084   0.063  0.00  0.00    +0.029 A 
ATOM      4  C   UNL     1      -9.778  -3.984   0.073  0.00  0.00    +0.106 A 
ATOM      5  C   UNL     1      -9.531  -5.346   0.070  0.00  0.00    +0.029 A 
ATOM      6  C   UNL     1      -8.234  -5.814   0.050  0.00  0.00    +0.015 A 
ENDROOT
BRANCH   1   8
ATOM      7  N   UNL     1      -4.750  -4.532   0.023  0.00  0.00    -0.275 N 
ATOM      8  C   UNL     1      -5.776  -5.406   0.028  0.00  0.00    +0.249 C 
ATOM      9  O   UNL     1      -5.556  -6.602   0.020  0.00  0.00    -0.270 OA
ATOM     10  H   UNL     1      -4.926  -3.578   0.030  0.00  0.00    +0.156 HD
BRANCH   7  15
ATOM     11  C   UNL     1      -2.275  -4.250   0.001  0.00  0.00    +0.067 A 
ATOM     12  C   UNL     1      -1.036  -4.993  -0.009  0.00  0.00    +0.022 A 
ATOM     13  C   UNL     1      -1.155  -6.334  -0.016  0.00  0.00    +0.048 A 
ATOM     14  S   UNL     1      -2.916  -6.588  -0.009  0.00  0.00    -0.081 S 
ATOM     15  C   UNL     1      -3.445  -4.996   0.008  0.00  0.00    +0.084 A 
BRANCH  11  17
ATOM     16  N   UNL     1      -1.137  -2.095   0.002  0.00  0.00    -0.230 N 
ATOM     17  C   UNL     1      -2.295  -2.784   0.009  0.00  0.00    +0.262 C 
ATOM     18  O   UNL     1      -3.357  -2.190   0.022  0.00  0.00    -0.269 OA
ATOM     19  H   UNL     1      -0.290  -2.568  -0.009  0.00  0.00    +0.173 HD
BRANCH  16  23
ATOM     20  C   UNL     1      -0.018   1.503   0.010  0.00  0.00    +0.110 C 
ATOM     21  C   UNL     1       0.002  -0.004   0.002  0.00  0.00    +0.226 C 
ATOM     22  O   UNL     1       1.060  -0.596  -0.011  0.00  0.00    -0.275 OA
ATOM     23  N   UNL     1      -1.156  -0.694   0.009  0.00  0.00    -0.234 N 
ATOM     24  H   UNL     1      -2.002  -0.220   0.020  0.00  0.00    +0.173 HD
ENDBRANCH  16  23
ENDBRANCH  11  17
ENDBRANCH   7  15
ENDBRANCH   1   8
BRANCH   4  25
ATOM     25  S   UNL     1     -11.438  -3.394   0.092  0.00  0.00    +0.061 S 
ATOM     26  O   UNL     1     -12.232  -4.432   0.650  0.00  0.00    -0.153 OA
ATOM     27  O   UNL     1     -11.398  -2.085   0.643  0.00  0.00    -0.153 OA
BRANCH  25  28
ATOM     28  N   UNL     1     -11.917  -3.229  -1.485  0.00  0.00    -0.172 NA
ATOM     29  C   UNL     1     -11.711  -1.969  -2.220  0.00  0.00    +0.114 C 
ATOM     30  C   UNL     1     -10.741  -2.248  -3.367  0.00  0.00    +0.052 C 
ATOM     31  C   UNL     1     -11.145  -3.487  -4.122  0.00  0.00    -0.042 A 
ATOM     32  C   UNL     1     -10.652  -3.644  -5.411  0.00  0.00    +0.004 A 
ATOM     33  C   UNL     1     -10.975  -4.761  -6.154  0.00  0.00    +0.000 A 
ATOM     34  C   UNL     1     -11.794  -5.734  -5.612  0.00  0.00    +0.000 A 
ATOM     35  C   UNL     1     -12.287  -5.578  -4.333  0.00  0.00    +0.005 A 
ATOM     36  C   UNL     1     -11.968  -4.452  -3.587  0.00  0.00    -0.028 A 
ATOM     37  C   UNL     1     -12.556  -4.333  -2.208  0.00  0.00    +0.144 C 
ENDBRANCH  25  28
ENDBRANCH   4  25
TORSDOF 6
