REMARK  Name = ZINC13640959
REMARK  12 active torsions:
REMARK  status: ('A' for Active; 'I' for Inactive)
REMARK    1  A    between atoms: C_1  and  C_2
REMARK    2  A    between atoms: C_4  and  C_40
REMARK    3  A    between atoms: C_6  and  N_8
REMARK    4  A    between atoms: N_8  and  S_9
REMARK    5  A    between atoms: S_9  and  C_12
REMARK    6  A    between atoms: C_25  and  C_28
REMARK    7  A    between atoms: C_30  and  O_38
REMARK    8  A    between atoms: C_31  and  O_36
REMARK    9  A    between atoms: C_32  and  O_34
REMARK   10  A    between atoms: O_34  and  C_35
REMARK   11  A    between atoms: O_36  and  C_37
REMARK   12  A    between atoms: O_38  and  C_39
REMARK                            x       y       z     vdW  Elec       q    Type
REMARK                         _______ _______ _______ _____ _____    ______ ____
ROOT
ATOM      1  C   UNL     1      -2.668  -2.140   1.372  0.00  0.00    +0.109 A 
ATOM      2  C   UNL     1      -3.527  -1.237   0.771  0.00  0.00    +0.030 A 
ATOM      3  C   UNL     1      -3.030  -0.089   0.191  0.00  0.00    +0.025 A 
ATOM      4  C   UNL     1      -1.664   0.170   0.204  0.00  0.00    +0.031 A 
ATOM      5  C   UNL     1      -0.801  -0.754   0.804  0.00  0.00    -0.018 A 
ATOM      6  C   UNL     1      -1.308  -1.896   1.385  0.00  0.00    +0.034 A 
ATOM      7  C   UNL     1       0.647  -0.451   0.780  0.00  0.00    +0.049 C 
ATOM      8  C   UNL     1       1.577  -0.979   1.811  0.00  0.00    -0.023 C 
ATOM      9  C   UNL     1       2.560  -0.103   1.983  0.00  0.00    -0.030 C 
ATOM     10  C   UNL     1       2.338   1.116   1.086  0.00  0.00    +0.033 C 
ATOM     11  C   UNL     1       0.814   1.093   0.906  0.00  0.00    +0.029 C 
ATOM     12  C   UNL     1       0.260   1.667  -0.385  0.00  0.00    +0.105 C 
ATOM     13  N   UNL     1      -1.185   1.352  -0.373  0.00  0.00    -0.336 N 
ATOM     14  H   UNL     1      -1.812   1.975  -0.772  0.00  0.00    +0.147 HD
ENDROOT
BRANCH  12  15
ATOM     15  C   UNL     1       0.467   3.159  -0.423  0.00  0.00    -0.020 A 
ATOM     16  C   UNL     1      -0.397   3.993   0.261  0.00  0.00    +0.055 A 
ATOM     17  C   UNL     1      -0.206   5.366   0.233  0.00  0.00    +0.165 A 
ATOM     18  C   UNL     1       0.848   5.905  -0.494  0.00  0.00    +0.204 A 
ATOM     19  C   UNL     1       1.712   5.064  -1.185  0.00  0.00    +0.165 A 
ATOM     20  C   UNL     1       1.518   3.691  -1.147  0.00  0.00    +0.055 A 
BRANCH  19  21
ATOM     21  O   UNL     1       2.745   5.586  -1.899  0.00  0.00    -0.491 OA
ATOM     22  C   UNL     1       3.592   4.662  -2.585  0.00  0.00    +0.277 C 
ENDBRANCH  19  21
BRANCH  18  23
ATOM     23  O   UNL     1       1.035   7.252  -0.529  0.00  0.00    -0.488 OA
ATOM     24  C   UNL     1       0.376   7.972  -1.573  0.00  0.00    +0.277 C 
ENDBRANCH  18  23
BRANCH  17  25
ATOM     25  O   UNL     1      -1.054   6.185   0.912  0.00  0.00    -0.491 OA
ATOM     26  C   UNL     1      -2.116   5.562   1.638  0.00  0.00    +0.277 C 
ENDBRANCH  17  25
ENDBRANCH  12  15
BRANCH   1  27
ATOM     27  S   UNL     1      -3.309  -3.602   2.119  0.00  0.00    +0.072 S 
ATOM     28  O   UNL     1      -2.301  -4.083   2.998  0.00  0.00    -0.150 OA
ATOM     29  O   UNL     1      -4.622  -3.289   2.564  0.00  0.00    -0.150 OA
BRANCH  27  30
ATOM     30  N   UNL     1      -3.472  -4.734   0.922  0.00  0.00    -0.216 N 
ATOM     31  H   UNL     1      -4.351  -5.072   0.691  0.00  0.00    +0.174 HD
BRANCH  30  37
ATOM     32  C   UNL     1      -0.702  -4.798  -3.138  0.00  0.00    +0.044 C 
ATOM     33  C   UNL     1      -0.975  -5.249  -1.726  0.00  0.00    -0.048 A 
ATOM     34  C   UNL     1      -0.108  -6.126  -1.100  0.00  0.00    +0.006 A 
ATOM     35  C   UNL     1      -0.355  -6.541   0.196  0.00  0.00    -0.048 A 
ATOM     36  C   UNL     1      -1.470  -6.081   0.869  0.00  0.00    +0.028 A 
ATOM     37  C   UNL     1      -2.343  -5.200   0.243  0.00  0.00    +0.049 A 
ATOM     38  C   UNL     1      -2.095  -4.789  -1.060  0.00  0.00    +0.028 A 
ATOM     39  C   UNL     1       0.592  -7.497   0.873  0.00  0.00    +0.044 C 
ENDBRANCH  30  37
ENDBRANCH  27  30
ENDBRANCH   1  27
TORSDOF 7
