REMARK  Name = ZINC58849419
REMARK  12 active torsions:
REMARK  status: ('A' for Active; 'I' for Inactive)
REMARK    1  A    between atoms: C_1  and  O_2
REMARK    2  A    between atoms: O_2  and  C_3
REMARK    3  A    between atoms: C_6  and  O_39
REMARK    4  A    between atoms: C_7  and  N_9
REMARK    5  A    between atoms: N_9  and  S_10
REMARK    6  A    between atoms: S_10  and  C_13
REMARK    7  A    between atoms: C_26  and  C_29
REMARK    8  A    between atoms: C_32  and  O_37
REMARK    9  A    between atoms: C_33  and  O_35
REMARK   10  A    between atoms: O_35  and  C_36
REMARK   11  A    between atoms: O_37  and  C_38
REMARK   12  A    between atoms: O_39  and  C_40
REMARK                            x       y       z     vdW  Elec       q    Type
REMARK                         _______ _______ _______ _____ _____    ______ ____
ROOT
ATOM      1  C   UNL     1      -1.330  -4.673  -2.583  0.00  0.00    +0.109 A 
ATOM      2  C   UNL     1      -2.206  -3.648  -2.276  0.00  0.00    +0.030 A 
ATOM      3  C   UNL     1      -3.342  -3.467  -3.038  0.00  0.00    +0.025 A 
ATOM      4  C   UNL     1      -3.605  -4.311  -4.112  0.00  0.00    +0.031 A 
ATOM      5  C   UNL     1      -2.722  -5.332  -4.428  0.00  0.00    -0.018 A 
ATOM      6  C   UNL     1      -1.584  -5.506  -3.653  0.00  0.00    +0.034 A 
ATOM      7  C   UNL     1      -2.949  -6.232  -5.595  0.00  0.00    +0.049 C 
ATOM      8  C   UNL     1      -3.446  -7.592  -5.175  0.00  0.00    -0.023 C 
ATOM      9  C   UNL     1      -4.307  -8.049  -6.048  0.00  0.00    -0.030 C 
ATOM     10  C   UNL     1      -4.513  -7.059  -7.173  0.00  0.00    +0.033 C 
ATOM     11  C   UNL     1      -3.988  -5.725  -6.593  0.00  0.00    +0.029 C 
ATOM     12  C   UNL     1      -5.151  -5.000  -5.949  0.00  0.00    +0.105 C 
ATOM     13  N   UNL     1      -4.763  -4.129  -4.858  0.00  0.00    -0.336 N 
ATOM     14  H   UNL     1      -5.353  -3.395  -4.622  0.00  0.00    +0.147 HD
ENDROOT
BRANCH  12  15
ATOM     15  C   UNL     1      -6.139  -6.024  -5.453  0.00  0.00    -0.023 A 
ATOM     16  C   UNL     1      -5.915  -6.674  -4.254  0.00  0.00    +0.009 A 
ATOM     17  C   UNL     1      -6.819  -7.614  -3.795  0.00  0.00    +0.050 A 
ATOM     18  C   UNL     1      -7.952  -7.906  -4.537  0.00  0.00    +0.162 A 
ATOM     19  C   UNL     1      -8.177  -7.251  -5.744  0.00  0.00    +0.162 A 
ATOM     20  C   UNL     1      -7.270  -6.306  -6.196  0.00  0.00    +0.055 A 
BRANCH  19  21
ATOM     21  O   UNL     1      -9.288  -7.535  -6.476  0.00  0.00    -0.491 OA
ATOM     22  C   UNL     1      -9.454  -6.824  -7.705  0.00  0.00    +0.277 C 
ENDBRANCH  19  21
BRANCH  18  23
ATOM     23  O   UNL     1      -8.842  -8.831  -4.087  0.00  0.00    -0.491 OA
ATOM     24  C   UNL     1      -8.545  -9.464  -2.841  0.00  0.00    +0.277 C 
ENDBRANCH  18  23
ENDBRANCH  12  15
BRANCH   1  25
ATOM     25  S   UNL     1       0.118  -4.913  -1.607  0.00  0.00    +0.072 S 
ATOM     26  O   UNL     1       0.496  -6.273  -1.770  0.00  0.00    -0.150 OA
ATOM     27  O   UNL     1      -0.152  -4.344  -0.333  0.00  0.00    -0.150 OA
BRANCH  25  28
ATOM     28  N   UNL     1       1.322  -4.002  -2.286  0.00  0.00    -0.213 N 
ATOM     29  H   UNL     1       2.128  -4.431  -2.615  0.00  0.00    +0.174 HD
BRANCH  28  34
ATOM     30  C   UNL     1       0.375  -0.535  -1.493  0.00  0.00    +0.122 A 
ATOM     31  C   UNL     1       0.893   0.137  -2.591  0.00  0.00    +0.049 A 
ATOM     32  C   UNL     1       1.551  -0.562  -3.585  0.00  0.00    +0.051 A 
ATOM     33  C   UNL     1       1.696  -1.936  -3.488  0.00  0.00    +0.143 A 
ATOM     34  C   UNL     1       1.177  -2.614  -2.387  0.00  0.00    +0.093 A 
ATOM     35  C   UNL     1       0.522  -1.909  -1.388  0.00  0.00    +0.073 A 
BRANCH  30  37
ATOM     36  C   UNL     1      -0.387   1.570  -0.690  0.00  0.00    +0.277 C 
ATOM     37  O   UNL     1      -0.272   0.156  -0.517  0.00  0.00    -0.495 OA
ENDBRANCH  30  37
BRANCH  33  38
ATOM     38  O   UNL     1       2.343  -2.624  -4.468  0.00  0.00    -0.493 OA
ATOM     39  C   UNL     1       2.848  -1.864  -5.568  0.00  0.00    +0.277 C 
ENDBRANCH  33  38
ENDBRANCH  28  34
ENDBRANCH  25  28
ENDBRANCH   1  25
TORSDOF 8
