REMARK  Name = ZINC61886369
REMARK  4 active torsions:
REMARK  status: ('A' for Active; 'I' for Inactive)
REMARK    1  A    between atoms: C_6  and  C_7
REMARK    2  A    between atoms: N_9  and  C_10
REMARK    3  A    between atoms: C_15  and  C_17
REMARK    4  A    between atoms: N_18  and  O_19
REMARK                            x       y       z     vdW  Elec       q    Type
REMARK                         _______ _______ _______ _____ _____    ______ ____
ROOT
ATOM      1  C   UNL     1      -2.585  -2.885   0.033  0.00  0.00    +0.083 C 
ATOM      2  C   UNL     1      -3.040  -3.153   1.478  0.00  0.00    +0.023 C 
ATOM      3  C   UNL     1      -2.993  -4.682   1.678  0.00  0.00    +0.003 C 
ATOM      4  C   UNL     1      -3.115  -5.256   0.245  0.00  0.00    +0.013 C 
ATOM      5  C   UNL     1      -2.279  -4.259  -0.596  0.00  0.00    +0.076 C 
ENDROOT
BRANCH   5   6
ATOM      6  C   UNL     1      -2.715  -4.289  -2.038  0.00  0.00    +0.136 C 
ATOM      7  N   UNL     1      -2.015  -4.934  -2.912  0.00  0.00    -0.076 NA
ATOM      8  N   UNL     1      -3.860  -3.628  -2.425  0.00  0.00    -0.344 N 
ATOM      9  H   UNL     1      -4.385  -3.143  -1.769  0.00  0.00    +0.144 HD
ATOM     10  H   UNL     1      -4.140  -3.647  -3.353  0.00  0.00    +0.144 HD
BRANCH   7  11
ATOM     11  O   UNL     1      -0.902  -5.705  -2.498  0.00  0.00    -0.408 OA
ATOM     12  H   UNL     1      -0.442  -6.151  -3.221  0.00  0.00    +0.328 HD
ENDBRANCH   7  11
ENDBRANCH   5   6
BRANCH   1  15
ATOM     13  C   UNL     1      -1.488  -0.709   0.061  0.00  0.00    +0.244 C 
ATOM     14  O   UNL     1      -2.586  -0.188   0.087  0.00  0.00    -0.270 OA
ATOM     15  N   UNL     1      -1.379  -2.052   0.032  0.00  0.00    -0.308 N 
ATOM     16  H   UNL     1      -0.503  -2.468   0.011  0.00  0.00    +0.149 HD
BRANCH  13  22
ATOM     17  C   UNL     1      -0.381   1.522   0.090  0.00  0.00    +0.014 A 
ATOM     18  C   UNL     1       0.758   2.300   0.089  0.00  0.00    +0.016 A 
ATOM     19  C   UNL     1       2.008   1.704   0.060  0.00  0.00    +0.018 A 
ATOM     20  C   UNL     1       2.122   0.324   0.030  0.00  0.00    +0.016 A 
ATOM     21  C   UNL     1       0.991  -0.465   0.030  0.00  0.00    +0.014 A 
ATOM     22  C   UNL     1      -0.272   0.131   0.060  0.00  0.00    +0.037 A 
ATOM     23 BR   UNL     1       3.564   2.778   0.059  0.00  0.00    -0.050 Br
ENDBRANCH  13  22
ENDBRANCH   1  15
TORSDOF 4
