REMARK  Name = ZINC00723944
REMARK  8 active torsions:
REMARK  status: ('A' for Active; 'I' for Inactive)
REMARK    1  A    between atoms: C_4  and  N_7
REMARK    2  A    between atoms: C_16  and  S_17
REMARK    3  A    between atoms: S_17  and  C_18
REMARK    4  A    between atoms: C_18  and  C_20
REMARK    5  A    between atoms: C_18  and  C_23
REMARK    6  A    between atoms: C_20  and  C_21
REMARK    7  A    between atoms: C_21  and  O_22
REMARK    8  A    between atoms: N_25  and  C_26
REMARK                            x       y       z     vdW  Elec       q    Type
REMARK                         _______ _______ _______ _____ _____    ______ ____
ROOT
ATOM      1  N   UNL     1       1.194   6.215   0.317  0.00  0.00    -0.255 N 
ATOM      2  C   UNL     1       1.982   5.139   0.086  0.00  0.00    +0.268 A 
ATOM      3  O   UNL     1       3.163   5.251  -0.194  0.00  0.00    -0.267 OA
ATOM      4  C   UNL     1       1.344   3.861   0.192  0.00  0.00    +0.076 A 
ATOM      5  C   UNL     1       1.964   2.561  -0.007  0.00  0.00    -0.023 A 
ATOM      6  C   UNL     1       1.167   1.479   0.142  0.00  0.00    -0.004 A 
ATOM      7  S   UNL     1      -0.433   2.132   0.546  0.00  0.00    -0.073 S 
ATOM      8  C   UNL     1      -0.030   3.850   0.523  0.00  0.00    +0.117 A 
ATOM      9  N   UNL     1      -0.750   4.944   0.739  0.00  0.00    -0.215 NA
ATOM     10  C   UNL     1      -0.129   6.111   0.633  0.00  0.00    +0.178 A 
ATOM     11  C   UNL     1       1.553   0.040  -0.008  0.00  0.00    +0.043 C 
ATOM     12  C   UNL     1       2.910  -0.028  -0.724  0.00  0.00    +0.005 C 
ATOM     13  C   UNL     1       3.867   0.962  -0.053  0.00  0.00    +0.005 C 
ATOM     14  C   UNL     1       3.438   2.395  -0.369  0.00  0.00    +0.037 C 
ENDROOT
BRANCH   1  18
ATOM     15  C   UNL     1       2.883  10.016   0.051  0.00  0.00    +0.000 A 
ATOM     16  C   UNL     1       2.131   9.520  -0.998  0.00  0.00    +0.002 A 
ATOM     17  C   UNL     1       1.570   8.261  -0.913  0.00  0.00    +0.026 A 
ATOM     18  C   UNL     1       1.762   7.492   0.228  0.00  0.00    +0.052 A 
ATOM     19  C   UNL     1       2.513   7.995   1.282  0.00  0.00    +0.026 A 
ATOM     20  C   UNL     1       3.076   9.253   1.188  0.00  0.00    +0.002 A 
ENDBRANCH   1  18
BRANCH  10  21
ATOM     21  S   UNL     1      -1.050   7.587   0.911  0.00  0.00    -0.074 S 
BRANCH  21  22
ATOM     22  C   UNL     1      -2.694   6.883   1.194  0.00  0.00    +0.142 C 
BRANCH  22  23
ATOM     23  C   UNL     1      -3.174   6.207  -0.065  0.00  0.00    +0.227 C 
ATOM     24  O   UNL     1      -2.678   6.494  -1.134  0.00  0.00    -0.275 OA
ATOM     25  N   UNL     1      -4.154   5.285  -0.002  0.00  0.00    -0.312 N 
ATOM     26  H   UNL     1      -4.551   5.056   0.853  0.00  0.00    +0.149 HD
BRANCH  25  27
ATOM     27  C   UNL     1      -4.621   4.628  -1.226  0.00  0.00    +0.073 C 
ATOM     28  C   UNL     1      -5.684   5.498  -1.898  0.00  0.00    +0.022 C 
ATOM     29  C   UNL     1      -6.172   4.812  -3.176  0.00  0.00    +0.002 C 
ATOM     30  C   UNL     1      -6.775   3.451  -2.825  0.00  0.00    +0.000 C 
ATOM     31  C   UNL     1      -5.712   2.580  -2.153  0.00  0.00    +0.002 C 
ATOM     32  C   UNL     1      -5.224   3.266  -0.875  0.00  0.00    +0.022 C 
ENDBRANCH  25  27
ENDBRANCH  22  23
BRANCH  22  33
ATOM     33  C   UNL     1      -3.668   8.000   1.577  0.00  0.00    +0.052 C 
BRANCH  33  34
ATOM     34  C   UNL     1      -3.221   8.637   2.894  0.00  0.00    +0.157 C 
BRANCH  34  35
ATOM     35  O   UNL     1      -4.167   9.633   3.286  0.00  0.00    -0.395 OA
ATOM     36  H   UNL     1      -3.947  10.079   4.115  0.00  0.00    +0.209 HD
ENDBRANCH  34  35
ENDBRANCH  33  34
ENDBRANCH  22  33
ENDBRANCH  21  22
ENDBRANCH  10  21
TORSDOF 8
