REMARK  Name = ZINC44792171
REMARK  6 active torsions:
REMARK  status: ('A' for Active; 'I' for Inactive)
REMARK    1  A    between atoms: C_1  and  C_2
REMARK    2  A    between atoms: C_8  and  N_10
REMARK    3  A    between atoms: N_10  and  C_11
REMARK    4  A    between atoms: C_12  and  C_14
REMARK    5  A    between atoms: C_14  and  C_20
REMARK    6  A    between atoms: N_21  and  O_22
REMARK                            x       y       z     vdW  Elec       q    Type
REMARK                         _______ _______ _______ _____ _____    ______ ____
ROOT
ATOM      1  C   UNL     1       3.744   1.318   2.129  0.00  0.00    +0.109 C 
ATOM      2  C   UNL     1       3.733   2.614   2.944  0.00  0.00    +0.052 C 
ATOM      3  C   UNL     1       3.406   2.287   4.404  0.00  0.00    +0.161 C 
ATOM      4  O   UNL     1       4.365   1.356   4.908  0.00  0.00    -0.380 OA
ATOM      5  C   UNL     1       4.387   0.107   4.214  0.00  0.00    +0.161 C 
ATOM      6  C   UNL     1       4.754   0.346   2.747  0.00  0.00    +0.052 C 
ENDROOT
BRANCH   1   7
ATOM      7  C   UNL     1       4.140   1.618   0.706  0.00  0.00    +0.147 C 
ATOM      8  N   UNL     1       5.255   1.165   0.236  0.00  0.00    -0.076 NA
ATOM      9  N   UNL     1       3.313   2.376  -0.094  0.00  0.00    -0.343 N 
ATOM     10  H   UNL     1       2.514   2.779   0.280  0.00  0.00    +0.144 HD
ATOM     11  H   UNL     1       3.530   2.505  -1.030  0.00  0.00    +0.144 HD
BRANCH   8  12
ATOM     12  O   UNL     1       5.627   1.447  -1.101  0.00  0.00    -0.408 OA
ATOM     13  H   UNL     1       6.477   1.066  -1.361  0.00  0.00    +0.328 HD
ENDBRANCH   8  12
ENDBRANCH   1   7
BRANCH   1  16
ATOM     14  N   UNL     1       2.056  -0.274   1.270  0.00  0.00    -0.300 N 
ATOM     15  C   UNL     1       3.084  -0.813   0.376  0.00  0.00    +0.132 C 
ATOM     16  C   UNL     1       2.371   0.698   2.150  0.00  0.00    +0.229 C 
ATOM     17  O   UNL     1       1.548   1.073   2.958  0.00  0.00    -0.275 OA
BRANCH  14  24
ATOM     18  C   UNL     1       0.111   0.941  -0.499  0.00  0.00    +0.009 C 
ATOM     19  C   UNL     1       0.117  -0.558  -0.193  0.00  0.00    +0.006 C 
ATOM     20  C   UNL     1      -1.313  -1.098  -0.258  0.00  0.00    +0.005 C 
ATOM     21  C   UNL     1      -1.307  -2.597   0.048  0.00  0.00    +0.000 C 
ATOM     22  C   UNL     1      -0.737  -2.830   1.449  0.00  0.00    +0.002 C 
ATOM     23  C   UNL     1       0.693  -2.290   1.514  0.00  0.00    +0.023 C 
ATOM     24  C   UNL     1       0.687  -0.791   1.208  0.00  0.00    +0.079 C 
ENDBRANCH  14  24
ENDBRANCH   1  16
TORSDOF 4
