REMARK  Name = ZINC59384959
REMARK  8 active torsions:
REMARK  status: ('A' for Active; 'I' for Inactive)
REMARK    1  A    between atoms: C_1  and  C_2
REMARK    2  A    between atoms: C_3  and  C_18
REMARK    3  A    between atoms: C_4  and  C_10
REMARK    4  A    between atoms: N_20  and  N_21
REMARK    5  A    between atoms: C_22  and  C_23
REMARK    6  A    between atoms: C_26  and  N_29
REMARK    7  A    between atoms: N_29  and  C_30
REMARK    8  A    between atoms: N_29  and  C_31
REMARK                            x       y       z     vdW  Elec       q    Type
REMARK                         _______ _______ _______ _____ _____    ______ ____
ROOT
ATOM      1  C   UNL     1      -1.497  -1.474   2.128  0.00  0.00    +0.061 C 
ATOM      2  C   UNL     1      -0.579  -1.490   0.932  0.00  0.00    +0.017 C 
ATOM      3  C   UNL     1      -0.970  -0.892  -0.213  0.00  0.00    +0.057 C 
ATOM      4  C   UNL     1      -0.017  -0.931  -1.390  0.00  0.00    +0.141 C 
ATOM      5  N   UNL     1       1.267  -1.625  -1.187  0.00  0.00    -0.315 N 
ATOM      6  C   UNL     1       1.514  -2.175   0.018  0.00  0.00    +0.135 C 
ATOM      7  S   UNL     1       3.002  -2.984   0.269  0.00  0.00    -0.019 S 
ATOM      8  N   UNL     1       0.637  -2.105   1.027  0.00  0.00    -0.300 N 
ATOM      9  H   UNL     1       1.918  -1.684  -1.903  0.00  0.00    +0.149 HD
ATOM     10  H   UNL     1       0.876  -2.519   1.872  0.00  0.00    +0.154 HD
ENDROOT
BRANCH   4  11
ATOM     11  C   UNL     1      -0.727  -1.598  -2.540  0.00  0.00    -0.004 A 
ATOM     12  C   UNL     1      -0.621  -2.965  -2.719  0.00  0.00    +0.008 A 
ATOM     13  C   UNL     1      -1.272  -3.577  -3.773  0.00  0.00    +0.020 A 
ATOM     14  C   UNL     1      -2.030  -2.821  -4.651  0.00  0.00    +0.042 A 
ATOM     15  C   UNL     1      -2.136  -1.454  -4.473  0.00  0.00    +0.040 A 
ATOM     16  C   UNL     1      -1.488  -0.843  -3.414  0.00  0.00    +0.048 A 
ATOM     17 CL   UNL     1      -1.625   0.873  -3.186  0.00  0.00    -0.083 Cl
ATOM     18 CL   UNL     1      -2.847  -3.590  -5.976  0.00  0.00    -0.083 Cl
ENDBRANCH   4  11
BRANCH   3  19
ATOM     19  C   UNL     1      -2.228  -0.249  -0.311  0.00  0.00    +0.263 C 
ATOM     20  O   UNL     1      -2.303   0.962  -0.208  0.00  0.00    -0.269 OA
ATOM     21  N   UNL     1      -3.343  -0.978  -0.517  0.00  0.00    -0.203 N 
ATOM     22  H   UNL     1      -3.294  -1.947  -0.526  0.00  0.00    +0.178 HD
BRANCH  21  23
ATOM     23  N   UNL     1      -4.572  -0.336  -0.719  0.00  0.00    -0.187 NA
ATOM     24  C   UNL     1      -5.627  -1.033  -1.014  0.00  0.00    +0.138 C 
BRANCH  24  25
ATOM     25  C   UNL     1      -6.894  -0.351  -1.334  0.00  0.00    -0.005 A 
ATOM     26  C   UNL     1      -6.960   1.045  -1.327  0.00  0.00    +0.011 A 
ATOM     27  C   UNL     1      -8.145   1.678  -1.627  0.00  0.00    +0.024 A 
ATOM     28  C   UNL     1      -9.276   0.930  -1.938  0.00  0.00    +0.029 A 
ATOM     29  C   UNL     1      -9.214  -0.459  -1.946  0.00  0.00    +0.024 A 
ATOM     30  C   UNL     1      -8.031  -1.099  -1.652  0.00  0.00    +0.011 A 
BRANCH  28  31
ATOM     31  N   UNL     1     -10.476   1.575  -2.240  0.00  0.00    -0.336 N 
ATOM     32  C   UNL     1     -10.514   3.035  -2.353  0.00  0.00    +0.129 C 
ATOM     33  C   UNL     1     -11.697   0.792  -2.446  0.00  0.00    +0.129 C 
ENDBRANCH  28  31
ENDBRANCH  24  25
ENDBRANCH  21  23
ENDBRANCH   3  19
TORSDOF 5
