REMARK  Name = ZINC35394266
REMARK  11 active torsions:
REMARK  status: ('A' for Active; 'I' for Inactive)
REMARK    1  A    between atoms: C_1  and  C_2
REMARK    2  A    between atoms: C_2  and  C_3
REMARK    3  A    between atoms: C_3  and  N_4
REMARK    4  A    between atoms: C_5  and  C_30
REMARK    5  A    between atoms: C_13  and  C_19
REMARK    6  A    between atoms: N_21  and  C_22
REMARK    7  A    between atoms: C_25  and  C_29
REMARK    8  A    between atoms: C_26  and  C_28
REMARK    9  A    between atoms: N_32  and  C_33
REMARK   10  A    between atoms: C_38  and  C_43
REMARK   11  A    between atoms: C_40  and  C_42
REMARK                            x       y       z     vdW  Elec       q    Type
REMARK                         _______ _______ _______ _____ _____    ______ ____
ROOT
ATOM      1  N   UNL     1      -1.970  -2.064  -0.393  0.00  0.00    -0.287 N 
ATOM      2  C   UNL     1      -1.888  -3.017  -1.544  0.00  0.00    +0.198 C 
ATOM      3  C   UNL     1      -2.307  -4.306  -0.907  0.00  0.00    +0.127 C 
ATOM      4  C   UNL     1      -3.787  -4.346  -0.575  0.00  0.00    +0.009 C 
ATOM      5  C   UNL     1      -4.002  -5.537  -0.034  0.00  0.00    +0.004 C 
ATOM      6  C   UNL     1      -2.622  -6.204   0.019  0.00  0.00    +0.155 C 
ATOM      7  O   UNL     1      -1.981  -5.644  -1.202  0.00  0.00    -0.358 OA
ATOM      8  C   UNL     1      -1.913  -5.409   1.183  0.00  0.00    +0.123 C 
ATOM      9  C   UNL     1      -1.491  -4.143   0.438  0.00  0.00    +0.128 C 
ATOM     10  C   UNL     1      -1.832  -2.753   0.788  0.00  0.00    +0.223 C 
ATOM     11  O   UNL     1      -1.968  -2.304   1.906  0.00  0.00    -0.275 OA
ENDROOT
BRANCH   8  12
ATOM     12  C   UNL     1      -2.879  -5.106   2.299  0.00  0.00    +0.224 C 
ATOM     13  O   UNL     1      -3.125  -3.956   2.593  0.00  0.00    -0.275 OA
ATOM     14  N   UNL     1      -3.471  -6.114   2.970  0.00  0.00    -0.285 N 
ATOM     15  H   UNL     1      -3.335  -7.032   2.686  0.00  0.00    +0.155 HD
BRANCH  14  16
ATOM     16  C   UNL     1      -4.282  -5.837   4.076  0.00  0.00    +0.034 A 
ATOM     17  C   UNL     1      -5.381  -6.641   4.352  0.00  0.00    +0.023 A 
ATOM     18  C   UNL     1      -6.179  -6.365   5.444  0.00  0.00    +0.005 A 
ATOM     19  C   UNL     1      -5.886  -5.289   6.263  0.00  0.00    -0.047 A 
ATOM     20  C   UNL     1      -4.794  -4.487   5.990  0.00  0.00    -0.046 A 
ATOM     21  C   UNL     1      -3.987  -4.762   4.903  0.00  0.00    +0.027 A 
ATOM     22  C   UNL     1      -4.479  -3.316   6.885  0.00  0.00    +0.044 C 
ATOM     23  C   UNL     1      -6.760  -4.991   7.453  0.00  0.00    +0.044 C 
ENDBRANCH  14  16
ENDBRANCH   8  12
BRANCH   2  24
ATOM     24  C   UNL     1      -2.844  -2.622  -2.639  0.00  0.00    +0.237 C 
ATOM     25  O   UNL     1      -3.766  -1.872  -2.398  0.00  0.00    -0.274 OA
ATOM     26  N   UNL     1      -2.674  -3.101  -3.888  0.00  0.00    -0.311 N 
ATOM     27  H   UNL     1      -1.936  -3.700  -4.080  0.00  0.00    +0.149 HD
BRANCH  26  28
ATOM     28  C   UNL     1      -3.603  -2.716  -4.953  0.00  0.00    +0.076 C 
ATOM     29  C   UNL     1      -4.823  -3.639  -4.923  0.00  0.00    +0.022 C 
ATOM     30  C   UNL     1      -5.794  -3.237  -6.035  0.00  0.00    +0.002 C 
ATOM     31  C   UNL     1      -5.095  -3.360  -7.391  0.00  0.00    +0.003 C 
ATOM     32  C   UNL     1      -3.874  -2.438  -7.421  0.00  0.00    -0.009 C 
ATOM     33  C   UNL     1      -2.904  -2.839  -6.308  0.00  0.00    +0.009 C 
ATOM     34  C   UNL     1      -2.455  -4.286  -6.521  0.00  0.00    +0.009 C 
ATOM     35  C   UNL     1      -3.175  -2.561  -8.776  0.00  0.00    +0.008 C 
ENDBRANCH  26  28
ENDBRANCH   2  24
BRANCH   1  36
ATOM     36  C   UNL     1      -2.161  -0.616  -0.508  0.00  0.00    +0.108 C 
BRANCH  36  38
ATOM     37  C   UNL     1      -0.998   1.584  -0.727  0.00  0.00    +0.005 C 
ATOM     38  C   UNL     1      -0.798   0.072  -0.606  0.00  0.00    +0.016 C 
ENDBRANCH  36  38
ENDBRANCH   1  36
TORSDOF 6
