REMARK  Name = ZINC57003558
REMARK  3 active torsions:
REMARK  status: ('A' for Active; 'I' for Inactive)
REMARK    1  A    between atoms: C_8  and  O_27
REMARK    2  A    between atoms: C_10  and  N_12
REMARK    3  A    between atoms: N_15  and  C_16
REMARK                            x       y       z     vdW  Elec       q    Type
REMARK                         _______ _______ _______ _____ _____    ______ ____
ROOT
ATOM      1  N   UNL     1       4.147  -1.058   1.302  0.00  0.00    -0.290 N 
ATOM      2  C   UNL     1       5.090  -0.183   1.704  0.00  0.00    +0.301 C 
ATOM      3  O   UNL     1       5.457   0.702   0.956  0.00  0.00    -0.253 OA
ATOM      4  N   UNL     1       5.626  -0.289   2.936  0.00  0.00    -0.292 N 
ATOM      5  H   UNL     1       3.854  -1.764   1.899  0.00  0.00    +0.151 HD
ATOM      6  H   UNL     1       5.333  -0.996   3.533  0.00  0.00    +0.151 HD
ENDROOT
BRANCH   4   7
ATOM      7  C   UNL     1       6.651   0.662   3.373  0.00  0.00    +0.111 C 
ATOM      8  C   UNL     1       6.644   0.751   4.902  0.00  0.00    +0.068 C 
ATOM      9  C   UNL     1       7.900   1.511   5.346  0.00  0.00    +0.231 C 
ATOM     10  O   UNL     1       9.045   0.735   4.988  0.00  0.00    -0.492 OA
ATOM     11  C   UNL     1       9.117   0.257   3.718  0.00  0.00    +0.125 A 
ATOM     12  C   UNL     1       8.004   0.195   2.899  0.00  0.00    +0.015 A 
ATOM     13  C   UNL     1       8.123  -0.305   1.613  0.00  0.00    +0.009 A 
ATOM     14  C   UNL     1       9.348  -0.738   1.145  0.00  0.00    +0.001 A 
ATOM     15  C   UNL     1      10.462  -0.674   1.961  0.00  0.00    +0.004 A 
ATOM     16  C   UNL     1      10.349  -0.178   3.242  0.00  0.00    +0.046 A 
ENDBRANCH   4   7
BRANCH   1  25
ATOM     17  C   UNL     1      -0.017   1.377   0.010  0.00  0.00    +0.000 A 
ATOM     18  C   UNL     1       1.172   2.083   0.002  0.00  0.00    +0.000 A 
ATOM     19  C   UNL     1       2.376   1.406  -0.013  0.00  0.00    +0.006 A 
ATOM     20  C   UNL     1       2.396   0.021  -0.021  0.00  0.00    -0.021 A 
ATOM     21  C   UNL     1       1.208  -0.685  -0.013  0.00  0.00    -0.040 A 
ATOM     22  C   UNL     1       0.002  -0.004   0.002  0.00  0.00    +0.004 A 
ATOM     23  C   UNL     1       1.496  -2.171  -0.025  0.00  0.00    +0.069 C 
ATOM     24  C   UNL     1       2.966  -2.294  -0.480  0.00  0.00    +0.143 C 
ATOM     25  C   UNL     1       3.564  -0.942  -0.037  0.00  0.00    +0.134 C 
BRANCH  24  26
ATOM     26  O   UNL     1       3.613  -3.382   0.184  0.00  0.00    -0.389 OA
ATOM     27  H   UNL     1       3.217  -4.245   0.002  0.00  0.00    +0.210 HD
ENDBRANCH  24  26
ENDBRANCH   1  25
TORSDOF 3
