REMARK  Name = ZINC03841732
REMARK  11 active torsions:
REMARK  status: ('A' for Active; 'I' for Inactive)
REMARK    1  A    between atoms: C_1  and  O_2
REMARK    2  A    between atoms: O_2  and  C_3
REMARK    3  A    between atoms: C_5  and  N_11
REMARK    4  A    between atoms: C_7  and  O_9
REMARK    5  A    between atoms: O_9  and  C_10
REMARK    6  A    between atoms: N_11  and  C_12
REMARK    7  A    between atoms: C_12  and  N_14
REMARK    8  A    between atoms: N_14  and  C_15
REMARK    9  A    between atoms: C_25  and  O_27
REMARK   10  A    between atoms: O_27  and  C_28
REMARK   11  A    between atoms: N_30  and  C_31
REMARK                            x       y       z     vdW  Elec       q    Type
REMARK                         _______ _______ _______ _____ _____    ______ ____
ROOT
ATOM      1  C   UNL     1       2.314  -6.525  -5.102  0.00  0.00    +0.129 C 
ATOM      2  C   UNL     1       3.793  -6.822  -4.794  0.00  0.00    +0.185 C 
ATOM      3  O   UNL     1       3.974  -8.242  -4.886  0.00  0.00    -0.368 OA
ATOM      4  C   UNL     1       2.704  -8.863  -4.614  0.00  0.00    +0.192 C 
ATOM      5  C   UNL     1       1.669  -7.914  -5.302  0.00  0.00    +0.173 C 
ATOM      6  O   UNL     1       1.748  -8.267  -6.695  0.00  0.00    -0.368 OA
ATOM      7  C   UNL     1       1.917  -9.691  -6.775  0.00  0.00    +0.207 C 
ATOM      8  C   UNL     1       2.596 -10.161  -5.444  0.00  0.00    +0.235 C 
ENDROOT
BRANCH   1   9
ATOM      9  N   UNL     1       1.688  -5.828  -3.976  0.00  0.00    -0.319 N 
ATOM     10  H   UNL     1       1.238  -6.335  -3.282  0.00  0.00    +0.148 HD
BRANCH   9  11
ATOM     11  C   UNL     1       1.737  -4.483  -3.905  0.00  0.00    +0.135 C 
ATOM     12  S   UNL     1       2.531  -3.590  -5.130  0.00  0.00    -0.019 S 
BRANCH  11  13
ATOM     13  N   UNL     1       1.161  -3.842  -2.869  0.00  0.00    -0.297 N 
ATOM     14  H   UNL     1       0.758  -4.350  -2.147  0.00  0.00    +0.154 HD
BRANCH  13  17
ATOM     15  C   UNL     1      -0.047  -0.385  -2.489  0.00  0.00    +0.125 A 
ATOM     16  C   UNL     1      -0.030  -1.771  -2.523  0.00  0.00    +0.069 A 
ATOM     17  C   UNL     1       1.143  -2.443  -2.834  0.00  0.00    +0.040 A 
ATOM     18  C   UNL     1       2.300  -1.728  -3.111  0.00  0.00    +0.069 A 
ATOM     19  C   UNL     1       2.283  -0.342  -3.076  0.00  0.00    +0.125 A 
ATOM     20  C   UNL     1       1.108   0.330  -2.770  0.00  0.00    +0.091 A 
BRANCH  15  22
ATOM     21  C   UNL     1      -1.142   1.702  -2.173  0.00  0.00    +0.277 C 
ATOM     22  O   UNL     1      -1.196   0.274  -2.184  0.00  0.00    -0.495 OA
ENDBRANCH  15  22
BRANCH  19  23
ATOM     23  O   UNL     1       3.415   0.359  -3.347  0.00  0.00    -0.495 OA
ATOM     24  C   UNL     1       3.324   1.784  -3.293  0.00  0.00    +0.277 C 
ENDBRANCH  19  23
ENDBRANCH  13  17
ENDBRANCH  11  13
ENDBRANCH   9  11
ENDBRANCH   1   9
BRANCH   8  25
ATOM     25  O   UNL     1       3.895 -10.704  -5.691  0.00  0.00    -0.442 OA
BRANCH  25  26
ATOM     26  C   UNL     1       3.984 -12.041  -5.820  0.00  0.00    +0.405 C 
ATOM     27  O   UNL     1       2.986 -12.729  -5.726  0.00  0.00    -0.226 OA
ATOM     28  N   UNL     1       5.180 -12.617  -6.054  0.00  0.00    -0.251 N 
ATOM     29  H   UNL     1       5.990 -12.085  -6.020  0.00  0.00    +0.158 HD
BRANCH  28  30
ATOM     30  C   UNL     1       5.252 -13.981  -6.346  0.00  0.00    +0.044 A 
ATOM     31  C   UNL     1       4.138 -14.657  -6.794  0.00  0.00    +0.024 A 
ATOM     32  C   UNL     1       4.199 -16.016  -7.088  0.00  0.00    +0.002 A 
ATOM     33  C   UNL     1       5.359 -16.715  -6.941  0.00  0.00    +0.008 A 
ATOM     34  C   UNL     1       6.518 -16.063  -6.487  0.00  0.00    -0.016 A 
ATOM     35  C   UNL     1       6.469 -14.679  -6.190  0.00  0.00    +0.003 A 
ATOM     36  C   UNL     1       7.629 -14.028  -5.741  0.00  0.00    +0.010 A 
ATOM     37  C   UNL     1       8.786 -14.733  -5.602  0.00  0.00    +0.001 A 
ATOM     38  C   UNL     1       8.837 -16.093  -5.899  0.00  0.00    +0.001 A 
ATOM     39  C   UNL     1       7.729 -16.759  -6.325  0.00  0.00    +0.008 A 
ENDBRANCH  28  30
ENDBRANCH  25  26
ENDBRANCH   8  25
TORSDOF 9
