REMARK  Name = ZINC62960037
REMARK  4 active torsions:
REMARK  status: ('A' for Active; 'I' for Inactive)
REMARK    1  A    between atoms: C_3  and  N_20
REMARK    2  A    between atoms: C_6  and  S_7
REMARK    3  A    between atoms: S_7  and  N_10
REMARK    4  A    between atoms: N_20  and  N_21
REMARK                            x       y       z     vdW  Elec       q    Type
REMARK                         _______ _______ _______ _____ _____    ______ ____
ROOT
ATOM      1  S   UNL     1      -1.506  -0.915   0.012  0.00  0.00    +0.062 S 
ATOM      2  O   UNL     1      -1.205  -2.194   0.553  0.00  0.00    -0.153 OA
ATOM      3  O   UNL     1      -2.492  -0.061   0.577  0.00  0.00    -0.153 OA
ENDROOT
BRANCH   1   4
ATOM      4  N   UNL     1      -1.941  -1.159  -1.567  0.00  0.00    -0.177 NA
ATOM      5  C   UNL     1      -2.786  -0.184  -2.270  0.00  0.00    +0.110 C 
ATOM      6  C   UNL     1      -3.999  -0.915  -2.855  0.00  0.00    +0.024 C 
ATOM      7  C   UNL     1      -3.522  -2.082  -3.716  0.00  0.00    -0.027 C 
ATOM      8  C   UNL     1      -2.667  -1.560  -4.881  0.00  0.00    +0.007 C 
ATOM      9  C   UNL     1      -3.390  -1.981  -6.178  0.00  0.00    +0.001 C 
ATOM     10  C   UNL     1      -4.866  -2.169  -5.746  0.00  0.00    +0.001 C 
ATOM     11  C   UNL     1      -4.734  -2.800  -4.338  0.00  0.00    +0.007 C 
ATOM     12  C   UNL     1      -2.713  -3.069  -2.876  0.00  0.00    +0.024 C 
ATOM     13  C   UNL     1      -1.484  -2.352  -2.293  0.00  0.00    +0.110 C 
ENDBRANCH   1   4
BRANCH   1  19
ATOM     14  C   UNL     1      -0.017   1.384   0.010  0.00  0.00    +0.033 A 
ATOM     15  C   UNL     1       1.190   2.061   0.002  0.00  0.00    +0.046 A 
ATOM     16  C   UNL     1       2.374   1.332  -0.013  0.00  0.00    +0.132 A 
ATOM     17  N   UNL     1       2.350   0.008  -0.020  0.00  0.00    -0.237 NA
ATOM     18  C   UNL     1       1.215  -0.664  -0.013  0.00  0.00    +0.141 A 
ATOM     19  C   UNL     1       0.002  -0.004   0.002  0.00  0.00    +0.124 A 
BRANCH  16  20
ATOM     20  N   UNL     1       3.594   1.999  -0.022  0.00  0.00    -0.268 N 
ATOM     21  H   UNL     1       3.616   2.969  -0.017  0.00  0.00    +0.167 HD
BRANCH  20  22
ATOM     22  N   UNL     1       4.761   1.289  -0.037  0.00  0.00    -0.255 NA
ATOM     23  H   UNL     1       4.788   0.655  -0.822  0.00  0.00    +0.140 HD
ATOM     24  H   UNL     1       5.559   1.905  -0.042  0.00  0.00    +0.140 HD
ENDBRANCH  20  22
ENDBRANCH  16  20
ENDBRANCH   1  19
TORSDOF 4
