REMARK  Name = ZINC36050016
REMARK  11 active torsions:
REMARK  status: ('A' for Active; 'I' for Inactive)
REMARK    1  A    between atoms: C_1  and  C_2
REMARK    2  A    between atoms: C_2  and  O_3
REMARK    3  A    between atoms: O_3  and  C_4
REMARK    4  A    between atoms: C_4  and  C_6
REMARK    5  A    between atoms: C_7  and  C_31
REMARK    6  A    between atoms: C_11  and  C_13
REMARK    7  A    between atoms: C_18  and  C_19
REMARK    8  A    between atoms: C_20  and  C_23
REMARK    9  A    between atoms: C_24  and  N_26
REMARK   10  A    between atoms: N_26  and  C_27
REMARK   11  A    between atoms: C_27  and  C_28
REMARK                            x       y       z     vdW  Elec       q    Type
REMARK                         _______ _______ _______ _____ _____    ______ ____
ROOT
ATOM      1  C   UNL     1      -2.767  -2.036  -0.032  0.00  0.00    +0.087 C 
ATOM      2  C   UNL     1      -2.948  -3.419  -0.051  0.00  0.00    +0.086 C 
ATOM      3  N   UNL     1      -4.176  -3.933  -0.012  0.00  0.00    -0.224 NA
ATOM      4  C   UNL     1      -5.283  -3.226   0.046  0.00  0.00    +0.166 C 
ATOM      5  N   UNL     1      -5.319  -1.860   0.074  0.00  0.00    -0.267 N 
ATOM      6  C   UNL     1      -4.003  -1.167   0.041  0.00  0.00    +0.150 C 
ATOM      7  C   UNL     1      -6.565  -1.267   0.136  0.00  0.00    +0.048 C 
ATOM      8  C   UNL     1      -7.645  -2.079   0.163  0.00  0.00    +0.072 C 
ATOM      9  S   UNL     1      -6.894  -3.694   0.101  0.00  0.00    -0.060 S 
ENDROOT
BRANCH   6  10
ATOM     10  C   UNL     1      -3.895  -0.309   1.275  0.00  0.00    -0.019 A 
ATOM     11  C   UNL     1      -4.414  -0.756   2.476  0.00  0.00    +0.006 A 
ATOM     12  C   UNL     1      -4.315   0.031   3.607  0.00  0.00    +0.000 A 
ATOM     13  C   UNL     1      -3.695   1.265   3.539  0.00  0.00    +0.000 A 
ATOM     14  C   UNL     1      -3.175   1.711   2.339  0.00  0.00    +0.004 A 
ATOM     15  C   UNL     1      -3.271   0.922   1.208  0.00  0.00    -0.045 A 
ATOM     16  C   UNL     1      -2.699   1.407  -0.100  0.00  0.00    +0.044 C 
ENDBRANCH   6  10
BRANCH   2  17
ATOM     17  C   UNL     1      -1.772  -4.317  -0.116  0.00  0.00    +0.001 A 
ATOM     18  C   UNL     1      -0.698  -4.128   0.754  0.00  0.00    +0.010 A 
ATOM     19  C   UNL     1       0.395  -4.967   0.689  0.00  0.00    +0.001 A 
ATOM     20  C   UNL     1       0.426  -5.995  -0.236  0.00  0.00    +0.000 A 
ATOM     21  C   UNL     1      -0.635  -6.188  -1.102  0.00  0.00    +0.001 A 
ATOM     22  C   UNL     1      -1.737  -5.359  -1.042  0.00  0.00    +0.010 A 
ENDBRANCH   2  17
BRANCH   7  23
ATOM     23  C   UNL     1      -6.712   0.195   0.170  0.00  0.00    +0.091 C 
ATOM     24  C   UNL     1      -7.924   0.746   0.377  0.00  0.00    +0.239 C 
ATOM     25  O   UNL     1      -8.982  -0.042   0.686  0.00  0.00    -0.271 OA
BRANCH  24  26
ATOM     26  N   UNL     1      -8.088   2.116   0.273  0.00  0.00    -0.312 N 
ATOM     27  H   UNL     1      -7.349   2.672  -0.020  0.00  0.00    +0.149 HD
BRANCH  26  28
ATOM     28  C   UNL     1      -9.377   2.727   0.605  0.00  0.00    +0.108 C 
BRANCH  28  29
ATOM     29  C   UNL     1      -9.330   4.223   0.290  0.00  0.00    +0.006 C 
ATOM     30  C   UNL     1     -10.274   4.747  -0.794  0.00  0.00    +0.005 C 
ATOM     31  C   UNL     1     -10.546   5.066   0.678  0.00  0.00    +0.005 C 
ENDBRANCH  28  29
ENDBRANCH  26  28
ENDBRANCH  24  26
ENDBRANCH   7  23
BRANCH   1  32
ATOM     32  C   UNL     1      -1.490  -1.474  -0.072  0.00  0.00    +0.339 C 
ATOM     33  O   UNL     1      -0.996  -1.010   0.941  0.00  0.00    -0.245 OA
BRANCH  32  34
ATOM     34  O   UNL     1      -0.802  -1.443  -1.235  0.00  0.00    -0.462 OA
BRANCH  34  36
ATOM     35  C   UNL     1       1.113  -0.880  -2.599  0.00  0.00    +0.048 C 
ATOM     36  C   UNL     1       0.540  -0.955  -1.182  0.00  0.00    +0.229 C 
ENDBRANCH  34  36
ENDBRANCH  32  34
ENDBRANCH   1  32
TORSDOF 9
