REMARK  Name = ZINC33781679
REMARK  11 active torsions:
REMARK  status: ('A' for Active; 'I' for Inactive)
REMARK    1  A    between atoms: C_1  and  C_2
REMARK    2  A    between atoms: C_5  and  N_9
REMARK    3  A    between atoms: C_6  and  C_8
REMARK    4  A    between atoms: N_9  and  C_10
REMARK    5  A    between atoms: C_12  and  N_34
REMARK    6  A    between atoms: C_16  and  N_17
REMARK    7  A    between atoms: C_20  and  N_22
REMARK    8  A    between atoms: C_23  and  C_33
REMARK    9  A    between atoms: N_27  and  C_30
REMARK   10  A    between atoms: C_30  and  C_31
REMARK   11  A    between atoms: C_30  and  C_32
REMARK                            x       y       z     vdW  Elec       q    Type
REMARK                         _______ _______ _______ _____ _____    ______ ____
ROOT
ATOM      1  C   UNL     1      -6.300   2.802  -0.008  0.00  0.00    +0.178 C 
ATOM      2  C   UNL     1      -6.281   1.506   0.800  0.00  0.00    +0.130 C 
ATOM      3  C   UNL     1      -5.904   0.349  -0.089  0.00  0.00    +0.044 C 
ATOM      4  C   UNL     1      -6.304   0.330  -1.373  0.00  0.00    +0.044 C 
ATOM      5  C   UNL     1      -7.091   1.460  -1.909  0.00  0.00    +0.044 C 
ATOM      6  C   UNL     1      -7.105   2.618  -1.267  0.00  0.00    +0.130 C 
ATOM      7  C   UNL     1      -5.960  -0.813  -2.241  0.00  0.00    +0.265 C 
ATOM      8  O   UNL     1      -5.704  -1.894  -1.749  0.00  0.00    -0.267 OA
ENDROOT
BRANCH   7   9
ATOM      9  N   UNL     1      -5.929  -0.658  -3.579  0.00  0.00    -0.260 N 
ATOM     10  C   UNL     1      -6.144  -1.741  -4.395  0.00  0.00    +0.031 A 
ATOM     11  C   UNL     1      -6.119  -1.583  -5.734  0.00  0.00    +0.092 A 
ATOM     12  C   UNL     1      -5.859  -0.297  -6.272  0.00  0.00    +0.255 A 
ATOM     13  O   UNL     1      -5.826  -0.131  -7.478  0.00  0.00    -0.268 OA
ATOM     14  N   UNL     1      -5.648   0.740  -5.437  0.00  0.00    -0.286 N 
ATOM     15  C   UNL     1      -5.683   0.556  -4.104  0.00  0.00    +0.170 A 
ATOM     16  S   UNL     1      -5.412   1.887  -3.062  0.00  0.00    -0.012 S 
ATOM     17  C   UNL     1      -6.413  -3.099  -3.798  0.00  0.00    +0.064 C 
BRANCH  14  18
ATOM     18  C   UNL     1      -5.378   2.072  -5.983  0.00  0.00    +0.086 C 
ATOM     19  C   UNL     1      -4.114   2.025  -6.843  0.00  0.00    +0.031 C 
ATOM     20  C   UNL     1      -6.562   2.521  -6.841  0.00  0.00    +0.031 C 
ENDBRANCH  14  18
ENDBRANCH   7   9
BRANCH   6  21
ATOM     21  N   UNL     1      -7.917   3.740  -1.791  0.00  0.00    +0.055 N 
ATOM     22  O   UNL     1      -8.643   3.568  -2.754  0.00  0.00    -0.126 OA
ATOM     23  O   UNL     1      -7.860   4.834  -1.259  0.00  0.00    -0.126 OA
ENDBRANCH   6  21
BRANCH   2  24
ATOM     24  N   UNL     1      -5.303   1.624   1.885  0.00  0.00    +0.055 N 
ATOM     25  O   UNL     1      -5.664   1.516   3.043  0.00  0.00    -0.126 OA
ATOM     26  O   UNL     1      -4.131   1.830   1.628  0.00  0.00    -0.126 OA
ENDBRANCH   2  24
BRANCH   1  27
ATOM     27  N   UNL     1      -4.928   3.176  -0.359  0.00  0.00    -0.330 N 
ATOM     28  H   UNL     1      -4.336   2.531  -1.027  0.00  0.00    +0.147 HD
BRANCH  27  33
ATOM     29  C   UNL     1      -2.669   7.947   1.710  0.00  0.00    +0.044 C 
ATOM     30  C   UNL     1      -3.268   6.678   1.163  0.00  0.00    -0.050 A 
ATOM     31  C   UNL     1      -4.598   6.383   1.404  0.00  0.00    +0.005 A 
ATOM     32  C   UNL     1      -5.150   5.220   0.904  0.00  0.00    +0.023 A 
ATOM     33  C   UNL     1      -4.371   4.349   0.153  0.00  0.00    +0.031 A 
ATOM     34  C   UNL     1      -3.035   4.646  -0.083  0.00  0.00    -0.029 A 
ATOM     35  C   UNL     1      -2.488   5.811   0.421  0.00  0.00    +0.008 A 
ATOM     36  C   UNL     1      -2.184   3.702  -0.893  0.00  0.00    +0.045 C 
ENDBRANCH  27  33
ENDBRANCH   1  27
TORSDOF 6
