REMARK  Name = ZINC36534616
REMARK  11 active torsions:
REMARK  status: ('A' for Active; 'I' for Inactive)
REMARK    1  A    between atoms: C_1  and  C_2
REMARK    2  A    between atoms: C_2  and  C_4
REMARK    3  A    between atoms: C_2  and  C_10
REMARK    4  A    between atoms: C_10  and  C_12
REMARK    5  A    between atoms: C_10  and  N_21
REMARK    6  A    between atoms: N_14  and  C_15
REMARK    7  A    between atoms: N_21  and  C_22
REMARK    8  A    between atoms: C_23  and  C_25
REMARK    9  A    between atoms: C_25  and  C_26
REMARK   10  A    between atoms: C_25  and  C_32
REMARK   11  A    between atoms: C_25  and  O_38
REMARK                            x       y       z     vdW  Elec       q    Type
REMARK                         _______ _______ _______ _____ _____    ______ ____
ROOT
ATOM      1  C   UNL     1       0.578  -0.761  -1.478  0.00  0.00    +0.169 C 
ENDROOT
BRANCH   1   2
ATOM      2  C   UNL     1      -0.021   0.083  -2.574  0.00  0.00    +0.234 C 
ATOM      3  O   UNL     1      -0.667  -0.440  -3.457  0.00  0.00    -0.274 OA
ATOM      4  N   UNL     1       0.163   1.418  -2.574  0.00  0.00    -0.311 N 
ATOM      5  H   UNL     1       0.607   1.846  -1.825  0.00  0.00    +0.149 HD
BRANCH   4   6
ATOM      6  C   UNL     1      -0.308   2.223  -3.704  0.00  0.00    +0.073 C 
ATOM      7  C   UNL     1       0.753   2.224  -4.806  0.00  0.00    +0.022 C 
ATOM      8  C   UNL     1       0.261   3.065  -5.986  0.00  0.00    +0.002 C 
ATOM      9  C   UNL     1       0.007   4.500  -5.520  0.00  0.00    +0.000 C 
ATOM     10  C   UNL     1      -1.054   4.498  -4.417  0.00  0.00    +0.002 C 
ATOM     11  C   UNL     1      -0.562   3.657  -3.237  0.00  0.00    +0.022 C 
ENDBRANCH   4   6
ENDBRANCH   1   2
BRANCH   1  12
ATOM     12  N   UNL     1       0.616  -2.162  -1.905  0.00  0.00    -0.289 N 
ATOM     13  C   UNL     1      -0.627  -2.857  -2.248  0.00  0.00    +0.133 C 
ATOM     14  C   UNL     1       1.795  -2.811  -1.982  0.00  0.00    +0.257 C 
ATOM     15  O   UNL     1       2.812  -2.267  -1.609  0.00  0.00    -0.272 OA
BRANCH  14  16
ATOM     16  C   UNL     1       1.848  -4.212  -2.534  0.00  0.00    +0.192 C 
BRANCH  16  17
ATOM     17  C   UNL     1       3.247  -4.513  -3.006  0.00  0.00    -0.003 A 
ATOM     18  C   UNL     1       4.146  -5.131  -2.157  0.00  0.00    +0.007 A 
ATOM     19  C   UNL     1       5.429  -5.407  -2.591  0.00  0.00    +0.000 A 
ATOM     20  C   UNL     1       5.814  -5.065  -3.874  0.00  0.00    +0.000 A 
ATOM     21  C   UNL     1       4.915  -4.447  -4.723  0.00  0.00    +0.000 A 
ATOM     22  C   UNL     1       3.630  -4.175  -4.291  0.00  0.00    +0.007 A 
ENDBRANCH  16  17
BRANCH  16  23
ATOM     23  C   UNL     1       1.461  -5.191  -1.455  0.00  0.00    -0.003 A 
ATOM     24  C   UNL     1       1.670  -4.873  -0.126  0.00  0.00    +0.007 A 
ATOM     25  C   UNL     1       1.315  -5.771   0.863  0.00  0.00    +0.000 A 
ATOM     26  C   UNL     1       0.751  -6.987   0.523  0.00  0.00    +0.000 A 
ATOM     27  C   UNL     1       0.541  -7.304  -0.806  0.00  0.00    +0.000 A 
ATOM     28  C   UNL     1       0.892  -6.404  -1.795  0.00  0.00    +0.007 A 
ENDBRANCH  16  23
BRANCH  16  29
ATOM     29  O   UNL     1       0.940  -4.328  -3.630  0.00  0.00    -0.371 OA
ATOM     30  H   UNL     1       1.129  -3.726  -4.363  0.00  0.00    +0.212 HD
ENDBRANCH  16  29
ENDBRANCH  14  16
ENDBRANCH   1  12
BRANCH   1  32
ATOM     31  C   UNL     1      -0.410   0.840   0.167  0.00  0.00    +0.015 C 
ATOM     32  C   UNL     1      -0.276  -0.636  -0.215  0.00  0.00    +0.045 C 
BRANCH  32  33
ATOM     33  C   UNL     1       0.382  -1.388   0.913  0.00  0.00    -0.042 A 
ATOM     34  C   UNL     1       1.649  -1.032   1.335  0.00  0.00    +0.004 A 
ATOM     35  C   UNL     1       2.252  -1.722   2.370  0.00  0.00    +0.000 A 
ATOM     36  C   UNL     1       1.589  -2.769   2.982  0.00  0.00    +0.000 A 
ATOM     37  C   UNL     1       0.321  -3.125   2.560  0.00  0.00    +0.000 A 
ATOM     38  C   UNL     1      -0.284  -2.432   1.529  0.00  0.00    +0.004 A 
ENDBRANCH  32  33
ENDBRANCH   1  32
TORSDOF 9
