REMARK  Name = ZINC33263360
REMARK  6 active torsions:
REMARK  status: ('A' for Active; 'I' for Inactive)
REMARK    1  A    between atoms: C_1  and  C_2
REMARK    2  A    between atoms: C_6  and  N_8
REMARK    3  A    between atoms: C_9  and  C_11
REMARK    4  A    between atoms: C_18  and  C_20
REMARK    5  A    between atoms: C_23  and  C_25
REMARK    6  A    between atoms: N_27  and  C_28
REMARK                            x       y       z     vdW  Elec       q    Type
REMARK                         _______ _______ _______ _____ _____    ______ ____
ROOT
ATOM      1  C   UNL     1       3.835   1.853  -1.054  0.00  0.00    +0.093 C 
ATOM      2  C   UNL     1       4.234   3.330  -1.044  0.00  0.00    +0.016 C 
ATOM      3  C   UNL     1       2.989   4.199  -1.235  0.00  0.00    +0.020 C 
ATOM      4  C   UNL     1       2.017   3.952  -0.082  0.00  0.00    +0.108 C 
ATOM      5  N   UNL     1       1.741   2.512   0.011  0.00  0.00    -0.295 N 
ATOM      6  C   UNL     1       2.873   1.580   0.106  0.00  0.00    +0.121 C 
ATOM      7  C   UNL     1       0.473   2.054   0.004  0.00  0.00    +0.274 C 
ATOM      8  O   UNL     1      -0.456   2.838   0.017  0.00  0.00    -0.268 OA
ENDROOT
BRANCH   7   9
ATOM      9  C   UNL     1       0.213   0.601  -0.013  0.00  0.00    +0.187 A 
ATOM     10  N   UNL     1       1.071  -0.412   0.068  0.00  0.00    -0.136 NA
ATOM     11  N   UNL     1       0.655  -1.605   0.036  0.00  0.00    -0.136 NA
ATOM     12  C   UNL     1      -0.646  -1.858  -0.079  0.00  0.00    +0.187 A 
ATOM     13  S   UNL     1      -1.298  -0.248  -0.138  0.00  0.00    -0.036 S 
BRANCH  12  14
ATOM     14  C   UNL     1      -1.347  -3.156  -0.137  0.00  0.00    +0.275 C 
ATOM     15  O   UNL     1      -2.557  -3.189  -0.244  0.00  0.00    -0.268 OA
ATOM     16  N   UNL     1      -0.644  -4.304  -0.069  0.00  0.00    -0.280 N 
ATOM     17  H   UNL     1       0.439  -4.276   0.118  0.00  0.00    +0.155 HD
BRANCH  16  18
ATOM     18  C   UNL     1      -1.293  -5.531  -0.237  0.00  0.00    +0.035 A 
ATOM     19  C   UNL     1      -0.869  -6.646   0.475  0.00  0.00    +0.023 A 
ATOM     20  C   UNL     1      -1.514  -7.856   0.311  0.00  0.00    +0.003 A 
ATOM     21  C   UNL     1      -2.576  -7.961  -0.569  0.00  0.00    +0.020 A 
ATOM     22  C   UNL     1      -2.998  -6.854  -1.284  0.00  0.00    +0.043 A 
ATOM     23  C   UNL     1      -2.360  -5.639  -1.120  0.00  0.00    +0.043 A 
ATOM     24 CL   UNL     1      -4.332  -6.991  -2.388  0.00  0.00    -0.083 Cl
ENDBRANCH  16  18
ENDBRANCH  12  14
ENDBRANCH   7   9
BRANCH   1  26
ATOM     25  N   UNL     1       4.955  -0.345  -0.877  0.00  0.00    -0.285 N 
ATOM     26  C   UNL     1       5.066   0.998  -0.899  0.00  0.00    +0.222 C 
ATOM     27  O   UNL     1       6.156   1.518  -0.793  0.00  0.00    -0.275 OA
ATOM     28  H   UNL     1       3.977  -0.819  -1.049  0.00  0.00    +0.155 HD
BRANCH  25  34
ATOM     29  C   UNL     1       9.786  -1.095  -1.395  0.00  0.00    +0.044 C 
ATOM     30  C   UNL     1       8.438  -1.524  -0.876  0.00  0.00    -0.049 A 
ATOM     31  C   UNL     1       8.316  -2.701  -0.161  0.00  0.00    +0.003 A 
ATOM     32  C   UNL     1       7.080  -3.098   0.317  0.00  0.00    +0.002 A 
ATOM     33  C   UNL     1       5.964  -2.319   0.081  0.00  0.00    +0.023 A 
ATOM     34  C   UNL     1       6.084  -1.137  -0.637  0.00  0.00    +0.034 A 
ATOM     35  C   UNL     1       7.325  -0.744  -1.121  0.00  0.00    +0.026 A 
ENDBRANCH  25  34
ENDBRANCH   1  26
TORSDOF 5
