REMARK  Name = ZINC15067906
REMARK  8 active torsions:
REMARK  status: ('A' for Active; 'I' for Inactive)
REMARK    1  A    between atoms: C_1  and  N_2
REMARK    2  A    between atoms: N_2  and  C_3
REMARK    3  A    between atoms: C_3  and  C_5
REMARK    4  A    between atoms: C_3  and  C_13
REMARK    5  A    between atoms: C_5  and  C_6
REMARK    6  A    between atoms: C_18  and  C_19
REMARK    7  A    between atoms: C_18  and  N_64
REMARK    8  A    between atoms: C_29  and  C_31
REMARK                            x       y       z     vdW  Elec       q    Type
REMARK                         _______ _______ _______ _____ _____    ______ ____
ROOT
ATOM      1  C   UNL     1       4.982   1.810  -0.240  0.00  0.00    +0.083 C 
ENDROOT
BRANCH   1   2
ATOM      2  C   UNL     1       5.552   2.188  -1.609  0.00  0.00    +0.006 C 
ATOM      3  C   UNL     1       5.580   3.712  -1.750  0.00  0.00    -0.013 C 
ATOM      4  C   UNL     1       6.092   4.082  -3.144  0.00  0.00    -0.078 C 
ATOM      5  C   UNL     1       5.208   2.027  -4.077  0.00  0.00    -0.078 C 
ATOM      6  C   UNL     1       4.669   1.596  -2.711  0.00  0.00    -0.013 C 
ATOM      7  N   UNL     1       5.185   3.503  -4.158  0.00  0.00    +0.383 N 
ATOM      8  H   UNL     1       4.229   3.832  -3.976  0.00  0.00    -0.081 HD
BRANCH   7   9
ATOM      9  C   UNL     1       5.594   3.941  -5.509  0.00  0.00    -0.025 C 
BRANCH   9  10
ATOM     10  C   UNL     1       5.353   5.423  -5.632  0.00  0.00    +0.000 A 
ATOM     11  C   UNL     1       4.246   5.983  -6.144  0.00  0.00    +0.029 A 
ATOM     12  C   UNL     1       4.427   7.435  -6.070  0.00  0.00    -0.000 A 
ATOM     13  C   UNL     1       3.642   8.531  -6.435  0.00  0.00    +0.010 A 
ATOM     14  C   UNL     1       4.112   9.798  -6.234  0.00  0.00    +0.001 A 
ATOM     15  C   UNL     1       5.364  10.005  -5.671  0.00  0.00    +0.002 A 
ATOM     16  C   UNL     1       6.155   8.938  -5.304  0.00  0.00    +0.026 A 
ATOM     17  C   UNL     1       5.696   7.639  -5.499  0.00  0.00    +0.047 A 
ATOM     18  N   UNL     1       6.232   6.397  -5.245  0.00  0.00    -0.360 N 
ATOM     19  H   UNL     1       7.103   6.236  -4.850  0.00  0.00    +0.166 HD
ENDBRANCH   9  10
ENDBRANCH   7   9
ENDBRANCH   1   2
BRANCH   1  21
ATOM     20  C   UNL     1       3.225   3.640  -0.174  0.00  0.00    +0.132 C 
ATOM     21  N   UNL     1       3.577   2.218  -0.167  0.00  0.00    -0.297 N 
ATOM     22  C   UNL     1       2.608   1.284  -0.093  0.00  0.00    +0.253 C 
ATOM     23  O   UNL     1       2.902   0.110   0.027  0.00  0.00    -0.269 OA
BRANCH  22  24
ATOM     24  C   UNL     1       1.199   1.684  -0.157  0.00  0.00    +0.074 A 
ATOM     25  C   UNL     1       0.065   0.887  -0.172  0.00  0.00    +0.021 A 
ATOM     26  C   UNL     1      -1.148   1.527  -0.243  0.00  0.00    +0.008 A 
ATOM     27  C   UNL     1      -1.180   2.885  -0.283  0.00  0.00    +0.046 A 
ATOM     28  S   UNL     1       0.497   3.322  -0.236  0.00  0.00    -0.092 S 
ENDBRANCH  22  24
ENDBRANCH   1  21
BRANCH   1  29
ATOM     29  C   UNL     1       5.777   2.522   0.857  0.00  0.00    +0.060 C 
BRANCH  29  30
ATOM     30  C   UNL     1       5.297   2.057   2.207  0.00  0.00    -0.010 A 
ATOM     31  C   UNL     1       4.343   2.787   2.891  0.00  0.00    +0.006 A 
ATOM     32  C   UNL     1       3.899   2.358   4.127  0.00  0.00    +0.000 A 
ATOM     33  C   UNL     1       4.416   1.204   4.686  0.00  0.00    +0.003 A 
ATOM     34  C   UNL     1       5.373   0.475   4.007  0.00  0.00    +0.038 A 
ATOM     35  C   UNL     1       5.815   0.901   2.766  0.00  0.00    +0.127 A 
ATOM     36  F   UNL     1       6.752   0.190   2.101  0.00  0.00    -0.205 F 
ENDBRANCH  29  30
ENDBRANCH   1  29
TORSDOF 7
