REMARK  Name = ZINC09237785
REMARK  8 active torsions:
REMARK  status: ('A' for Active; 'I' for Inactive)
REMARK    1  A    between atoms: C_1  and  C_2
REMARK    2  A    between atoms: C_5  and  C_32
REMARK    3  A    between atoms: C_6  and  N_8
REMARK    4  A    between atoms: C_9  and  C_11
REMARK    5  A    between atoms: C_13  and  C_23
REMARK    6  A    between atoms: C_17  and  C_22
REMARK    7  A    between atoms: C_26  and  O_30
REMARK    8  A    between atoms: O_30  and  C_31
REMARK                            x       y       z     vdW  Elec       q    Type
REMARK                         _______ _______ _______ _____ _____    ______ ____
ROOT
ATOM      1  C   UNL     1      -3.115   3.901   1.482  0.00  0.00    +0.166 C 
ATOM      2  C   UNL     1      -2.567   3.879   0.049  0.00  0.00    +0.140 C 
ATOM      3  N   UNL     1      -3.505   3.194  -0.843  0.00  0.00    -0.272 N 
ATOM      4  N   UNL     1      -4.731   3.775  -0.897  0.00  0.00    -0.225 N 
ATOM      5  C   UNL     1      -5.667   3.658  -1.884  0.00  0.00    +0.148 A 
ATOM      6  N   UNL     1      -6.705   4.361  -1.520  0.00  0.00    -0.132 NA
ATOM      7  N   UNL     1      -6.486   4.916  -0.378  0.00  0.00    -0.121 NA
ATOM      8  C   UNL     1      -5.295   4.593   0.041  0.00  0.00    +0.209 A 
ATOM      9  S   UNL     1      -4.493   5.087   1.534  0.00  0.00    -0.069 S 
ATOM     10  C   UNL     1      -5.528   2.864  -3.157  0.00  0.00    +0.090 C 
ATOM     11  H   UNL     1      -3.115   3.092  -1.767  0.00  0.00    +0.167 HD
ENDROOT
BRANCH   2  12
ATOM     12  C   UNL     1      -1.245   3.156   0.032  0.00  0.00    -0.023 A 
ATOM     13  C   UNL     1      -1.214   1.774   0.017  0.00  0.00    +0.009 A 
ATOM     14  C   UNL     1      -0.004   1.109   0.007  0.00  0.00    +0.047 A 
ATOM     15  C   UNL     1       1.182   1.828   0.001  0.00  0.00    +0.134 A 
ATOM     16  C   UNL     1       1.149   3.216   0.011  0.00  0.00    +0.060 A 
ATOM     17  C   UNL     1      -0.065   3.877   0.027  0.00  0.00    +0.024 A 
ATOM     18 BR   UNL     1       2.763   4.201   0.002  0.00  0.00    -0.047 Br
BRANCH  15  19
ATOM     19  O   UNL     1       2.374   1.176  -0.015  0.00  0.00    -0.494 OA
ATOM     20  C   UNL     1       2.332  -0.252  -0.025  0.00  0.00    +0.277 C 
ENDBRANCH  15  19
ENDBRANCH   2  12
BRANCH   1  22
ATOM     21  N   UNL     1      -3.564   2.127   3.147  0.00  0.00    -0.284 N 
ATOM     22  C   UNL     1      -3.608   2.528   1.861  0.00  0.00    +0.233 C 
ATOM     23  O   UNL     1      -4.045   1.784   1.008  0.00  0.00    -0.274 OA
ATOM     24  H   UNL     1      -3.142   2.688   3.815  0.00  0.00    +0.155 HD
BRANCH  21  30
ATOM     25  C   UNL     1      -6.798  -1.476   2.291  0.00  0.00    +0.044 C 
ATOM     26  C   UNL     1      -5.696  -0.869   3.120  0.00  0.00    -0.049 A 
ATOM     27  C   UNL     1      -5.239  -1.525   4.248  0.00  0.00    +0.004 A 
ATOM     28  C   UNL     1      -4.227  -0.972   5.012  0.00  0.00    +0.005 A 
ATOM     29  C   UNL     1      -3.666   0.236   4.646  0.00  0.00    -0.029 A 
ATOM     30  C   UNL     1      -4.126   0.900   3.517  0.00  0.00    +0.037 A 
ATOM     31  C   UNL     1      -5.143   0.342   2.752  0.00  0.00    +0.027 A 
ATOM     32  C   UNL     1      -2.558   0.835   5.474  0.00  0.00    +0.045 C 
ENDBRANCH  21  30
ENDBRANCH   1  22
TORSDOF 4
