REMARK  Name = ZINC39596563
REMARK  9 active torsions:
REMARK  status: ('A' for Active; 'I' for Inactive)
REMARK    1  A    between atoms: C_1  and  C_2
REMARK    2  A    between atoms: C_6  and  C_8
REMARK    3  A    between atoms: C_8  and  C_9
REMARK    4  A    between atoms: C_13  and  C_22
REMARK    5  A    between atoms: N_24  and  C_25
REMARK    6  A    between atoms: C_25  and  C_26
REMARK    7  A    between atoms: C_26  and  C_28
REMARK    8  A    between atoms: C_26  and  O_29
REMARK    9  A    between atoms: O_29  and  C_30
REMARK                            x       y       z     vdW  Elec       q    Type
REMARK                         _______ _______ _______ _____ _____    ______ ____
ROOT
ATOM      1  C   UNL     1       1.429  -3.065   2.905  0.00  0.00    +0.220 C 
ATOM      2  O   UNL     1       2.337  -2.659   2.211  0.00  0.00    -0.275 OA
ATOM      3  N   UNL     1       1.699  -3.735   4.043  0.00  0.00    -0.300 N 
ATOM      4  C   UNL     1       0.733  -4.309   5.010  0.00  0.00    +0.121 C 
ATOM      5  C   UNL     1       1.360  -5.656   5.434  0.00  0.00    +0.100 C 
ATOM      6  C   UNL     1       2.866  -5.488   5.172  0.00  0.00    -0.004 C 
ATOM      7  C   UNL     1       3.028  -4.069   4.607  0.00  0.00    +0.115 C 
ATOM      8  C   UNL     1       3.341  -6.514   4.147  0.00  0.00    -0.010 C 
ATOM      9  C   UNL     1       4.852  -6.365   3.946  0.00  0.00    -0.082 C 
ATOM     10  N   UNL     1       5.540  -6.566   5.227  0.00  0.00    +0.379 N 
ATOM     11  C   UNL     1       5.147  -5.519   6.177  0.00  0.00    -0.082 C 
ATOM     12  C   UNL     1       3.649  -5.633   6.473  0.00  0.00    -0.010 C 
ATOM     13  H   UNL     1       5.293  -7.470   5.601  0.00  0.00    -0.086 HD
ATOM     14  H   UNL     1       6.538  -6.528   5.080  0.00  0.00    -0.086 HD
ENDROOT
BRANCH   5  15
ATOM     15  C   UNL     1       1.105  -5.915   6.896  0.00  0.00    +0.218 C 
ATOM     16  O   UNL     1       1.081  -4.991   7.681  0.00  0.00    -0.275 OA
ATOM     17  N   UNL     1       0.905  -7.175   7.333  0.00  0.00    -0.312 N 
ATOM     18  H   UNL     1       0.924  -7.914   6.705  0.00  0.00    +0.149 HD
BRANCH  17  19
ATOM     19  C   UNL     1       0.657  -7.427   8.754  0.00  0.00    +0.148 C 
BRANCH  19  20
ATOM     20  C   UNL     1       0.464  -8.928   8.980  0.00  0.00    +0.187 C 
ATOM     21  C   UNL     1       0.206  -9.191  10.465  0.00  0.00    +0.053 C 
BRANCH  20  22
ATOM     22  O   UNL     1      -0.652  -9.385   8.214  0.00  0.00    -0.488 OA
BRANCH  22  23
ATOM     23  C   UNL     1      -0.668 -10.700   7.870  0.00  0.00    +0.121 A 
ATOM     24  C   UNL     1      -1.657 -11.185   7.027  0.00  0.00    +0.048 A 
ATOM     25  C   UNL     1      -1.671 -12.522   6.678  0.00  0.00    +0.042 A 
ATOM     26  C   UNL     1      -0.700 -13.377   7.170  0.00  0.00    +0.124 A 
ATOM     27  C   UNL     1       0.287 -12.894   8.012  0.00  0.00    +0.042 A 
ATOM     28  C   UNL     1       0.308 -11.556   8.357  0.00  0.00    +0.048 A 
ATOM     29  F   UNL     1      -0.716 -14.684   6.829  0.00  0.00    -0.205 F 
ENDBRANCH  22  23
ENDBRANCH  20  22
ENDBRANCH  19  20
ENDBRANCH  17  19
ENDBRANCH   5  15
BRANCH   1  30
ATOM     30  C   UNL     1      -0.001  -2.821   2.495  0.00  0.00    +0.131 C 
BRANCH  30  36
ATOM     31  C   UNL     1      -0.076   1.533   0.028  0.00  0.00    +0.044 C 
ATOM     32  C   UNL     1      -0.064   0.026   0.016  0.00  0.00    -0.050 A 
ATOM     33  C   UNL     1      -0.077  -0.656  -1.187  0.00  0.00    +0.003 A 
ATOM     34  C   UNL     1      -0.066  -2.038  -1.198  0.00  0.00    +0.001 A 
ATOM     35  C   UNL     1      -0.041  -2.738  -0.006  0.00  0.00    +0.004 A 
ATOM     36  C   UNL     1      -0.027  -2.057   1.196  0.00  0.00    -0.038 A 
ATOM     37  C   UNL     1      -0.034  -0.674   1.207  0.00  0.00    +0.007 A 
ENDBRANCH  30  36
ENDBRANCH   1  30
TORSDOF 7
