REMARK  Name = ZINC57313078
REMARK  9 active torsions:
REMARK  status: ('A' for Active; 'I' for Inactive)
REMARK    1  A    between atoms: C_1  and  C_2
REMARK    2  A    between atoms: C_2  and  C_3
REMARK    3  A    between atoms: C_11  and  N_15
REMARK    4  A    between atoms: N_15  and  C_16
REMARK    5  A    between atoms: C_16  and  N_18
REMARK    6  A    between atoms: C_19  and  C_21
REMARK    7  A    between atoms: C_25  and  C_29
REMARK    8  A    between atoms: C_26  and  O_27
REMARK    9  A    between atoms: O_27  and  C_28
REMARK                            x       y       z     vdW  Elec       q    Type
REMARK                         _______ _______ _______ _____ _____    ______ ____
ROOT
ATOM      1  N   UNL     1       4.574  -4.419   7.621  0.00  0.00    -0.297 N 
ATOM      2  H   UNL     1       4.523  -5.388   7.620  0.00  0.00    +0.154 HD
ENDROOT
BRANCH   1  11
ATOM      3  C   UNL     1       0.566   0.357   1.949  0.00  0.00    +0.218 C 
ATOM      4  O   UNL     1       1.149  -0.568   1.424  0.00  0.00    -0.275 OA
ATOM      5  N   UNL     1       0.618   0.513   3.287  0.00  0.00    -0.265 N 
ATOM      6  C   UNL     1       1.335  -0.384   4.063  0.00  0.00    +0.165 A 
ATOM      7  N   UNL     1       2.027  -1.431   3.681  0.00  0.00    -0.225 NA
ATOM      8  C   UNL     1       2.685  -2.225   4.555  0.00  0.00    +0.080 A 
ATOM      9  C   UNL     1       3.460  -3.375   4.277  0.00  0.00    +0.031 A 
ATOM     10  C   UNL     1       4.063  -4.071   5.277  0.00  0.00    +0.025 A 
ATOM     11  C   UNL     1       3.943  -3.683   6.610  0.00  0.00    +0.034 A 
ATOM     12  C   UNL     1       3.191  -2.559   6.923  0.00  0.00    +0.040 A 
ATOM     13  C   UNL     1       2.581  -1.855   5.915  0.00  0.00    +0.043 A 
ATOM     14  S   UNL     1       1.561  -0.403   5.835  0.00  0.00    -0.052 S 
ATOM     15  H   UNL     1       0.152   1.253   3.707  0.00  0.00    +0.157 HD
BRANCH   3  17
ATOM     16  C   UNL     1      -0.110   0.930  -0.366  0.00  0.00    +0.013 C 
ATOM     17  C   UNL     1      -0.214   1.332   1.106  0.00  0.00    +0.093 C 
ENDBRANCH   3  17
ENDBRANCH   1  11
BRANCH   1  18
ATOM     18  C   UNL     1       5.252  -3.781   8.596  0.00  0.00    +0.141 C 
ATOM     19  S   UNL     1       5.251  -2.070   8.660  0.00  0.00    -0.018 S 
BRANCH  18  20
ATOM     20  N   UNL     1       5.930  -4.489   9.520  0.00  0.00    -0.263 N 
ATOM     21  C   UNL     1       6.607  -3.851  10.495  0.00  0.00    +0.253 C 
ATOM     22  O   UNL     1       6.607  -2.637  10.541  0.00  0.00    -0.270 OA
ATOM     23  H   UNL     1       5.930  -5.459   9.484  0.00  0.00    +0.157 HD
BRANCH  21  24
ATOM     24  C   UNL     1       7.349  -4.627  11.506  0.00  0.00    +0.080 A 
ATOM     25  C   UNL     1       7.357  -6.023  11.454  0.00  0.00    +0.032 A 
ATOM     26  C   UNL     1       8.053  -6.742  12.403  0.00  0.00    +0.019 A 
ATOM     27  C   UNL     1       8.745  -6.085  13.409  0.00  0.00    +0.022 A 
ATOM     28  C   UNL     1       8.745  -4.706  13.472  0.00  0.00    -0.007 A 
ATOM     29  C   UNL     1       8.055  -3.967  12.522  0.00  0.00    +0.135 A 
ATOM     30  C   UNL     1       9.500  -4.003  14.570  0.00  0.00    +0.047 C 
ATOM     31 BR   UNL     1       8.063  -8.632  12.332  0.00  0.00    -0.050 Br
BRANCH  29  32
ATOM     32  O   UNL     1       8.060  -2.612  12.579  0.00  0.00    -0.494 OA
ATOM     33  C   UNL     1       7.025  -1.991  13.345  0.00  0.00    +0.277 C 
ENDBRANCH  29  32
ENDBRANCH  21  24
ENDBRANCH  18  20
ENDBRANCH   1  18
TORSDOF 6
