REMARK  Name = ZINC20568238
REMARK  12 active torsions:
REMARK  status: ('A' for Active; 'I' for Inactive)
REMARK    1  A    between atoms: C_1  and  C_2
REMARK    2  A    between atoms: C_2  and  C_29
REMARK    3  A    between atoms: C_4  and  N_10
REMARK    4  A    between atoms: C_6  and  C_8
REMARK    5  A    between atoms: C_6  and  C_9
REMARK    6  A    between atoms: N_10  and  C_11
REMARK    7  A    between atoms: N_10  and  C_17
REMARK    8  A    between atoms: C_11  and  C_12
REMARK    9  A    between atoms: C_17  and  N_19
REMARK   10  A    between atoms: N_19  and  C_20
REMARK   11  A    between atoms: C_25  and  O_26
REMARK   12  A    between atoms: O_26  and  C_27
REMARK                            x       y       z     vdW  Elec       q    Type
REMARK                         _______ _______ _______ _____ _____    ______ ____
ROOT
ATOM      1  N   UNL     1      -0.592   1.521  -1.312  0.00  0.00    -0.305 N 
ENDROOT
BRANCH   1   5
ATOM      2  C   UNL     1      -1.990  -1.172  -4.506  0.00  0.00    -0.010 C 
ATOM      3  C   UNL     1      -1.720  -1.647  -3.073  0.00  0.00    -0.072 C 
ATOM      4  C   UNL     1      -0.774  -0.668  -2.381  0.00  0.00    +0.009 C 
ATOM      5  C   UNL     1      -1.519   0.609  -1.994  0.00  0.00    +0.073 C 
ATOM      6  C   UNL     1      -2.654   0.239  -1.040  0.00  0.00    +0.009 C 
ATOM      7  C   UNL     1      -3.624  -0.726  -1.718  0.00  0.00    -0.072 C 
ATOM      8  N   UNL     1      -2.957  -1.847  -2.347  0.00  0.00    +0.386 N 
ATOM      9  C   UNL     1      -4.490   0.039  -2.725  0.00  0.00    -0.010 C 
ATOM     10  C   UNL     1      -4.569  -1.278  -0.627  0.00  0.00    -0.010 C 
ATOM     11  C   UNL     1      -0.993  -3.006  -3.171  0.00  0.00    -0.010 C 
ATOM     12  H   UNL     1      -3.718  -2.259  -3.026  0.00  0.00    -0.084 HD
ATOM     13  H   UNL     1      -2.786  -2.550  -1.518  0.00  0.00    -0.084 HD
ENDBRANCH   1   5
BRANCH   1  14
ATOM     14  C   UNL     1      -0.264   2.698  -1.881  0.00  0.00    +0.138 C 
ATOM     15  S   UNL     1      -1.026   3.188  -3.334  0.00  0.00    -0.018 S 
BRANCH  14  16
ATOM     16  N   UNL     1       0.663   3.490  -1.306  0.00  0.00    -0.294 N 
ATOM     17  H   UNL     1       1.211   3.139  -0.419  0.00  0.00    +0.154 HD
BRANCH  16  18
ATOM     18  C   UNL     1       0.928   4.759  -1.838  0.00  0.00    +0.075 A 
ATOM     19  C   UNL     1      -0.118   5.585  -2.220  0.00  0.00    +0.028 A 
ATOM     20  C   UNL     1       0.145   6.836  -2.744  0.00  0.00    +0.022 A 
ATOM     21  C   UNL     1       1.452   7.268  -2.889  0.00  0.00    +0.045 A 
ATOM     22  C   UNL     1       2.501   6.449  -2.510  0.00  0.00    +0.067 A 
ATOM     23  C   UNL     1       2.243   5.196  -1.978  0.00  0.00    +0.143 A 
ATOM     24 CL   UNL     1       1.776   8.841  -3.548  0.00  0.00    -0.083 Cl
BRANCH  23  25
ATOM     25  O   UNL     1       3.273   4.392  -1.599  0.00  0.00    -0.493 OA
ATOM     26  C   UNL     1       4.595   4.906  -1.772  0.00  0.00    +0.277 C 
ENDBRANCH  23  25
ENDBRANCH  16  18
ENDBRANCH  14  16
ENDBRANCH   1  14
BRANCH   1  27
ATOM     27  C   UNL     1      -0.023   1.152  -0.014  0.00  0.00    +0.149 C 
BRANCH  27  28
ATOM     28  C   UNL     1      -0.832   1.787   1.088  0.00  0.00    +0.007 A 
ATOM     29  C   UNL     1      -1.841   1.256   1.821  0.00  0.00    +0.013 A 
ATOM     30  C   UNL     1      -2.445   2.033   2.792  0.00  0.00    +0.008 A 
ATOM     31  C   UNL     1      -2.011   3.303   2.981  0.00  0.00    +0.045 A 
ATOM     32  S   UNL     1      -0.705   3.431   1.771  0.00  0.00    -0.100 S 
ENDBRANCH  27  28
ENDBRANCH   1  27
TORSDOF 7
