REMARK  Name = ZINC00921954
REMARK  11 active torsions:
REMARK  status: ('A' for Active; 'I' for Inactive)
REMARK    1  A    between atoms: C_1  and  O_2
REMARK    2  A    between atoms: O_2  and  C_3
REMARK    3  A    between atoms: C_6  and  C_11
REMARK    4  A    between atoms: C_8  and  O_9
REMARK    5  A    between atoms: O_9  and  C_10
REMARK    6  A    between atoms: C_11  and  C_13
REMARK    7  A    between atoms: C_11  and  N_22
REMARK    8  A    between atoms: N_15  and  C_16
REMARK    9  A    between atoms: N_22  and  C_23
REMARK   10  A    between atoms: C_33  and  C_35
REMARK   11  A    between atoms: C_35  and  C_36
REMARK                            x       y       z     vdW  Elec       q    Type
REMARK                         _______ _______ _______ _____ _____    ______ ____
ROOT
ATOM      1  C   UNL     1      -4.996  -2.721   0.059  0.00  0.00    +0.197 C 
ENDROOT
BRANCH   1   5
ATOM      2  C   UNL     1      -1.876  -1.346   2.640  0.00  0.00    +0.162 A 
ATOM      3  C   UNL     1      -3.078  -0.660   2.575  0.00  0.00    +0.050 A 
ATOM      4  C   UNL     1      -4.084  -1.107   1.740  0.00  0.00    +0.010 A 
ATOM      5  C   UNL     1      -3.895  -2.238   0.968  0.00  0.00    -0.014 A 
ATOM      6  C   UNL     1      -2.698  -2.927   1.028  0.00  0.00    +0.055 A 
ATOM      7  C   UNL     1      -1.683  -2.481   1.859  0.00  0.00    +0.162 A 
BRANCH   2   9
ATOM      8  C   UNL     1      -1.153   0.264   4.234  0.00  0.00    +0.277 C 
ATOM      9  O   UNL     1      -0.884  -0.908   3.462  0.00  0.00    -0.491 OA
ENDBRANCH   2   9
BRANCH   7  10
ATOM     10  O   UNL     1      -0.503  -3.155   1.915  0.00  0.00    -0.491 OA
ATOM     11  C   UNL     1      -0.376  -4.311   1.085  0.00  0.00    +0.277 C 
ENDBRANCH   7  10
ENDBRANCH   1   5
BRANCH   1  12
ATOM     12  C   UNL     1      -4.658  -2.373  -1.368  0.00  0.00    +0.239 C 
ATOM     13  O   UNL     1      -5.433  -1.719  -2.033  0.00  0.00    -0.273 OA
ATOM     14  N   UNL     1      -3.494  -2.788  -1.906  0.00  0.00    -0.311 N 
ATOM     15  H   UNL     1      -2.873  -3.311  -1.374  0.00  0.00    +0.149 HD
BRANCH  14  16
ATOM     16  C   UNL     1      -3.165  -2.450  -3.293  0.00  0.00    +0.073 C 
ATOM     17  C   UNL     1      -3.797  -3.479  -4.232  0.00  0.00    +0.022 C 
ATOM     18  C   UNL     1      -3.454  -3.125  -5.681  0.00  0.00    +0.002 C 
ATOM     19  C   UNL     1      -1.935  -3.135  -5.862  0.00  0.00    +0.000 C 
ATOM     20  C   UNL     1      -1.303  -2.106  -4.923  0.00  0.00    +0.002 C 
ATOM     21  C   UNL     1      -1.646  -2.459  -3.474  0.00  0.00    +0.022 C 
ENDBRANCH  14  16
ENDBRANCH   1  12
BRANCH   1  22
ATOM     22  N   UNL     1      -6.256  -2.076   0.433  0.00  0.00    -0.255 N 
ATOM     23  C   UNL     1      -6.418  -0.751   0.242  0.00  0.00    +0.226 C 
ATOM     24  O   UNL     1      -5.544  -0.104  -0.294  0.00  0.00    -0.275 OA
BRANCH  22  25
ATOM     25  C   UNL     1      -7.294  -2.835   0.989  0.00  0.00    +0.041 A 
ATOM     26  C   UNL     1      -7.601  -4.083   0.463  0.00  0.00    +0.027 A 
ATOM     27  C   UNL     1      -8.624  -4.832   1.010  0.00  0.00    +0.051 A 
ATOM     28  C   UNL     1      -9.347  -4.341   2.087  0.00  0.00    +0.162 A 
ATOM     29  C   UNL     1      -9.041  -3.094   2.618  0.00  0.00    +0.164 A 
ATOM     30  C   UNL     1      -8.011  -2.344   2.071  0.00  0.00    +0.073 A 
ATOM     31  O   UNL     1      -9.735  -2.599   3.680  0.00  0.00    -0.485 OA
ATOM     32  C   UNL     1     -10.995  -3.214   3.968  0.00  0.00    +0.270 C 
ATOM     33  C   UNL     1     -10.809  -4.736   3.921  0.00  0.00    +0.270 C 
ATOM     34  O   UNL     1     -10.356  -5.093   2.611  0.00  0.00    -0.485 OA
ENDBRANCH  22  25
BRANCH  23  35
ATOM     35  C   UNL     1      -7.686  -0.074   0.697  0.00  0.00    +0.138 C 
BRANCH  35  36
ATOM     36  C   UNL     1      -8.196   0.824  -0.400  0.00  0.00    -0.001 A 
ATOM     37  C   UNL     1      -9.055   0.537  -1.409  0.00  0.00    +0.011 A 
ATOM     38  C   UNL     1      -9.386   1.531  -2.311  0.00  0.00    +0.008 A 
ATOM     39  C   UNL     1      -8.842   2.763  -2.160  0.00  0.00    +0.045 A 
ATOM     40  S   UNL     1      -7.832   2.546  -0.704  0.00  0.00    -0.101 S 
ENDBRANCH  35  36
ENDBRANCH  23  35
ENDBRANCH   1  22
TORSDOF 9
