REMARK  Name = ZINC16195946
REMARK  7 active torsions:
REMARK  status: ('A' for Active; 'I' for Inactive)
REMARK    1  A    between atoms: C_1  and  O_2
REMARK    2  A    between atoms: O_2  and  C_3
REMARK    3  A    between atoms: C_5  and  N_21
REMARK    4  A    between atoms: C_8  and  N_9
REMARK    5  A    between atoms: C_10  and  C_12
REMARK    6  A    between atoms: C_22  and  C_23
REMARK    7  A    between atoms: C_27  and  N_29
REMARK                            x       y       z     vdW  Elec       q    Type
REMARK                         _______ _______ _______ _____ _____    ______ ____
ROOT
ATOM      1  C   UNL     1       1.161   3.176   0.020  0.00  0.00    +0.143 A 
ATOM      2  C   UNL     1      -0.046   3.850   0.045  0.00  0.00    +0.075 A 
ATOM      3  C   UNL     1      -1.244   3.132   0.060  0.00  0.00    +0.067 A 
ATOM      4  C   UNL     1      -1.218   1.735   0.045  0.00  0.00    +0.030 A 
ATOM      5  C   UNL     1      -0.012   1.068   0.026  0.00  0.00    +0.029 A 
ATOM      6  C   UNL     1       1.179   1.781   0.011  0.00  0.00    +0.076 A 
ENDROOT
BRANCH   6   7
ATOM      7  N   UNL     1       2.401   1.099  -0.015  0.00  0.00    -0.276 N 
ATOM      8  C   UNL     1       2.465  -0.150  -0.516  0.00  0.00    +0.284 C 
ATOM      9  O   UNL     1       1.485  -0.648  -1.037  0.00  0.00    -0.266 OA
ATOM     10  H   UNL     1       3.202   1.526   0.328  0.00  0.00    +0.155 HD
BRANCH   8  11
ATOM     11  C   UNL     1       3.719  -0.912  -0.432  0.00  0.00    +0.191 A 
ATOM     12  C   UNL     1       3.900  -2.174  -0.901  0.00  0.00    +0.063 A 
ATOM     13  C   UNL     1       5.289  -2.522  -0.602  0.00  0.00    +0.021 A 
ATOM     14  C   UNL     1       6.078  -3.653  -0.822  0.00  0.00    +0.011 A 
ATOM     15  C   UNL     1       7.380  -3.661  -0.409  0.00  0.00    +0.001 A 
ATOM     16  C   UNL     1       7.923  -2.552   0.226  0.00  0.00    +0.004 A 
ATOM     17  C   UNL     1       7.162  -1.426   0.452  0.00  0.00    +0.047 A 
ATOM     18  C   UNL     1       5.834  -1.395   0.042  0.00  0.00    +0.136 A 
ATOM     19  O   UNL     1       4.867  -0.461   0.116  0.00  0.00    -0.450 OA
ENDBRANCH   8  11
ENDBRANCH   6   7
BRANCH   1  21
ATOM     20  C   UNL     1       2.234   5.298   0.016  0.00  0.00    +0.277 C 
ATOM     21  O   UNL     1       2.329   3.872   0.005  0.00  0.00    -0.493 OA
ENDBRANCH   1  21
BRANCH   3  22
ATOM     22  N   UNL     1      -2.440   3.796   0.084  0.00  0.00    -0.255 NA
ATOM     23  C   UNL     1      -3.410   3.418  -0.701  0.00  0.00    +0.123 C 
BRANCH  23  24
ATOM     24  C   UNL     1      -4.696   4.131  -0.675  0.00  0.00    +0.043 A 
ATOM     25  C   UNL     1      -5.740   3.730  -1.515  0.00  0.00    +0.028 A 
ATOM     26  C   UNL     1      -6.943   4.404  -1.486  0.00  0.00    +0.021 A 
ATOM     27  C   UNL     1      -7.122   5.477  -0.627  0.00  0.00    +0.052 A 
ATOM     28  C   UNL     1      -6.099   5.883   0.208  0.00  0.00    +0.174 A 
ATOM     29  C   UNL     1      -4.885   5.215   0.196  0.00  0.00    +0.218 A 
ATOM     30 BR   UNL     1      -8.354   3.861  -2.622  0.00  0.00    -0.050 Br
ATOM     31  O   UNL     1      -3.882   5.609   1.020  0.00  0.00    -0.285 OA
BRANCH  28  32
ATOM     32  N   UNL     1      -6.302   7.030   1.121  0.00  0.00    +0.060 N 
ATOM     33  O   UNL     1      -7.370   7.615   1.135  0.00  0.00    -0.126 OA
ATOM     34  O   UNL     1      -5.401   7.389   1.858  0.00  0.00    -0.126 OA
ENDBRANCH  28  32
ENDBRANCH  23  24
ENDBRANCH   3  22
TORSDOF 6
