REMARK  Name = ZINC35664213
REMARK  11 active torsions:
REMARK  status: ('A' for Active; 'I' for Inactive)
REMARK    1  A    between atoms: C_1  and  C_2
REMARK    2  A    between atoms: C_2  and  N_3
REMARK    3  A    between atoms: C_4  and  C_23
REMARK    4  A    between atoms: C_5  and  C_18
REMARK    5  A    between atoms: C_6  and  C_11
REMARK    6  A    between atoms: C_18  and  O_20
REMARK    7  A    between atoms: O_20  and  C_21
REMARK    8  A    between atoms: C_21  and  C_22
REMARK    9  A    between atoms: C_23  and  N_24
REMARK   10  A    between atoms: C_31  and  C_33
REMARK   11  A    between atoms: C_36  and  C_39
REMARK                            x       y       z     vdW  Elec       q    Type
REMARK                         _______ _______ _______ _____ _____    ______ ____
ROOT
ATOM      1  N   UNL     1      -1.898  -0.028   0.092  0.00  0.00    -0.261 N 
ATOM      2  C   UNL     1      -1.936  -0.865   1.171  0.00  0.00    +0.010 C 
ATOM      3  C   UNL     1      -2.738  -1.952   1.182  0.00  0.00    +0.076 C 
ATOM      4  C   UNL     1      -3.593  -2.209  -0.042  0.00  0.00    +0.144 C 
ATOM      5  N   UNL     1      -3.479  -1.247  -1.150  0.00  0.00    -0.288 N 
ATOM      6  C   UNL     1      -2.636  -0.205  -1.011  0.00  0.00    +0.307 C 
ATOM      7  O   UNL     1      -2.537   0.598  -1.919  0.00  0.00    -0.252 OA
ATOM      8  H   UNL     1      -4.002  -1.358  -1.960  0.00  0.00    +0.151 HD
ENDROOT
BRANCH   4   9
ATOM      9  C   UNL     1      -5.035  -2.242   0.397  0.00  0.00    -0.020 A 
ATOM     10  C   UNL     1      -5.721  -1.060   0.604  0.00  0.00    +0.006 A 
ATOM     11  C   UNL     1      -7.043  -1.089   1.006  0.00  0.00    +0.003 A 
ATOM     12  C   UNL     1      -7.680  -2.300   1.204  0.00  0.00    +0.038 A 
ATOM     13  C   UNL     1      -6.993  -3.484   0.998  0.00  0.00    +0.124 A 
ATOM     14  C   UNL     1      -5.670  -3.454   0.589  0.00  0.00    +0.044 A 
ATOM     15  F   UNL     1      -7.614  -4.668   1.192  0.00  0.00    -0.205 F 
ENDBRANCH   4   9
BRANCH   1  17
ATOM     16  C   UNL     1      -1.788   2.355   0.631  0.00  0.00    +0.025 C 
ATOM     17  C   UNL     1      -1.006   1.132   0.149  0.00  0.00    +0.111 C 
ENDBRANCH   1  17
BRANCH   3  18
ATOM     18  C   UNL     1      -2.777  -2.820   2.297  0.00  0.00    +0.339 C 
ATOM     19  O   UNL     1      -2.148  -2.548   3.303  0.00  0.00    -0.245 OA
BRANCH  18  20
ATOM     20  O   UNL     1      -3.512  -3.951   2.247  0.00  0.00    -0.462 OA
BRANCH  20  21
ATOM     21  C   UNL     1      -3.506  -4.781   3.410  0.00  0.00    +0.229 C 
ATOM     22  C   UNL     1      -4.388  -6.007   3.166  0.00  0.00    +0.048 C 
ENDBRANCH  20  21
ENDBRANCH  18  20
ENDBRANCH   3  18
BRANCH   2  23
ATOM     23  C   UNL     1      -1.068  -0.572   2.368  0.00  0.00    -0.026 C 
BRANCH  23  24
ATOM     24  N   UNL     1       0.141  -1.405   2.312  0.00  0.00    +0.384 N 
ATOM     25  C   UNL     1       0.850  -1.273   3.582  0.00  0.00    -0.077 C 
ATOM     26  C   UNL     1       1.611  -2.550   3.864  0.00  0.00    +0.000 C 
ATOM     27  C   UNL     1       3.051  -2.415   3.336  0.00  0.00    +0.106 C 
ATOM     28  N   UNL     1       3.076  -1.714   2.037  0.00  0.00    -0.299 N 
ATOM     29  C   UNL     1       2.102  -1.971   0.997  0.00  0.00    +0.089 C 
ATOM     30  C   UNL     1       0.887  -1.032   1.172  0.00  0.00    -0.059 C 
ATOM     31  C   UNL     1       4.041  -0.800   1.811  0.00  0.00    +0.247 C 
ATOM     32  O   UNL     1       4.021  -0.133   0.795  0.00  0.00    -0.270 OA
ATOM     33  H   UNL     1      -0.142  -2.367   2.206  0.00  0.00    -0.081 HD
BRANCH  31  34
ATOM     34  C   UNL     1       5.125  -0.610   2.799  0.00  0.00    +0.037 A 
ATOM     35  C   UNL     1       5.633  -1.704   3.501  0.00  0.00    +0.013 A 
ATOM     36  C   UNL     1       6.644  -1.519   4.421  0.00  0.00    +0.004 A 
ATOM     37  C   UNL     1       7.155  -0.253   4.648  0.00  0.00    -0.050 A 
ATOM     38  C   UNL     1       6.655   0.835   3.955  0.00  0.00    +0.004 A 
ATOM     39  C   UNL     1       5.648   0.664   3.028  0.00  0.00    +0.013 A 
ATOM     40  C   UNL     1       8.259  -0.059   5.655  0.00  0.00    +0.044 C 
ENDBRANCH  31  34
ENDBRANCH  23  24
ENDBRANCH   2  23
TORSDOF 8
