REMARK  Name = ZINC39898517
REMARK  13 active torsions:
REMARK  status: ('A' for Active; 'I' for Inactive)
REMARK    1  A    between atoms: C_1  and  C_2
REMARK    2  A    between atoms: C_2  and  C_3
REMARK    3  A    between atoms: C_3  and  C_4
REMARK    4  A    between atoms: C_4  and  N_5
REMARK    5  A    between atoms: C_6  and  C_24
REMARK    6  A    between atoms: C_9  and  C_16
REMARK    7  A    between atoms: C_27  and  O_32
REMARK    8  A    between atoms: C_28  and  O_30
REMARK    9  A    between atoms: O_30  and  C_31
REMARK   10  A    between atoms: O_32  and  C_33
REMARK   11  A    between atoms: C_33  and  C_34
REMARK   12  A    between atoms: C_34  and  C_35
REMARK   13  A    between atoms: C_34  and  C_36
REMARK                            x       y       z     vdW  Elec       q    Type
REMARK                         _______ _______ _______ _____ _____    ______ ____
ROOT
ATOM      1  N   UNL     1       1.425  -2.500  -2.470  0.00  0.00    -0.285 N 
ATOM      2  C   UNL     1       0.784  -2.780  -3.761  0.00  0.00    +0.141 C 
ATOM      3  C   UNL     1       1.879  -3.236  -4.686  0.00  0.00    +0.035 A 
ATOM      4  C   UNL     1       2.229  -3.664  -5.927  0.00  0.00    +0.075 A 
ATOM      5  N   UNL     1       3.578  -3.877  -5.902  0.00  0.00    -0.276 N 
ATOM      6  N   UNL     1       4.043  -3.605  -4.735  0.00  0.00    -0.168 NA
ATOM      7  H   UNL     1       4.106  -4.188  -6.653  0.00  0.00    +0.189 HD
ATOM      8  C   UNL     1       3.075  -3.207  -3.933  0.00  0.00    +0.153 A 
ATOM      9  C   UNL     1       2.743  -2.741  -2.575  0.00  0.00    +0.268 C 
ATOM     10  O   UNL     1       3.547  -2.598  -1.675  0.00  0.00    -0.268 OA
ENDROOT
BRANCH   4  11
ATOM     11  C   UNL     1       1.325  -3.860  -7.082  0.00  0.00    +0.048 A 
ATOM     12  C   UNL     1       1.119  -5.138  -7.600  0.00  0.00    +0.033 A 
ATOM     13  C   UNL     1       0.274  -5.316  -8.678  0.00  0.00    +0.042 A 
ATOM     14  C   UNL     1      -0.369  -4.229  -9.246  0.00  0.00    +0.024 A 
ATOM     15  C   UNL     1      -0.171  -2.958  -8.740  0.00  0.00    +0.053 A 
ATOM     16  C   UNL     1       0.668  -2.765  -7.655  0.00  0.00    +0.188 A 
ATOM     17  O   UNL     1       0.859  -1.517  -7.153  0.00  0.00    -0.287 OA
ATOM     18 CL   UNL     1       0.017  -6.907  -9.323  0.00  0.00    -0.084 Cl
ENDBRANCH   4  11
BRANCH   2  19
ATOM     19  C   UNL     1      -0.247  -3.868  -3.602  0.00  0.00    -0.019 A 
ATOM     20  C   UNL     1       0.013  -4.949  -2.781  0.00  0.00    +0.009 A 
ATOM     21  C   UNL     1      -0.930  -5.949  -2.631  0.00  0.00    +0.050 A 
ATOM     22  C   UNL     1      -2.138  -5.869  -3.305  0.00  0.00    +0.162 A 
ATOM     23  C   UNL     1      -2.399  -4.780  -4.131  0.00  0.00    +0.162 A 
ATOM     24  C   UNL     1      -1.452  -3.779  -4.272  0.00  0.00    +0.055 A 
BRANCH  23  25
ATOM     25  O   UNL     1      -3.584  -4.697  -4.794  0.00  0.00    -0.491 OA
ATOM     26  C   UNL     1      -3.783  -3.551  -5.625  0.00  0.00    +0.277 C 
ENDBRANCH  23  25
BRANCH  22  27
ATOM     27  O   UNL     1      -3.066  -6.852  -3.159  0.00  0.00    -0.488 OA
BRANCH  27  28
ATOM     28  C   UNL     1      -2.729  -7.940  -2.296  0.00  0.00    +0.232 C 
BRANCH  28  29
ATOM     29  C   UNL     1      -3.887  -8.939  -2.258  0.00  0.00    +0.020 C 
ATOM     30  C   UNL     1      -3.479 -10.162  -1.434  0.00  0.00    +0.010 C 
ATOM     31  C   UNL     1      -5.110  -8.279  -1.619  0.00  0.00    +0.010 C 
ENDBRANCH  28  29
ENDBRANCH  27  28
ENDBRANCH  22  27
ENDBRANCH   2  19
BRANCH   1  32
ATOM     32  C   UNL     1       0.739  -2.027  -1.265  0.00  0.00    +0.109 C 
BRANCH  32  33
ATOM     33  C   UNL     1       0.718  -0.497  -1.257  0.00  0.00    +0.019 C 
BRANCH  33  35
ATOM     34  C   UNL     1      -0.019   1.526   0.010  0.00  0.00    +0.004 C 
ATOM     35  C   UNL     1       0.002  -0.004   0.002  0.00  0.00    -0.002 C 
ENDBRANCH  33  35
ENDBRANCH  32  33
ENDBRANCH   1  32
TORSDOF 9
