REMARK  Name = ZINC02201806
REMARK  5 active torsions:
REMARK  status: ('A' for Active; 'I' for Inactive)
REMARK    1  A    between atoms: C_4  and  N_7
REMARK    2  A    between atoms: N_10  and  C_13
REMARK    3  A    between atoms: C_14  and  C_24
REMARK    4  A    between atoms: C_25  and  C_26
REMARK    5  A    between atoms: C_25  and  C_28
REMARK                            x       y       z     vdW  Elec       q    Type
REMARK                         _______ _______ _______ _____ _____    ______ ____
ROOT
ATOM      1  C   UNL     1       6.992  -2.532   1.242  0.00  0.00    +0.136 A 
ATOM      2  C   UNL     1       7.011  -3.950   1.196  0.00  0.00    +0.081 A 
ATOM      3  C   UNL     1       8.271  -4.603   1.151  0.00  0.00    +0.267 A 
ATOM      4  O   UNL     1       8.337  -5.818   1.111  0.00  0.00    -0.267 OA
ATOM      5  N   UNL     1       9.394  -3.853   1.153  0.00  0.00    -0.268 N 
ATOM      6  C   UNL     1      10.607  -4.471   1.110  0.00  0.00    +0.096 A 
ATOM      7  C   UNL     1      11.752  -3.752   1.110  0.00  0.00    +0.018 A 
ATOM      8  C   UNL     1      11.702  -2.352   1.156  0.00  0.00    +0.005 A 
ATOM      9  C   UNL     1      10.492  -1.724   1.200  0.00  0.00    +0.047 A 
ATOM     10  C   UNL     1       9.312  -2.489   1.198  0.00  0.00    +0.142 A 
ATOM     11  N   UNL     1       8.134  -1.864   1.235  0.00  0.00    -0.214 NA
ENDROOT
BRANCH   1  15
ATOM     12  N   UNL     1       4.237   0.391   1.286  0.00  0.00    -0.327 N 
ATOM     13  C   UNL     1       4.966   0.077   2.523  0.00  0.00    +0.124 C 
ATOM     14  C   UNL     1       5.221  -1.434   2.573  0.00  0.00    +0.125 C 
ATOM     15  N   UNL     1       5.794  -1.856   1.287  0.00  0.00    -0.312 N 
ATOM     16  C   UNL     1       5.065  -1.543   0.050  0.00  0.00    +0.125 C 
ATOM     17  C   UNL     1       4.808  -0.036   0.001  0.00  0.00    +0.124 C 
BRANCH  12  21
ATOM     18  C   UNL     1       0.612   2.434   1.422  0.00  0.00    +0.000 A 
ATOM     19  C   UNL     1       1.197   2.147   0.202  0.00  0.00    +0.002 A 
ATOM     20  C   UNL     1       2.400   1.470   0.153  0.00  0.00    +0.023 A 
ATOM     21  C   UNL     1       3.021   1.076   1.332  0.00  0.00    +0.030 A 
ATOM     22  C   UNL     1       2.431   1.366   2.555  0.00  0.00    +0.023 A 
ATOM     23  C   UNL     1       1.228   2.044   2.597  0.00  0.00    +0.002 A 
ENDBRANCH  12  21
ENDBRANCH   1  15
BRANCH   2  24
ATOM     24  C   UNL     1       5.815  -4.688   1.197  0.00  0.00    +0.040 C 
ATOM     25  C   UNL     1       5.502  -5.501   2.278  0.00  0.00    +0.114 C 
BRANCH  25  26
ATOM     26  C   UNL     1       4.210  -6.192   2.325  0.00  0.00    +0.252 C 
ATOM     27  O   UNL     1       3.411  -6.053   1.417  0.00  0.00    -0.270 OA
ATOM     28  N   UNL     1       3.905  -6.982   3.374  0.00  0.00    -0.325 N 
ATOM     29  H   UNL     1       4.541  -7.093   4.098  0.00  0.00    +0.145 HD
ATOM     30  H   UNL     1       3.050  -7.439   3.405  0.00  0.00    +0.145 HD
ENDBRANCH  25  26
BRANCH  25  31
ATOM     31  C   UNL     1       6.441  -5.665   3.346  0.00  0.00    +0.104 C 
ATOM     32  N   UNL     1       7.186  -5.795   4.194  0.00  0.00    -0.191 NA
ENDBRANCH  25  31
ENDBRANCH   2  24
TORSDOF 5
