REMARK  Name = ZINC65451796
REMARK  8 active torsions:
REMARK  status: ('A' for Active; 'I' for Inactive)
REMARK    1  A    between atoms: C_1  and  C_2
REMARK    2  A    between atoms: C_2  and  C_4
REMARK    3  A    between atoms: C_2  and  N_14
REMARK    4  A    between atoms: C_7  and  S_10
REMARK    5  A    between atoms: S_10  and  N_13
REMARK    6  A    between atoms: N_17  and  C_18
REMARK    7  A    between atoms: C_18  and  C_20
REMARK    8  A    between atoms: C_18  and  C_21
REMARK                            x       y       z     vdW  Elec       q    Type
REMARK                         _______ _______ _______ _____ _____    ______ ____
ROOT
ATOM      1  C   UNL     1      -0.019   1.526   0.010  0.00  0.00    +0.033 C 
ATOM      2  C   UNL     1       0.002  -0.004   0.002  0.00  0.00    +0.102 C 
ENDROOT
BRANCH   2   3
ATOM      3  C   UNL     1       0.707  -0.490  -1.238  0.00  0.00    -0.027 A 
ATOM      4  C   UNL     1       2.089  -0.511  -1.284  0.00  0.00    +0.007 A 
ATOM      5  C   UNL     1       2.736  -0.957  -2.421  0.00  0.00    +0.029 A 
ATOM      6  C   UNL     1       2.002  -1.382  -3.512  0.00  0.00    +0.105 A 
ATOM      7  C   UNL     1       0.620  -1.362  -3.466  0.00  0.00    +0.029 A 
ATOM      8  C   UNL     1      -0.027  -0.920  -2.327  0.00  0.00    +0.007 A 
BRANCH   6   9
ATOM      9  S   UNL     1       2.826  -1.949  -4.962  0.00  0.00    +0.056 S 
ATOM     10  O   UNL     1       1.916  -1.778  -6.040  0.00  0.00    -0.153 OA
ATOM     11  O   UNL     1       4.117  -1.356  -4.954  0.00  0.00    -0.153 OA
BRANCH   9  12
ATOM     12  N   UNL     1       3.054  -3.580  -4.790  0.00  0.00    -0.204 NA
ATOM     13  H   UNL     1       2.745  -4.031  -3.989  0.00  0.00    +0.144 HD
ATOM     14  H   UNL     1       3.497  -4.085  -5.490  0.00  0.00    +0.144 HD
ENDBRANCH   9  12
ENDBRANCH   6   9
ENDBRANCH   2   3
BRANCH   2  15
ATOM     15  N   UNL     1       0.711  -0.489   1.189  0.00  0.00    -0.293 N 
ATOM     16  C   UNL     1       0.051  -0.633   2.355  0.00  0.00    +0.300 C 
ATOM     17  O   UNL     1      -1.132  -0.361   2.423  0.00  0.00    -0.253 OA
ATOM     18  N   UNL     1       0.703  -1.080   3.447  0.00  0.00    -0.297 N 
ATOM     19  H   UNL     1       1.654  -0.707   1.135  0.00  0.00    +0.151 HD
ATOM     20  H   UNL     1       1.647  -1.298   3.394  0.00  0.00    +0.151 HD
BRANCH  18  21
ATOM     21  C   UNL     1      -0.014  -1.237   4.715  0.00  0.00    +0.074 C 
ATOM     22  C   UNL     1      -0.037   0.102   5.457  0.00  0.00    +0.028 C 
BRANCH  21  23
ATOM     23  C   UNL     1       0.695  -2.284   5.576  0.00  0.00    +0.009 C 
ATOM     24  C   UNL     1      -0.029  -3.611   5.814  0.00  0.00    +0.005 C 
ATOM     25  C   UNL     1       0.096  -2.593   6.949  0.00  0.00    +0.005 C 
ENDBRANCH  21  23
ENDBRANCH  18  21
ENDBRANCH   2  15
TORSDOF 6
