REMARK  Name = ZINC13569315
REMARK  7 active torsions:
REMARK  status: ('A' for Active; 'I' for Inactive)
REMARK    1  A    between atoms: C_1  and  C_2
REMARK    2  A    between atoms: C_7  and  N_8
REMARK    3  A    between atoms: C_9  and  C_11
REMARK    4  A    between atoms: C_12  and  C_32
REMARK    5  A    between atoms: C_15  and  C_30
REMARK    6  A    between atoms: C_19  and  C_21
REMARK    7  A    between atoms: C_24  and  C_27
REMARK                            x       y       z     vdW  Elec       q    Type
REMARK                         _______ _______ _______ _____ _____    ______ ____
ROOT
ATOM      1  C   UNL     1      -0.139   0.372   4.799  0.00  0.00    +0.062 C 
ATOM      2  C   UNL     1      -0.087  -0.124   6.070  0.00  0.00    +0.051 C 
ATOM      3  N   UNL     1      -0.004   0.673   7.128  0.00  0.00    -0.234 NA
ATOM      4  C   UNL     1       0.036   1.988   7.074  0.00  0.00    +0.157 C 
ATOM      5  C   UNL     1       0.126   3.021   8.117  0.00  0.00    +0.108 C 
ATOM      6  C   UNL     1       0.131   4.241   7.470  0.00  0.00    +0.110 C 
ATOM      7  N   UNL     1       0.052   4.032   6.140  0.00  0.00    -0.268 N 
ATOM      8  N   UNL     1      -0.006   2.664   5.878  0.00  0.00    -0.224 N 
ATOM      9  C   UNL     1      -0.093   1.880   4.636  0.00  0.00    +0.162 C 
ATOM     10  C   UNL     1      -0.124  -1.617   6.278  0.00  0.00    +0.066 C 
ATOM     11  H   UNL     1       0.039   4.730   5.466  0.00  0.00    +0.170 HD
ENDROOT
BRANCH   9  12
ATOM     12  C   UNL     1      -1.335   2.311   3.901  0.00  0.00    -0.021 A 
ATOM     13  C   UNL     1      -2.553   2.332   4.558  0.00  0.00    +0.006 A 
ATOM     14  C   UNL     1      -3.694   2.725   3.891  0.00  0.00    +0.015 A 
ATOM     15  C   UNL     1      -3.619   3.103   2.548  0.00  0.00    +0.063 A 
ATOM     16  C   UNL     1      -2.386   3.080   1.891  0.00  0.00    +0.015 A 
ATOM     17  C   UNL     1      -1.252   2.690   2.572  0.00  0.00    +0.006 A 
BRANCH  15  18
ATOM     18  C   UNL     1      -4.835   3.524   1.827  0.00  0.00    +0.387 C 
ATOM     19  O   UNL     1      -5.913   3.543   2.405  0.00  0.00    -0.241 OA
ATOM     20  O   UNL     1      -4.766   3.855   0.651  0.00  0.00    -0.241 OA
ENDBRANCH  15  18
ENDBRANCH   9  12
BRANCH   1  22
ATOM     21  N   UNL     1      -1.413  -1.017   3.336  0.00  0.00    -0.281 N 
ATOM     22  C   UNL     1      -0.227  -0.482   3.683  0.00  0.00    +0.248 C 
ATOM     23  O   UNL     1       0.771  -0.737   3.031  0.00  0.00    -0.270 OA
ATOM     24  H   UNL     1      -2.219  -0.760   3.811  0.00  0.00    +0.155 HD
BRANCH  21  31
ATOM     25  C   UNL     1      -3.946  -1.490   2.127  0.00  0.00    +0.045 C 
ATOM     26  C   UNL     1      -2.699  -2.206   1.673  0.00  0.00    -0.029 A 
ATOM     27  C   UNL     1      -2.764  -3.118   0.638  0.00  0.00    +0.005 A 
ATOM     28  C   UNL     1      -1.621  -3.775   0.221  0.00  0.00    +0.000 A 
ATOM     29  C   UNL     1      -0.409  -3.521   0.838  0.00  0.00    +0.002 A 
ATOM     30  C   UNL     1      -0.338  -2.610   1.874  0.00  0.00    +0.023 A 
ATOM     31  C   UNL     1      -1.484  -1.944   2.292  0.00  0.00    +0.037 A 
ENDBRANCH  21  31
ENDBRANCH   1  22
BRANCH   5  32
ATOM     32  C   UNL     1       0.195   2.803   9.531  0.00  0.00    +0.104 C 
ATOM     33  N   UNL     1       0.249   2.630  10.652  0.00  0.00    -0.191 NA
ENDBRANCH   5  32
TORSDOF 5
