REMARK  Name = ZINC13392627
REMARK  10 active torsions:
REMARK  status: ('A' for Active; 'I' for Inactive)
REMARK    1  A    between atoms: C_1  and  C_2
REMARK    2  A    between atoms: C_5  and  S_9
REMARK    3  A    between atoms: C_7  and  C_8
REMARK    4  A    between atoms: S_9  and  N_12
REMARK    5  A    between atoms: C_15  and  C_18
REMARK    6  A    between atoms: N_20  and  C_21
REMARK    7  A    between atoms: C_21  and  C_22
REMARK    8  A    between atoms: C_25  and  O_30
REMARK    9  A    between atoms: C_26  and  C_28
REMARK   10  A    between atoms: O_30  and  C_31
REMARK                            x       y       z     vdW  Elec       q    Type
REMARK                         _______ _______ _______ _____ _____    ______ ____
ROOT
ATOM      1  N   UNL     1      -3.217   4.241  -1.528  0.00  0.00    -0.177 NA
ATOM      2  C   UNL     1      -2.805   5.459  -2.239  0.00  0.00    +0.110 C 
ATOM      3  C   UNL     1      -2.102   5.050  -3.542  0.00  0.00    +0.030 C 
ATOM      4  C   UNL     1      -3.026   4.135  -4.348  0.00  0.00    +0.077 C 
ATOM      5  C   UNL     1      -3.322   2.868  -3.542  0.00  0.00    +0.030 C 
ATOM      6  C   UNL     1      -4.034   3.249  -2.241  0.00  0.00    +0.110 C 
ENDROOT
BRANCH   4   7
ATOM      7  C   UNL     1      -2.356   3.760  -5.645  0.00  0.00    +0.216 C 
ATOM      8  O   UNL     1      -2.136   2.595  -5.900  0.00  0.00    -0.276 OA
ATOM      9  N   UNL     1      -2.001   4.721  -6.521  0.00  0.00    -0.311 N 
ATOM     10  H   UNL     1      -2.176   5.652  -6.318  0.00  0.00    +0.149 HD
BRANCH   9  11
ATOM     11  C   UNL     1      -1.349   4.357  -7.782  0.00  0.00    +0.139 C 
BRANCH  11  12
ATOM     12  C   UNL     1      -1.058   5.604  -8.576  0.00  0.00    -0.029 A 
ATOM     13  C   UNL     1      -1.997   6.085  -9.473  0.00  0.00    +0.009 A 
ATOM     14  C   UNL     1      -1.744   7.230 -10.203  0.00  0.00    +0.047 A 
ATOM     15  C   UNL     1      -0.540   7.902 -10.048  0.00  0.00    +0.134 A 
ATOM     16  C   UNL     1       0.415   7.415  -9.145  0.00  0.00    +0.105 A 
ATOM     17  C   UNL     1       0.143   6.258  -8.409  0.00  0.00    +0.024 A 
BRANCH  16  18
ATOM     18  C   UNL     1       1.698   8.120  -8.971  0.00  0.00    +0.390 C 
ATOM     19  O   UNL     1       1.930   9.126  -9.613  0.00  0.00    -0.240 OA
ATOM     20  O   UNL     1       2.613   7.649  -8.101  0.00  0.00    -0.240 OA
ENDBRANCH  16  18
BRANCH  15  21
ATOM     21  O   UNL     1      -0.288   9.023 -10.768  0.00  0.00    -0.494 OA
ATOM     22  C   UNL     1      -1.309   9.459 -11.669  0.00  0.00    +0.277 C 
ENDBRANCH  15  21
ENDBRANCH  11  12
ENDBRANCH   9  11
ENDBRANCH   4   7
BRANCH   1  23
ATOM     23  S   UNL     1      -2.775   3.993   0.049  0.00  0.00    +0.061 S 
ATOM     24  O   UNL     1      -3.732   3.102   0.604  0.00  0.00    -0.153 OA
ATOM     25  O   UNL     1      -2.517   5.275   0.604  0.00  0.00    -0.153 OA
BRANCH  23  30
ATOM     26  C   UNL     1       2.490   1.048  -0.016  0.00  0.00    +0.044 C 
ATOM     27  C   UNL     1       1.175   1.783   0.000  0.00  0.00    -0.047 A 
ATOM     28  C   UNL     1      -0.013   1.076   0.008  0.00  0.00    +0.005 A 
ATOM     29  C   UNL     1      -1.219   1.750   0.017  0.00  0.00    +0.029 A 
ATOM     30  C   UNL     1      -1.238   3.133   0.030  0.00  0.00    +0.106 A 
ATOM     31  C   UNL     1      -0.050   3.840   0.023  0.00  0.00    +0.032 A 
ATOM     32  C   UNL     1       1.157   3.165   0.008  0.00  0.00    -0.046 A 
ATOM     33  C   UNL     1       2.451   3.937  -0.001  0.00  0.00    +0.044 C 
ENDBRANCH  23  30
ENDBRANCH   1  23
TORSDOF 7
