REMARK  Name = ZINC03047703
REMARK  8 active torsions:
REMARK  status: ('A' for Active; 'I' for Inactive)
REMARK    1  A    between atoms: C_1  and  O_2
REMARK    2  A    between atoms: O_2  and  C_3
REMARK    3  A    between atoms: C_6  and  N_11
REMARK    4  A    between atoms: C_7  and  O_9
REMARK    5  A    between atoms: O_9  and  C_10
REMARK    6  A    between atoms: N_14  and  C_15
REMARK    7  A    between atoms: C_17  and  C_37
REMARK    8  A    between atoms: C_20  and  N_21
REMARK                            x       y       z     vdW  Elec       q    Type
REMARK                         _______ _______ _______ _____ _____    ______ ____
ROOT
ATOM      1  C   UNL     1      -8.356  -1.656   0.220  0.00  0.00    +0.057 A 
ATOM      2  C   UNL     1      -8.307  -0.276   0.217  0.00  0.00    +0.040 A 
ATOM      3  C   UNL     1      -9.495   0.463   0.261  0.00  0.00    +0.065 A 
ATOM      4  C   UNL     1     -10.727  -0.200   0.306  0.00  0.00    +0.017 A 
ATOM      5  C   UNL     1     -10.770  -1.576   0.309  0.00  0.00    +0.026 A 
ATOM      6  C   UNL     1      -9.590  -2.312   0.260  0.00  0.00    +0.051 A 
ENDROOT
BRANCH   6   7
ATOM      7  N   UNL     1      -9.639  -3.702   0.257  0.00  0.00    -0.328 N 
ATOM      8  C   UNL     1      -9.569  -4.452  -1.002  0.00  0.00    +0.110 C 
ATOM      9  C   UNL     1     -10.702  -5.466  -1.075  0.00  0.00    +0.027 C 
ATOM     10  C   UNL     1     -10.769  -6.308   0.200  0.00  0.00    +0.018 C 
ATOM     11  C   UNL     1     -10.991  -5.368   1.388  0.00  0.00    +0.053 C 
ATOM     12  C   UNL     1      -9.756  -4.453   1.517  0.00  0.00    +0.114 C 
ATOM     13  C   UNL     1     -12.204  -4.504   1.133  0.00  0.00    +0.027 A 
ATOM     14  C   UNL     1     -12.884  -4.044   2.217  0.00  0.00    +0.022 A 
ATOM     15  C   UNL     1     -13.977  -3.185   2.060  0.00  0.00    +0.007 A 
ATOM     16  C   UNL     1     -14.333  -2.795   0.802  0.00  0.00    +0.070 A 
ATOM     17  C   UNL     1     -13.609  -3.284  -0.294  0.00  0.00    +0.251 A 
ATOM     18  O   UNL     1     -13.877  -2.893  -1.419  0.00  0.00    -0.268 OA
ATOM     19  N   UNL     1     -12.614  -4.188  -0.117  0.00  0.00    -0.312 N 
ATOM     20  C   UNL     1     -12.046  -4.803  -1.311  0.00  0.00    +0.130 C 
ENDBRANCH   6   7
BRANCH   1  24
ATOM     21  N   UNL     1      -4.985  -2.670  -0.605  0.00  0.00    -0.266 N 
ATOM     22  C   UNL     1      -6.091  -1.913  -0.472  0.00  0.00    +0.308 C 
ATOM     23  O   UNL     1      -6.118  -0.789  -0.935  0.00  0.00    -0.252 OA
ATOM     24  N   UNL     1      -7.168  -2.400   0.175  0.00  0.00    -0.268 N 
ATOM     25  H   UNL     1      -4.973  -3.576  -0.259  0.00  0.00    +0.156 HD
ATOM     26  H   UNL     1      -7.122  -3.266   0.611  0.00  0.00    +0.156 HD
BRANCH  21  30
ATOM     27  C   UNL     1      -1.607  -1.116  -2.506  0.00  0.00    +0.124 A 
ATOM     28  C   UNL     1      -2.857  -0.561  -2.743  0.00  0.00    +0.047 A 
ATOM     29  C   UNL     1      -3.974  -1.075  -2.114  0.00  0.00    +0.030 A 
ATOM     30  C   UNL     1      -3.849  -2.148  -1.244  0.00  0.00    +0.077 A 
ATOM     31  C   UNL     1      -2.596  -2.707  -1.005  0.00  0.00    +0.145 A 
ATOM     32  C   UNL     1      -1.478  -2.193  -1.641  0.00  0.00    +0.093 A 
BRANCH  27  34
ATOM     33  C   UNL     1      -0.715   0.502  -4.003  0.00  0.00    +0.277 C 
ATOM     34  O   UNL     1      -0.509  -0.607  -3.126  0.00  0.00    -0.495 OA
ENDBRANCH  27  34
BRANCH  31  35
ATOM     35  O   UNL     1      -2.471  -3.759  -0.153  0.00  0.00    -0.493 OA
ATOM     36  C   UNL     1      -1.155  -4.281   0.044  0.00  0.00    +0.277 C 
ENDBRANCH  31  35
ENDBRANCH  21  30
ENDBRANCH   1  24
BRANCH   3  37
ATOM     37  C   UNL     1      -9.449   1.933   0.259  0.00  0.00    +0.387 C 
ATOM     38  O   UNL     1      -8.372   2.511   0.220  0.00  0.00    -0.241 OA
ATOM     39  O   UNL     1     -10.488   2.578   0.297  0.00  0.00    -0.241 OA
ENDBRANCH   3  37
TORSDOF 6
