REMARK  Name = ZINC29370934
REMARK  10 active torsions:
REMARK  status: ('A' for Active; 'I' for Inactive)
REMARK    1  A    between atoms: C_1  and  C_2
REMARK    2  A    between atoms: C_4  and  N_30
REMARK    3  A    between atoms: C_7  and  N_8
REMARK    4  A    between atoms: C_9  and  C_11
REMARK    5  A    between atoms: C_11  and  C_13
REMARK    6  A    between atoms: C_14  and  C_29
REMARK    7  A    between atoms: N_16  and  C_19
REMARK    8  A    between atoms: C_17  and  C_18
REMARK    9  A    between atoms: C_23  and  C_25
REMARK   10  A    between atoms: N_33  and  C_36
REMARK                            x       y       z     vdW  Elec       q    Type
REMARK                         _______ _______ _______ _____ _____    ______ ____
ROOT
ATOM      1  N   UNL     1      -1.487  10.988  -0.877  0.00  0.00    -0.279 N 
ATOM      2  C   UNL     1      -0.788   9.889  -0.530  0.00  0.00    +0.289 C 
ATOM      3  O   UNL     1       0.303  10.003  -0.009  0.00  0.00    -0.266 OA
ATOM      4  H   UNL     1      -2.432  10.887  -1.431  0.00  0.00    +0.155 HD
ENDROOT
BRANCH   1  11
ATOM      5  C   UNL     1      -2.302  13.202  -2.466  0.00  0.00    +0.046 C 
ATOM      6  C   UNL     1      -1.384  13.367  -1.282  0.00  0.00    -0.027 A 
ATOM      7  C   UNL     1      -0.918  14.620  -0.939  0.00  0.00    +0.028 A 
ATOM      8  C   UNL     1      -0.067  14.771   0.148  0.00  0.00    +0.030 A 
ATOM      9  C   UNL     1       0.311  13.662   0.894  0.00  0.00    +0.025 A 
ATOM     10  C   UNL     1      -0.159  12.409   0.555  0.00  0.00    +0.025 A 
ATOM     11  C   UNL     1      -1.010  12.258  -0.533  0.00  0.00    +0.037 A 
BRANCH   8  12
ATOM     12  N   UNL     1       0.409  16.040   0.492  0.00  0.00    -0.333 N 
ATOM     13  C   UNL     1       1.099  16.669  -0.642  0.00  0.00    +0.086 C 
ATOM     14  C   UNL     1       1.533  18.084  -0.251  0.00  0.00    -0.060 C 
ATOM     15  N   UNL     1       2.413  18.015   0.924  0.00  0.00    +0.380 N 
ATOM     16  C   UNL     1       1.723  17.386   2.059  0.00  0.00    -0.060 C 
ATOM     17  C   UNL     1       1.288  15.972   1.668  0.00  0.00    +0.086 C 
ATOM     18  C   UNL     1       2.913  19.348   1.286  0.00  0.00    -0.096 C 
ATOM     19  H   UNL     1       3.280  17.390   0.664  0.00  0.00    -0.082 HD
ENDBRANCH   8  12
ENDBRANCH   1  11
BRANCH   2  20
ATOM     20  C   UNL     1      -1.354   8.534  -0.788  0.00  0.00    +0.251 C 
ATOM     21  O   UNL     1      -2.401   8.417  -1.391  0.00  0.00    -0.282 OA
BRANCH  20  22
ATOM     22  C   UNL     1      -0.644   7.339  -0.311  0.00  0.00    +0.071 A 
ATOM     23  C   UNL     1       0.404   6.659  -0.980  0.00  0.00    +0.072 A 
ATOM     24  N   UNL     1       0.769   5.651  -0.238  0.00  0.00    -0.171 NA
ATOM     25  N   UNL     1      -0.012   5.632   0.923  0.00  0.00    -0.236 N 
ATOM     26  C   UNL     1      -0.877   6.660   0.875  0.00  0.00    +0.053 A 
ATOM     27  C   UNL     1      -1.907   7.010   1.917  0.00  0.00    +0.066 C 
ATOM     28  C   UNL     1       0.993   7.036  -2.314  0.00  0.00    +0.068 C 
BRANCH  25  29
ATOM     29  C   UNL     1       0.088   4.695   1.961  0.00  0.00    +0.066 A 
ATOM     30  C   UNL     1      -0.127   5.088   3.276  0.00  0.00    +0.028 A 
ATOM     31  C   UNL     1      -0.032   4.161   4.295  0.00  0.00    +0.003 A 
ATOM     32  C   UNL     1       0.286   2.846   4.009  0.00  0.00    +0.012 A 
ATOM     33  C   UNL     1       0.500   2.452   2.701  0.00  0.00    +0.057 A 
ATOM     34  C   UNL     1       0.402   3.373   1.676  0.00  0.00    +0.040 A 
BRANCH  33  35
ATOM     35  C   UNL     1       0.841   1.017   2.393  0.00  0.00    +0.417 C 
ATOM     36  F   UNL     1       0.883   0.282   3.583  0.00  0.00    -0.166 F 
ATOM     37  F   UNL     1      -0.134   0.478   1.546  0.00  0.00    -0.166 F 
ATOM     38  F   UNL     1       2.089   0.959   1.765  0.00  0.00    -0.166 F 
ENDBRANCH  33  35
ENDBRANCH  25  29
ENDBRANCH  20  22
ENDBRANCH   2  20
TORSDOF 6
