REMARK  Name = ZINC45245131
REMARK  7 active torsions:
REMARK  status: ('A' for Active; 'I' for Inactive)
REMARK    1  A    between atoms: C_5  and  C_8
REMARK    2  A    between atoms: C_10  and  C_13
REMARK    3  A    between atoms: C_19  and  C_21
REMARK    4  A    between atoms: C_21  and  C_22
REMARK    5  A    between atoms: C_22  and  C_24
REMARK    6  A    between atoms: C_22  and  N_34
REMARK    7  A    between atoms: C_24  and  C_25
REMARK                            x       y       z     vdW  Elec       q    Type
REMARK                         _______ _______ _______ _____ _____    ______ ____
ROOT
ATOM      1  C   UNL     1       3.029  -5.322  -0.052  0.00  0.00    +0.165 C 
ATOM      2  C   UNL     1       3.039  -5.983  -1.446  0.00  0.00    +0.034 C 
ATOM      3  C   UNL     1       3.162  -7.494  -1.113  0.00  0.00    +0.021 C 
ATOM      4  C   UNL     1       2.323  -7.595   0.184  0.00  0.00    +0.108 C 
ATOM      5  N   UNL     1       2.604  -6.343   0.916  0.00  0.00    -0.290 N 
ATOM      6  C   UNL     1       2.490  -6.164   2.247  0.00  0.00    +0.215 C 
ATOM      7  O   UNL     1       2.749  -5.086   2.739  0.00  0.00    -0.276 OA
ENDROOT
BRANCH   1  10
ATOM      8  C   UNL     1       1.268  -2.148  -0.023  0.00  0.00    +0.223 A 
ATOM      9  N   UNL     1       2.380  -2.905  -0.033  0.00  0.00    -0.188 NA
ATOM     10  C   UNL     1       2.060  -4.168  -0.039  0.00  0.00    +0.248 A 
ATOM     11  O   UNL     1       0.725  -4.267  -0.033  0.00  0.00    -0.336 OA
ATOM     12  N   UNL     1       0.224  -2.939  -0.017  0.00  0.00    -0.054 NA
BRANCH   8  17
ATOM     13  C   UNL     1      -0.017   1.382   0.010  0.00  0.00    +0.080 A 
ATOM     14  C   UNL     1       1.195   2.061   0.002  0.00  0.00    +0.144 A 
ATOM     15  C   UNL     1       2.378   1.338  -0.013  0.00  0.00    +0.150 A 
ATOM     16  N   UNL     1       2.366   0.021  -0.021  0.00  0.00    -0.246 NA
ATOM     17  C   UNL     1       1.231  -0.665  -0.014  0.00  0.00    +0.146 A 
ATOM     18  C   UNL     1       0.002  -0.004   0.002  0.00  0.00    +0.155 A 
ATOM     19  F   UNL     1      -1.153  -0.705   0.010  0.00  0.00    -0.203 F 
ATOM     20  F   UNL     1       1.221   3.411   0.008  0.00  0.00    -0.204 F 
ENDBRANCH   8  17
ENDBRANCH   1  10
BRANCH   6  21
ATOM     21  C   UNL     1       2.040  -7.304   3.124  0.00  0.00    +0.080 C 
BRANCH  21  22
ATOM     22  C   UNL     1       1.995  -6.839   4.581  0.00  0.00    -0.062 C 
BRANCH  22  23
ATOM     23  N   UNL     1       3.355  -6.513   5.033  0.00  0.00    +0.381 N 
ATOM     24  H   UNL     1       3.733  -5.777   4.457  0.00  0.00    -0.090 HD
ATOM     25  H   UNL     1       3.325  -6.207   5.994  0.00  0.00    -0.090 HD
ATOM     26  H   UNL     1       3.939  -7.333   4.960  0.00  0.00    -0.090 HD
ENDBRANCH  22  23
BRANCH  22  27
ATOM     27  C   UNL     1       1.421  -7.955   5.456  0.00  0.00    +0.022 C 
BRANCH  27  28
ATOM     28  C   UNL     1       1.262  -7.456   6.869  0.00  0.00    -0.011 A 
ATOM     29  C   UNL     1       2.260  -7.684   7.798  0.00  0.00    +0.047 A 
ATOM     30  C   UNL     1       2.115  -7.226   9.095  0.00  0.00    +0.159 A 
ATOM     31  C   UNL     1       0.969  -6.537   9.464  0.00  0.00    +0.161 A 
ATOM     32  C   UNL     1      -0.029  -6.309   8.533  0.00  0.00    +0.080 A 
ATOM     33  C   UNL     1       0.120  -6.764   7.233  0.00  0.00    +0.129 A 
ATOM     34  F   UNL     1      -0.851  -6.536   6.323  0.00  0.00    -0.205 F 
ATOM     35  F   UNL     1       0.827  -6.090  10.730  0.00  0.00    -0.202 F 
ATOM     36  F   UNL     1       3.090  -7.450  10.004  0.00  0.00    -0.202 F 
ENDBRANCH  27  28
ENDBRANCH  22  27
ENDBRANCH  21  22
ENDBRANCH   6  21
TORSDOF 7
