REMARK  Name = ZINC34906387
REMARK  7 active torsions:
REMARK  status: ('A' for Active; 'I' for Inactive)
REMARK    1  A    between atoms: C_5  and  O_7
REMARK    2  A    between atoms: O_7  and  C_8
REMARK    3  A    between atoms: C_8  and  C_9
REMARK    4  A    between atoms: C_11  and  C_14
REMARK    5  A    between atoms: N_16  and  C_17
REMARK    6  A    between atoms: C_23  and  N_25
REMARK    7  A    between atoms: N_28  and  C_29
REMARK                            x       y       z     vdW  Elec       q    Type
REMARK                         _______ _______ _______ _____ _____    ______ ____
ROOT
ATOM      1  C   UNL     1       0.746  -7.840   4.225  0.00  0.00    +0.093 C 
ATOM      2  C   UNL     1       2.232  -8.060   4.513  0.00  0.00    +0.024 C 
ATOM      3  C   UNL     1       2.387  -9.074   5.648  0.00  0.00    +0.002 C 
ATOM      4  C   UNL     1       1.698  -8.541   6.906  0.00  0.00    +0.002 C 
ATOM      5  C   UNL     1       0.211  -8.321   6.618  0.00  0.00    +0.024 C 
ATOM      6  C   UNL     1       0.056  -7.307   5.482  0.00  0.00    +0.095 C 
ENDROOT
BRANCH   6   7
ATOM      7  N   UNL     1      -1.367  -7.096   5.207  0.00  0.00    -0.295 N 
ATOM      8  C   UNL     1      -2.068  -6.200   5.929  0.00  0.00    +0.300 C 
ATOM      9  O   UNL     1      -1.519  -5.566   6.810  0.00  0.00    -0.253 OA
ATOM     10  N   UNL     1      -3.377  -6.006   5.676  0.00  0.00    -0.294 N 
ATOM     11  H   UNL     1      -1.805  -7.601   4.504  0.00  0.00    +0.151 HD
ATOM     12  H   UNL     1      -3.815  -6.511   4.973  0.00  0.00    +0.151 HD
BRANCH  10  13
ATOM     13  C   UNL     1      -4.139  -5.032   6.461  0.00  0.00    +0.037 C 
ATOM     14  C   UNL     1      -4.103  -5.428   7.939  0.00  0.00    +0.029 C 
ATOM     15  C   UNL     1      -4.899  -4.410   8.759  0.00  0.00    -0.008 C 
ATOM     16  C   UNL     1      -6.349  -4.385   8.272  0.00  0.00    +0.007 C 
ATOM     17  C   UNL     1      -6.385  -3.989   6.795  0.00  0.00    -0.008 C 
ATOM     18  C   UNL     1      -5.589  -5.006   5.975  0.00  0.00    +0.029 C 
ATOM     19  C   UNL     1      -5.766  -2.600   6.625  0.00  0.00    +0.007 C 
ATOM     20  C   UNL     1      -4.315  -2.626   7.111  0.00  0.00    -0.008 C 
ATOM     21  C   UNL     1      -4.280  -3.022   8.588  0.00  0.00    +0.007 C 
ATOM     22  C   UNL     1      -3.520  -3.643   6.291  0.00  0.00    +0.029 C 
ENDBRANCH  10  13
ENDBRANCH   6   7
BRANCH   1  25
ATOM     23  C   UNL     1       0.653  -7.280   1.855  0.00  0.00    +0.263 C 
ATOM     24  O   UNL     1       0.826  -8.456   1.601  0.00  0.00    -0.269 OA
ATOM     25  N   UNL     1       0.598  -6.869   3.138  0.00  0.00    -0.305 N 
ATOM     26  H   UNL     1       0.460  -5.931   3.341  0.00  0.00    +0.149 HD
BRANCH  23  29
ATOM     27  C   UNL     1       0.190  -4.199  -0.023  0.00  0.00    +0.116 A 
ATOM     28  N   UNL     1       0.313  -5.002   0.998  0.00  0.00    -0.236 NA
ATOM     29  C   UNL     1       0.504  -6.304   0.763  0.00  0.00    +0.133 A 
ATOM     30  C   UNL     1       0.553  -6.676  -0.554  0.00  0.00    +0.080 A 
ATOM     31  S   UNL     1       0.327  -5.215  -1.352  0.00  0.00    -0.076 S 
BRANCH  27  32
ATOM     32  C   UNL     1      -0.030  -2.708  -0.013  0.00  0.00    +0.291 C 
BRANCH  32  33
ATOM     33  O   UNL     1       1.233  -2.040  -0.022  0.00  0.00    -0.482 OA
BRANCH  33  38
ATOM     34  C   UNL     1      -0.017   1.378   0.010  0.00  0.00    +0.004 A 
ATOM     35  C   UNL     1       1.170   2.087   0.002  0.00  0.00    +0.003 A 
ATOM     36  C   UNL     1       2.379   1.417  -0.013  0.00  0.00    +0.042 A 
ATOM     37  C   UNL     1       2.404   0.034  -0.022  0.00  0.00    +0.165 A 
ATOM     38  C   UNL     1       1.212  -0.680  -0.014  0.00  0.00    +0.156 A 
ATOM     39  C   UNL     1       0.002  -0.004   0.002  0.00  0.00    +0.048 A 
ATOM     40  F   UNL     1       3.585  -0.622  -0.038  0.00  0.00    -0.202 F 
ENDBRANCH  33  38
ENDBRANCH  32  33
ENDBRANCH  27  32
ENDBRANCH  23  29
ENDBRANCH   1  25
TORSDOF 7
