REMARK  Name = ZINC40315085
REMARK  12 active torsions:
REMARK  status: ('A' for Active; 'I' for Inactive)
REMARK    1  A    between atoms: C_1  and  C_2
REMARK    2  A    between atoms: C_5  and  O_9
REMARK    3  A    between atoms: C_7  and  C_8
REMARK    4  A    between atoms: O_9  and  C_10
REMARK    5  A    between atoms: C_10  and  C_11
REMARK    6  A    between atoms: C_11  and  C_13
REMARK    7  A    between atoms: C_11  and  O_36
REMARK    8  A    between atoms: C_13  and  N_14
REMARK    9  A    between atoms: N_14  and  C_15
REMARK   10  A    between atoms: N_14  and  C_28
REMARK   11  A    between atoms: C_15  and  C_16
REMARK   12  A    between atoms: C_19  and  C_21
REMARK                            x       y       z     vdW  Elec       q    Type
REMARK                         _______ _______ _______ _____ _____    ______ ____
ROOT
ATOM      1  N   UNL     1      -0.386  -8.356  -2.183  0.00  0.00    +0.389 N 
ATOM      2  H   UNL     1      -1.003  -9.130  -1.987  0.00  0.00    -0.081 HD
ENDROOT
BRANCH   1   3
ATOM      3  C   UNL     1       0.716  -8.349  -1.212  0.00  0.00    -0.045 C 
ATOM      4  C   UNL     1       1.912  -7.574  -1.788  0.00  0.00    +0.009 C 
ATOM      5  C   UNL     1       3.171  -7.829  -0.926  0.00  0.00    +0.164 C 
ATOM      6  S   UNL     1       2.854  -9.504  -0.234  0.00  0.00    -0.033 S 
ATOM      7  O   UNL     1       2.760  -9.409   1.181  0.00  0.00    -0.174 OA
ATOM      8  O   UNL     1       3.769 -10.424  -0.813  0.00  0.00    -0.174 OA
ATOM      9  C   UNL     1       1.175  -9.808  -0.928  0.00  0.00    +0.151 C 
ENDBRANCH   1   3
BRANCH   1  10
ATOM     10  C   UNL     1      -1.134  -7.096  -2.084  0.00  0.00    -0.043 C 
BRANCH  10  11
ATOM     11  C   UNL     1      -1.925  -7.074  -0.774  0.00  0.00    +0.135 C 
BRANCH  11  12
ATOM     12  O   UNL     1      -1.022  -6.945   0.325  0.00  0.00    -0.390 OA
ATOM     13  H   UNL     1      -0.543  -6.105   0.344  0.00  0.00    +0.210 HD
ENDBRANCH  11  12
BRANCH  11  14
ATOM     14  C   UNL     1      -2.892  -5.889  -0.782  0.00  0.00    +0.258 C 
BRANCH  14  15
ATOM     15  O   UNL     1      -3.712  -5.935   0.388  0.00  0.00    -0.489 OA
BRANCH  15  20
ATOM     16  C   UNL     1      -7.527  -1.837   1.000  0.00  0.00    +0.044 C 
ATOM     17  C   UNL     1      -6.506  -2.933   0.836  0.00  0.00    -0.047 A 
ATOM     18  C   UNL     1      -5.680  -2.947  -0.273  0.00  0.00    +0.007 A 
ATOM     19  C   UNL     1      -4.744  -3.951  -0.425  0.00  0.00    +0.046 A 
ATOM     20  C   UNL     1      -4.632  -4.946   0.536  0.00  0.00    +0.121 A 
ATOM     21  C   UNL     1      -5.461  -4.929   1.648  0.00  0.00    +0.049 A 
ATOM     22  C   UNL     1      -6.393  -3.920   1.798  0.00  0.00    -0.044 A 
ATOM     23  C   UNL     1      -7.290  -3.898   3.009  0.00  0.00    +0.044 C 
ENDBRANCH  15  20
ENDBRANCH  14  15
ENDBRANCH  11  14
ENDBRANCH  10  11
ENDBRANCH   1  10
BRANCH   1  24
ATOM     24  C   UNL     1       0.159  -8.496  -3.540  0.00  0.00    -0.003 C 
BRANCH  24  25
ATOM     25  C   UNL     1       0.804  -9.851  -3.685  0.00  0.00    +0.089 A 
ATOM     26  C   UNL     1       0.164 -11.000  -3.974  0.00  0.00    +0.043 A 
ATOM     27  C   UNL     1       1.138 -12.017  -4.014  0.00  0.00    +0.050 A 
ATOM     28  C   UNL     1       2.332 -11.426  -3.744  0.00  0.00    +0.135 A 
ATOM     29  O   UNL     1       2.115 -10.111  -3.552  0.00  0.00    -0.462 OA
BRANCH  28  30
ATOM     30  C   UNL     1       3.642 -12.108  -3.678  0.00  0.00    +0.017 A 
ATOM     31  C   UNL     1       3.741 -13.467  -3.984  0.00  0.00    +0.014 A 
ATOM     32  C   UNL     1       4.965 -14.098  -3.921  0.00  0.00    +0.039 A 
ATOM     33  C   UNL     1       6.096 -13.386  -3.554  0.00  0.00    +0.123 A 
ATOM     34  C   UNL     1       6.004 -12.037  -3.250  0.00  0.00    +0.039 A 
ATOM     35  C   UNL     1       4.786 -11.395  -3.316  0.00  0.00    +0.014 A 
ATOM     36  F   UNL     1       7.293 -14.009  -3.493  0.00  0.00    -0.205 F 
ENDBRANCH  28  30
ENDBRANCH  24  25
ENDBRANCH   1  24
TORSDOF 10
