REMARK  Name = ZINC35752828
REMARK  11 active torsions:
REMARK  status: ('A' for Active; 'I' for Inactive)
REMARK    1  A    between atoms: C_1  and  C_2
REMARK    2  A    between atoms: C_5  and  C_8
REMARK    3  A    between atoms: N_10  and  C_11
REMARK    4  A    between atoms: C_14  and  C_17
REMARK    5  A    between atoms: C_19  and  C_33
REMARK    6  A    between atoms: N_21  and  C_25
REMARK    7  A    between atoms: C_25  and  C_26
REMARK    8  A    between atoms: C_30  and  C_32
REMARK    9  A    between atoms: N_35  and  C_36
REMARK   10  A    between atoms: C_36  and  C_37
REMARK   11  A    between atoms: C_36  and  C_38
REMARK                            x       y       z     vdW  Elec       q    Type
REMARK                         _______ _______ _______ _____ _____    ______ ____
ROOT
ATOM      1  C   UNL     1       0.525 -10.591   0.853  0.00  0.00    +0.238 C 
ATOM      2  C   UNL     1      -0.879 -11.226   0.986  0.00  0.00    +0.210 C 
ATOM      3  N   UNL     1      -0.607 -12.416   1.816  0.00  0.00    -0.248 N 
ATOM      4  C   UNL     1       0.618 -12.268   2.356  0.00  0.00    +0.405 C 
ATOM      5  O   UNL     1       1.142 -13.099   3.070  0.00  0.00    -0.226 OA
ATOM      6  O   UNL     1       1.199 -11.104   2.019  0.00  0.00    -0.440 OA
ENDROOT
BRANCH   1  10
ATOM      7  C   UNL     1       0.291  -6.326   0.978  0.00  0.00    +0.034 A 
ATOM      8  C   UNL     1       0.369  -6.983  -0.243  0.00  0.00    +0.024 A 
ATOM      9  C   UNL     1       0.445  -8.361  -0.280  0.00  0.00    +0.009 A 
ATOM     10  C   UNL     1       0.443  -9.087   0.897  0.00  0.00    -0.005 A 
ATOM     11  C   UNL     1       0.365  -8.436   2.114  0.00  0.00    +0.009 A 
ATOM     12  C   UNL     1       0.295  -7.058   2.159  0.00  0.00    +0.024 A 
BRANCH   7  15
ATOM     13  C   UNL     1       0.823  -4.251   2.012  0.00  0.00    +0.248 C 
ATOM     14  O   UNL     1       1.376  -4.854   2.911  0.00  0.00    -0.270 OA
ATOM     15  N   UNL     1       0.215  -4.930   1.019  0.00  0.00    -0.282 N 
ATOM     16  H   UNL     1      -0.276  -4.451   0.333  0.00  0.00    +0.155 HD
BRANCH  13  21
ATOM     17  C   UNL     1       0.803   1.504   1.992  0.00  0.00    +0.044 C 
ATOM     18  C   UNL     1       0.808  -0.003   1.997  0.00  0.00    -0.050 A 
ATOM     19  C   UNL     1       1.438  -0.686   3.022  0.00  0.00    +0.004 A 
ATOM     20  C   UNL     1       1.447  -2.066   3.033  0.00  0.00    +0.013 A 
ATOM     21  C   UNL     1       0.818  -2.773   2.007  0.00  0.00    +0.037 A 
ATOM     22  C   UNL     1       0.184  -2.077   0.976  0.00  0.00    +0.013 A 
ATOM     23  C   UNL     1       0.178  -0.698   0.980  0.00  0.00    +0.004 A 
ENDBRANCH  13  21
ENDBRANCH   7  15
ENDBRANCH   1  10
BRANCH   2  24
ATOM     24  C   UNL     1      -1.421 -11.620  -0.364  0.00  0.00    +0.238 C 
ATOM     25  O   UNL     1      -1.418 -12.785  -0.702  0.00  0.00    -0.274 OA
ATOM     26  N   UNL     1      -1.907 -10.678  -1.196  0.00  0.00    -0.311 N 
ATOM     27  H   UNL     1      -1.910  -9.747  -0.925  0.00  0.00    +0.149 HD
BRANCH  26  28
ATOM     28  C   UNL     1      -2.434 -11.061  -2.508  0.00  0.00    +0.067 C 
ATOM     29  C   UNL     1      -3.446 -10.014  -2.978  0.00  0.00    +0.027 C 
ATOM     30  C   UNL     1      -1.284 -11.146  -3.514  0.00  0.00    +0.027 C 
ENDBRANCH  26  28
ENDBRANCH   2  24
BRANCH   3  31
ATOM     31  C   UNL     1      -1.507 -13.554   2.016  0.00  0.00    +0.147 C 
BRANCH  31  32
ATOM     32  C   UNL     1      -2.304 -13.349   3.279  0.00  0.00    -0.030 A 
ATOM     33  C   UNL     1      -1.772 -13.721   4.499  0.00  0.00    +0.005 A 
ATOM     34  C   UNL     1      -2.503 -13.533   5.657  0.00  0.00    +0.001 A 
ATOM     35  C   UNL     1      -3.765 -12.971   5.595  0.00  0.00    +0.003 A 
ATOM     36  C   UNL     1      -4.296 -12.598   4.375  0.00  0.00    -0.050 A 
ATOM     37  C   UNL     1      -3.563 -12.783   3.217  0.00  0.00    +0.008 A 
ATOM     38  C   UNL     1      -5.671 -11.987   4.307  0.00  0.00    +0.044 C 
ENDBRANCH  31  32
ENDBRANCH   3  31
TORSDOF 7
