REMARK  Name = ZINC00659974
REMARK  12 active torsions:
REMARK  status: ('A' for Active; 'I' for Inactive)
REMARK    1  A    between atoms: C_1  and  C_2
REMARK    2  A    between atoms: C_4  and  C_33
REMARK    3  A    between atoms: C_6  and  S_10
REMARK    4  A    between atoms: C_7  and  C_8
REMARK    5  A    between atoms: S_10  and  C_11
REMARK    6  A    between atoms: C_11  and  C_12
REMARK    7  A    between atoms: C_13  and  C_29
REMARK    8  A    between atoms: C_14  and  C_22
REMARK    9  A    between atoms: C_16  and  C_20
REMARK   10  A    between atoms: C_17  and  N_19
REMARK   11  A    between atoms: C_29  and  O_31
REMARK   12  A    between atoms: O_31  and  C_32
REMARK                            x       y       z     vdW  Elec       q    Type
REMARK                         _______ _______ _______ _____ _____    ______ ____
ROOT
ATOM      1  C   UNL     1      -1.776   7.427  -0.946  0.00  0.00    +0.128 C 
ATOM      2  C   UNL     1      -0.749   6.595  -1.159  0.00  0.00    +0.088 C 
ATOM      3  C   UNL     1      -0.335   5.589  -0.120  0.00  0.00    +0.105 C 
ATOM      4  C   UNL     1      -0.938   5.953   1.210  0.00  0.00    +0.098 C 
ATOM      5  C   UNL     1      -1.966   6.832   1.287  0.00  0.00    +0.198 C 
ATOM      6  O   UNL     1      -2.488   7.409   0.191  0.00  0.00    -0.444 OA
ENDROOT
BRANCH   3   7
ATOM      7  C   UNL     1      -0.815   4.220  -0.530  0.00  0.00    -0.034 A 
ATOM      8  C   UNL     1       0.097   3.202  -0.737  0.00  0.00    +0.006 A 
ATOM      9  C   UNL     1      -0.342   1.946  -1.113  0.00  0.00    +0.020 A 
ATOM     10  C   UNL     1      -1.695   1.709  -1.282  0.00  0.00    +0.041 A 
ATOM     11  C   UNL     1      -2.606   2.730  -1.079  0.00  0.00    +0.020 A 
ATOM     12  C   UNL     1      -2.166   3.983  -0.698  0.00  0.00    +0.006 A 
ATOM     13 CL   UNL     1      -2.247   0.132  -1.754  0.00  0.00    -0.084 Cl
ENDBRANCH   3   7
BRANCH   5  14
ATOM     14  N   UNL     1      -2.488   7.142   2.518  0.00  0.00    -0.328 N 
ATOM     15  H   UNL     1      -2.121   6.733   3.317  0.00  0.00    +0.145 HD
ATOM     16  H   UNL     1      -3.224   7.770   2.588  0.00  0.00    +0.145 HD
ENDBRANCH   5  14
BRANCH   4  17
ATOM     17  C   UNL     1      -0.419   5.363   2.408  0.00  0.00    +0.101 C 
ATOM     18  N   UNL     1      -0.007   4.896   3.357  0.00  0.00    -0.191 NA
ENDBRANCH   4  17
BRANCH   2  19
ATOM     19  C   UNL     1      -0.039   6.665  -2.383  0.00  0.00    +0.339 C 
ATOM     20  O   UNL     1      -0.569   7.145  -3.367  0.00  0.00    -0.245 OA
BRANCH  19  21
ATOM     21  O   UNL     1       1.225   6.199  -2.457  0.00  0.00    -0.465 OA
ATOM     22  C   UNL     1       1.881   6.302  -3.722  0.00  0.00    +0.280 C 
ENDBRANCH  19  21
ENDBRANCH   2  19
BRANCH   1  23
ATOM     23  C   UNL     1      -2.146   8.416  -2.020  0.00  0.00    +0.150 C 
BRANCH  23  24
ATOM     24  S   UNL     1      -3.637   7.849  -2.876  0.00  0.00    -0.097 S 
BRANCH  24  30
ATOM     25  C   UNL     1      -6.181  10.188  -6.859  0.00  0.00    +0.045 C 
ATOM     26  C   UNL     1      -5.046  10.173  -5.867  0.00  0.00    -0.029 A 
ATOM     27  C   UNL     1      -4.114  11.196  -5.840  0.00  0.00    +0.027 A 
ATOM     28  C   UNL     1      -3.083  11.155  -4.918  0.00  0.00    +0.040 A 
ATOM     29  N   UNL     1      -2.974  10.161  -4.058  0.00  0.00    -0.244 NA
ATOM     30  C   UNL     1      -3.835   9.155  -4.043  0.00  0.00    +0.115 A 
ATOM     31  C   UNL     1      -4.910   9.125  -4.950  0.00  0.00    +0.086 A 
ATOM     32  C   UNL     1      -2.070  12.270  -4.892  0.00  0.00    +0.065 C 
BRANCH  31  33
ATOM     33  C   UNL     1      -5.847   8.043  -4.935  0.00  0.00    +0.102 C 
ATOM     34  N   UNL     1      -6.591   7.184  -4.923  0.00  0.00    -0.191 NA
ENDBRANCH  31  33
ENDBRANCH  24  30
ENDBRANCH  23  24
ENDBRANCH   1  23
TORSDOF 9
