REMARK  Name = ZINC20571800
REMARK  9 active torsions:
REMARK  status: ('A' for Active; 'I' for Inactive)
REMARK    1  A    between atoms: C_1  and  C_2
REMARK    2  A    between atoms: C_9  and  N_13
REMARK    3  A    between atoms: C_10  and  C_11
REMARK    4  A    between atoms: C_14  and  C_16
REMARK    5  A    between atoms: C_19  and  N_22
REMARK    6  A    between atoms: N_22  and  S_23
REMARK    7  A    between atoms: S_23  and  C_26
REMARK    8  A    between atoms: C_29  and  O_32
REMARK    9  A    between atoms: O_32  and  C_33
REMARK                            x       y       z     vdW  Elec       q    Type
REMARK                         _______ _______ _______ _____ _____    ______ ____
ROOT
ATOM      1  C   UNL     1       5.943   6.232  -0.683  0.00  0.00    +0.037 A 
ATOM      2  C   UNL     1       7.303   5.985  -0.474  0.00  0.00    +0.015 A 
ATOM      3  C   UNL     1       8.221   6.993  -0.665  0.00  0.00    +0.025 A 
ATOM      4  C   UNL     1       7.795   8.259  -1.056  0.00  0.00    +0.048 A 
ATOM      5  C   UNL     1       6.441   8.509  -1.261  0.00  0.00    +0.025 A 
ATOM      6  C   UNL     1       5.519   7.505  -1.076  0.00  0.00    +0.015 A 
ENDROOT
BRANCH   1   8
ATOM      7  N   UNL     1       5.368   3.927  -0.105  0.00  0.00    -0.275 N 
ATOM      8  C   UNL     1       4.957   5.153  -0.484  0.00  0.00    +0.249 C 
ATOM      9  O   UNL     1       3.774   5.370  -0.662  0.00  0.00    -0.270 OA
ATOM     10  H   UNL     1       6.438   3.730   0.056  0.00  0.00    +0.156 HD
BRANCH   7  18
ATOM     11  C   UNL     1      -0.162  -1.540   0.751  0.00  0.00    +0.008 C 
ATOM     12  C   UNL     1       1.166  -0.864   0.402  0.00  0.00    -0.009 C 
ATOM     13  C   UNL     1       2.211  -1.196   1.470  0.00  0.00    +0.008 C 
ATOM     14  C   UNL     1       3.595  -0.737   1.006  0.00  0.00    +0.037 C 
ATOM     15  C   UNL     1       3.511   0.727   0.592  0.00  0.00    -0.018 A 
ATOM     16  C   UNL     1       2.322   1.305   0.313  0.00  0.00    -0.004 A 
ATOM     17  S   UNL     1       2.720   2.978  -0.108  0.00  0.00    -0.077 S 
ATOM     18  C   UNL     1       4.441   2.912   0.082  0.00  0.00    +0.090 A 
ATOM     19  C   UNL     1       4.667   1.599   0.467  0.00  0.00    +0.084 A 
ATOM     20  C   UNL     1       0.972   0.659   0.356  0.00  0.00    +0.046 C 
BRANCH  19  21
ATOM     21  C   UNL     1       5.990   1.119   0.731  0.00  0.00    +0.102 C 
ATOM     22  N   UNL     1       7.040   0.739   0.940  0.00  0.00    -0.191 NA
ENDBRANCH  19  21
ENDBRANCH   7  18
ENDBRANCH   1   8
BRANCH   4  23
ATOM     23  N   UNL     1       8.725   9.276  -1.244  0.00  0.00    -0.216 N 
ATOM     24  H   UNL     1       9.367   9.277  -2.137  0.00  0.00    +0.174 HD
BRANCH  23  25
ATOM     25  S   UNL     1       8.865  10.487  -0.122  0.00  0.00    +0.072 S 
ATOM     26  O   UNL     1       9.922  11.328  -0.563  0.00  0.00    -0.150 OA
ATOM     27  O   UNL     1       7.552  10.974   0.117  0.00  0.00    -0.150 OA
BRANCH  25  28
ATOM     28  C   UNL     1       9.407   9.743   1.381  0.00  0.00    +0.109 A 
ATOM     29  C   UNL     1       8.481   9.232   2.271  0.00  0.00    +0.032 A 
ATOM     30  C   UNL     1       8.904   8.643   3.447  0.00  0.00    +0.047 A 
ATOM     31  C   UNL     1      10.259   8.577   3.740  0.00  0.00    +0.120 A 
ATOM     32  C   UNL     1      11.185   9.096   2.848  0.00  0.00    +0.047 A 
ATOM     33  C   UNL     1      10.758   9.678   1.671  0.00  0.00    +0.032 A 
BRANCH  31  34
ATOM     34  O   UNL     1      10.677   8.003   4.899  0.00  0.00    -0.495 OA
ATOM     35  C   UNL     1       9.667   7.490   5.770  0.00  0.00    +0.277 C 
ENDBRANCH  31  34
ENDBRANCH  25  28
ENDBRANCH  23  25
ENDBRANCH   4  23
TORSDOF 7
