REMARK  Name = ZINC61327821
REMARK  4 active torsions:
REMARK  status: ('A' for Active; 'I' for Inactive)
REMARK    1  A    between atoms: C_1  and  N_2
REMARK    2  A    between atoms: N_5  and  C_6
REMARK    3  A    between atoms: C_9  and  N_12
REMARK    4  A    between atoms: N_12  and  C_13
REMARK                            x       y       z     vdW  Elec       q    Type
REMARK                         _______ _______ _______ _____ _____    ______ ____
ROOT
ATOM      1  C   UNL     1      -2.368  -2.709  -0.080  0.00  0.00    +0.035 A 
ATOM      2  C   UNL     1      -3.547  -1.982  -0.167  0.00  0.00    +0.025 A 
ATOM      3  C   UNL     1      -4.759  -2.640  -0.248  0.00  0.00    +0.025 A 
ATOM      4  C   UNL     1      -4.797  -4.028  -0.244  0.00  0.00    +0.028 A 
ATOM      5  C   UNL     1      -3.617  -4.755  -0.158  0.00  0.00    +0.025 A 
ATOM      6  C   UNL     1      -2.405  -4.097  -0.082  0.00  0.00    +0.025 A 
ENDROOT
BRANCH   1  11
ATOM      7  C   UNL     1       2.297  -2.439  -1.248  0.00  0.00    +0.129 C 
ATOM      8  N   UNL     1       1.113  -1.875  -0.597  0.00  0.00    -0.302 N 
ATOM      9  C   UNL     1      -0.047  -2.561  -0.597  0.00  0.00    +0.304 C 
ATOM     10  O   UNL     1      -0.110  -3.649  -1.136  0.00  0.00    -0.253 OA
ATOM     11  N   UNL     1      -1.137  -2.041   0.002  0.00  0.00    -0.269 N 
ATOM     12  H   UNL     1       1.163  -1.007  -0.167  0.00  0.00    +0.150 HD
ATOM     13  H   UNL     1      -1.071  -1.206   0.490  0.00  0.00    +0.156 HD
ENDBRANCH   1  11
BRANCH   4  14
ATOM     14  N   UNL     1      -6.025  -4.694  -0.326  0.00  0.00    -0.337 N 
ATOM     15  H   UNL     1      -6.849  -4.187  -0.386  0.00  0.00    +0.147 HD
BRANCH  14  16
ATOM     16  C   UNL     1      -6.065  -6.159  -0.322  0.00  0.00    +0.101 C 
ATOM     17  C   UNL     1      -7.342  -6.639  -1.012  0.00  0.00    +0.027 C 
ATOM     18  C   UNL     1      -8.567  -6.247  -0.180  0.00  0.00    +0.007 C 
ATOM     19  C   UNL     1      -8.588  -7.102   1.096  0.00  0.00    +0.043 C 
ATOM     20  C   UNL     1      -7.222  -7.077   1.701  0.00  0.00    -0.005 A 
ATOM     21  C   UNL     1      -6.060  -6.666   1.117  0.00  0.00    -0.017 A 
ATOM     22  C   UNL     1      -4.906  -6.739   1.897  0.00  0.00    +0.013 A 
ATOM     23  C   UNL     1      -4.974  -7.200   3.167  0.00  0.00    +0.046 A 
ATOM     24  S   UNL     1      -6.724  -7.567   3.330  0.00  0.00    -0.101 S 
ENDBRANCH  14  16
ENDBRANCH   4  14
TORSDOF 3
