REMARK  Name = ZINC07086430
REMARK  5 active torsions:
REMARK  status: ('A' for Active; 'I' for Inactive)
REMARK    1  A    between atoms: C_1  and  C_2
REMARK    2  A    between atoms: N_10  and  C_14
REMARK    3  A    between atoms: C_14  and  C_15
REMARK    4  A    between atoms: N_17  and  C_18
REMARK    5  A    between atoms: C_21  and  N_24
REMARK                            x       y       z     vdW  Elec       q    Type
REMARK                         _______ _______ _______ _____ _____    ______ ____
ROOT
ATOM      1  C   UNL     1       4.664   0.196   0.069  0.00  0.00    +0.235 C 
ATOM      2  O   UNL     1       4.468   1.381   0.237  0.00  0.00    -0.274 OA
ATOM      3  N   UNL     1       3.621  -0.650  -0.037  0.00  0.00    -0.284 N 
ATOM      4  H   UNL     1       3.776  -1.606  -0.092  0.00  0.00    +0.155 HD
ENDROOT
BRANCH   3   5
ATOM      5  C   UNL     1       2.313  -0.150  -0.069  0.00  0.00    +0.034 A 
ATOM      6  C   UNL     1       2.049   1.064  -0.690  0.00  0.00    +0.025 A 
ATOM      7  C   UNL     1       0.760   1.558  -0.720  0.00  0.00    +0.025 A 
ATOM      8  C   UNL     1      -0.273   0.840  -0.131  0.00  0.00    +0.036 A 
ATOM      9  C   UNL     1      -0.009  -0.374   0.489  0.00  0.00    +0.025 A 
ATOM     10  C   UNL     1       1.280  -0.867   0.521  0.00  0.00    +0.025 A 
BRANCH   8  11
ATOM     11  N   UNL     1      -1.579   1.344  -0.157  0.00  0.00    -0.271 N 
ATOM     12  C   UNL     1      -1.947   2.666  -0.676  0.00  0.00    +0.114 C 
ATOM     13  C   UNL     1      -3.357   2.952  -0.114  0.00  0.00    +0.029 C 
ATOM     14  C   UNL     1      -3.900   1.523   0.117  0.00  0.00    +0.098 C 
ATOM     15  C   UNL     1      -2.659   0.675   0.285  0.00  0.00    +0.220 C 
ATOM     16  O   UNL     1      -2.640  -0.444   0.752  0.00  0.00    -0.275 OA
ENDBRANCH   8  11
ENDBRANCH   3   5
BRANCH   1  17
ATOM     17  C   UNL     1       6.073  -0.330  -0.020  0.00  0.00    +0.214 C 
BRANCH  17  27
ATOM     18  C   UNL     1      11.230   5.633   1.341  0.00  0.00    +0.007 C 
ATOM     19  C   UNL     1      10.306   4.471   1.707  0.00  0.00    -0.014 C 
ATOM     20  C   UNL     1       8.880   4.792   1.255  0.00  0.00    +0.006 C 
ATOM     21  C   UNL     1       7.953   3.633   1.633  0.00  0.00    +0.035 C 
ATOM     22  C   UNL     1       8.439   2.351   0.966  0.00  0.00    +0.113 C 
ATOM     23  C   UNL     1       9.869   2.031   1.388  0.00  0.00    +0.035 C 
ATOM     24  C   UNL     1      10.788   3.196   1.011  0.00  0.00    +0.006 C 
ATOM     25  C   UNL     1       7.520   1.200   1.304  0.00  0.00    +0.247 C 
ATOM     26  O   UNL     1       7.285   0.748   2.405  0.00  0.00    -0.273 OA
ATOM     27  N   UNL     1       7.019   0.780   0.124  0.00  0.00    -0.215 N 
ATOM     28  C   UNL     1       7.496   1.500  -0.898  0.00  0.00    +0.310 C 
ATOM     29  O   UNL     1       7.194   1.307  -2.060  0.00  0.00    -0.252 OA
ATOM     30  N   UNL     1       8.346   2.464  -0.495  0.00  0.00    -0.285 N 
ATOM     31  H   UNL     1       8.809   3.103  -1.060  0.00  0.00    +0.151 HD
ENDBRANCH  17  27
ENDBRANCH   1  17
TORSDOF 4
