REMARK  Name = ZINC36612846
REMARK  5 active torsions:
REMARK  status: ('A' for Active; 'I' for Inactive)
REMARK    1  A    between atoms: C_1  and  C_2
REMARK    2  A    between atoms: C_2  and  C_3
REMARK    3  A    between atoms: C_3  and  N_4
REMARK    4  A    between atoms: C_11  and  C_21
REMARK    5  A    between atoms: C_13  and  C_17
REMARK                            x       y       z     vdW  Elec       q    Type
REMARK                         _______ _______ _______ _____ _____    ______ ____
ROOT
ATOM      1  N   UNL     1       0.738  -1.962  -1.265  0.00  0.00    -0.323 N 
ATOM      2  C   UNL     1       1.335  -2.639  -2.309  0.00  0.00    +0.159 A 
ATOM      3  N   UNL     1       1.448  -3.936  -2.496  0.00  0.00    -0.224 NA
ATOM      4  C   UNL     1       2.062  -4.461  -3.572  0.00  0.00    +0.101 A 
ATOM      5  C   UNL     1       2.270  -5.814  -3.925  0.00  0.00    +0.067 A 
ATOM      6  C   UNL     1       2.933  -6.192  -5.088  0.00  0.00    +0.094 A 
ATOM      7  C   UNL     1       3.065  -7.648  -5.305  0.00  0.00    +0.044 A 
ATOM      8  C   UNL     1       3.693  -8.308  -6.402  0.00  0.00    +0.031 A 
ATOM      9  C   UNL     1       3.712  -9.701  -6.421  0.00  0.00    +0.044 A 
ATOM     10  C   UNL     1       3.130 -10.415  -5.392  0.00  0.00    +0.146 A 
ATOM     11  N   UNL     1       2.553  -9.789  -4.382  0.00  0.00    -0.235 NA
ATOM     12  C   UNL     1       2.508  -8.474  -4.317  0.00  0.00    +0.112 A 
ATOM     13  S   UNL     1       1.829  -7.338  -3.133  0.00  0.00    -0.065 S 
ATOM     14  N   UNL     1       3.395  -5.218  -5.911  0.00  0.00    -0.207 NA
ATOM     15  C   UNL     1       3.234  -3.940  -5.639  0.00  0.00    +0.287 A 
ATOM     16  O   UNL     1       3.718  -3.010  -6.502  0.00  0.00    -0.265 OA
ATOM     17  C   UNL     1       2.583  -3.527  -4.498  0.00  0.00    +0.108 A 
ATOM     18  S   UNL     1       2.146  -1.975  -3.758  0.00  0.00    -0.047 S 
ATOM     19  H   UNL     1       0.332  -2.457  -0.536  0.00  0.00    +0.148 HD
ENDROOT
BRANCH   8  20
ATOM     20  C   UNL     1       4.309  -7.532  -7.494  0.00  0.00    +0.136 A 
ATOM     21  C   UNL     1       5.562  -7.713  -7.995  0.00  0.00    +0.050 A 
ATOM     22  C   UNL     1       5.731  -6.760  -9.018  0.00  0.00    +0.042 A 
ATOM     23  C   UNL     1       4.586  -6.052  -9.092  0.00  0.00    +0.196 A 
ATOM     24  O   UNL     1       3.728  -6.524  -8.174  0.00  0.00    -0.463 OA
ENDBRANCH   8  20
BRANCH  10  25
ATOM     25  C   UNL     1       3.155 -11.921  -5.421  0.00  0.00    +0.434 C 
ATOM     26  F   UNL     1       4.309 -12.381  -4.778  0.00  0.00    -0.164 F 
ATOM     27  F   UNL     1       2.025 -12.419  -4.763  0.00  0.00    -0.164 F 
ATOM     28  F   UNL     1       3.154 -12.362  -6.748  0.00  0.00    -0.164 F 
ENDBRANCH  10  25
BRANCH   1  29
ATOM     29  C   UNL     1       0.718  -0.497  -1.257  0.00  0.00    +0.103 C 
BRANCH  29  31
ATOM     30  C   UNL     1      -0.019   1.526   0.010  0.00  0.00    +0.005 C 
ATOM     31  C   UNL     1       0.002  -0.004   0.002  0.00  0.00    +0.015 C 
ENDBRANCH  29  31
ENDBRANCH   1  29
TORSDOF 4
