REMARK  Name = ZINC65265899
REMARK  6 active torsions:
REMARK  status: ('A' for Active; 'I' for Inactive)
REMARK    1  A    between atoms: C_1  and  O_2
REMARK    2  A    between atoms: O_2  and  C_3
REMARK    3  A    between atoms: C_5  and  C_11
REMARK    4  A    between atoms: C_7  and  O_9
REMARK    5  A    between atoms: O_9  and  C_10
REMARK    6  A    between atoms: N_28  and  C_29
REMARK                            x       y       z     vdW  Elec       q    Type
REMARK                         _______ _______ _______ _____ _____    ______ ____
ROOT
ATOM      1  C   UNL     1       1.330  -4.083  -2.296  0.00  0.00    +0.247 C 
ATOM      2  O   UNL     1       0.927  -4.758  -1.369  0.00  0.00    -0.270 OA
ATOM      3  N   UNL     1       1.838  -4.679  -3.393  0.00  0.00    -0.295 N 
ATOM      4  C   UNL     1       2.471  -3.988  -4.527  0.00  0.00    +0.110 C 
ATOM      5  C   UNL     1       2.922  -5.072  -5.532  0.00  0.00    +0.050 C 
ATOM      6  C   UNL     1       2.993  -6.337  -4.661  0.00  0.00    +0.091 C 
ATOM      7  C   UNL     1       1.859  -6.133  -3.650  0.00  0.00    +0.137 C 
ATOM      8  C   UNL     1       2.820  -7.583  -5.461  0.00  0.00    +0.095 C 
ATOM      9  N   UNL     1       3.407  -8.720  -4.961  0.00  0.00    -0.303 N 
ATOM     10  C   UNL     1       4.719  -9.013  -5.320  0.00  0.00    +0.037 A 
ATOM     11  C   UNL     1       5.063 -10.303  -5.698  0.00  0.00    +0.023 A 
ATOM     12  C   UNL     1       6.367 -10.602  -6.040  0.00  0.00    +0.002 A 
ATOM     13  C   UNL     1       7.325  -9.605  -6.001  0.00  0.00    +0.000 A 
ATOM     14  C   UNL     1       6.982  -8.322  -5.631  0.00  0.00    +0.007 A 
ATOM     15  C   UNL     1       5.671  -8.002  -5.291  0.00  0.00    -0.012 A 
ATOM     16  C   UNL     1       5.393  -6.564  -4.935  0.00  0.00    +0.119 C 
ATOM     17  N   UNL     1       4.297  -6.421  -3.967  0.00  0.00    -0.299 NA
ATOM     18  N   UNL     1       2.152  -7.593  -6.569  0.00  0.00    -0.372 N 
ATOM     19  H   UNL     1       4.442  -5.620  -3.372  0.00  0.00    +0.123 HD
ATOM     20  H   UNL     1       1.748  -6.775  -6.899  0.00  0.00    +0.161 HD
ATOM     21  H   UNL     1       2.915  -9.308  -4.367  0.00  0.00    +0.153 HD
ENDROOT
BRANCH   1  24
ATOM     22  C   UNL     1       0.537  -0.609  -1.092  0.00  0.00    +0.124 A 
ATOM     23  C   UNL     1       0.598  -1.992  -1.159  0.00  0.00    +0.059 A 
ATOM     24  C   UNL     1       1.262  -2.608  -2.221  0.00  0.00    +0.044 A 
ATOM     25  C   UNL     1       1.861  -1.828  -3.210  0.00  0.00    +0.059 A 
ATOM     26  C   UNL     1       1.796  -0.447  -3.135  0.00  0.00    +0.124 A 
ATOM     27  C   UNL     1       1.129   0.162  -2.082  0.00  0.00    +0.091 A 
BRANCH  22  29
ATOM     28  C   UNL     1      -0.139   1.421  -0.056  0.00  0.00    +0.277 C 
ATOM     29  O   UNL     1      -0.110  -0.008  -0.059  0.00  0.00    -0.495 OA
ENDBRANCH  22  29
BRANCH  26  30
ATOM     30  O   UNL     1       2.379   0.314  -4.099  0.00  0.00    -0.495 OA
ATOM     31  C   UNL     1       2.273   1.732  -3.959  0.00  0.00    +0.277 C 
ENDBRANCH  26  30
ENDBRANCH   1  24
BRANCH  18  32
ATOM     32  C   UNL     1       2.006  -8.839  -7.325  0.00  0.00    +0.080 C 
ATOM     33  C   UNL     1       3.195  -9.012  -8.293  0.00  0.00    +0.024 C 
ATOM     34  C   UNL     1       2.565  -9.646  -9.558  0.00  0.00    +0.002 C 
ATOM     35  C   UNL     1       1.198  -8.924  -9.658  0.00  0.00    +0.002 C 
ATOM     36  C   UNL     1       0.737  -8.783  -8.193  0.00  0.00    +0.024 C 
ENDBRANCH  18  32
TORSDOF 4
