REMARK  Name = ZINC63572993
REMARK  8 active torsions:
REMARK  status: ('A' for Active; 'I' for Inactive)
REMARK    1  A    between atoms: C_1  and  O_2
REMARK    2  A    between atoms: O_2  and  C_3
REMARK    3  A    between atoms: C_6  and  C_9
REMARK    4  A    between atoms: C_16  and  O_21
REMARK    5  A    between atoms: O_21  and  C_22
REMARK    6  A    between atoms: N_28  and  C_29
REMARK    7  A    between atoms: C_34  and  O_35
REMARK    8  A    between atoms: O_35  and  C_36
REMARK                            x       y       z     vdW  Elec       q    Type
REMARK                         _______ _______ _______ _____ _____    ______ ____
ROOT
ATOM      1  C   UNL     1       2.610  -2.328  -3.445  0.00  0.00    +0.134 C 
ATOM      2  C   UNL     1       1.522  -2.458  -4.516  0.00  0.00    +0.131 C 
ATOM      3  C   UNL     1       0.857  -3.811  -4.298  0.00  0.00    -0.035 C 
ATOM      4  C   UNL     1      -0.439  -3.571  -4.140  0.00  0.00    +0.003 A 
ATOM      5  C   UNL     1      -1.590  -4.469  -3.965  0.00  0.00    +0.055 A 
ATOM      6  C   UNL     1      -2.808  -3.879  -3.817  0.00  0.00    +0.121 A 
ATOM      7  C   UNL     1      -3.013  -2.491  -3.824  0.00  0.00    +0.047 A 
ATOM      8  C   UNL     1      -2.025  -1.574  -3.983  0.00  0.00    +0.029 A 
ATOM      9  C   UNL     1      -0.661  -2.092  -4.157  0.00  0.00    +0.043 A 
ATOM     10  N   UNL     1       0.474  -1.449  -4.354  0.00  0.00    -0.375 N 
ATOM     11  C   UNL     1       1.643  -5.097  -4.215  0.00  0.00    +0.052 C 
ATOM     12  C   UNL     1       2.768  -4.863  -3.191  0.00  0.00    +0.114 C 
ATOM     13  N   UNL     1       3.405  -3.566  -3.453  0.00  0.00    -0.276 N 
ATOM     14  C   UNL     1       4.727  -3.509  -3.706  0.00  0.00    +0.307 C 
ATOM     15  O   UNL     1       5.276  -2.432  -3.831  0.00  0.00    -0.252 OA
ATOM     16  N   UNL     1       5.441  -4.647  -3.820  0.00  0.00    -0.266 N 
ATOM     17  H   UNL     1       4.993  -5.506  -3.786  0.00  0.00    +0.156 HD
ATOM     18  H   UNL     1       0.603  -0.488  -4.382  0.00  0.00    +0.160 HD
ENDROOT
BRANCH  16  19
ATOM     19  C   UNL     1       6.832  -4.587  -3.988  0.00  0.00    +0.078 A 
ATOM     20  C   UNL     1       7.412  -3.484  -4.596  0.00  0.00    +0.047 A 
ATOM     21  C   UNL     1       8.784  -3.428  -4.761  0.00  0.00    +0.043 A 
ATOM     22  C   UNL     1       9.580  -4.470  -4.320  0.00  0.00    +0.024 A 
ATOM     23  C   UNL     1       9.007  -5.573  -3.713  0.00  0.00    +0.049 A 
ATOM     24  C   UNL     1       7.634  -5.634  -3.540  0.00  0.00    +0.141 A 
ATOM     25 CL   UNL     1       9.509  -2.047  -5.522  0.00  0.00    -0.083 Cl
BRANCH  24  26
ATOM     26  O   UNL     1       7.071  -6.715  -2.938  0.00  0.00    -0.493 OA
ATOM     27  C   UNL     1       7.955  -7.750  -2.504  0.00  0.00    +0.277 C 
ENDBRANCH  24  26
ENDBRANCH  16  19
BRANCH   1  31
ATOM     28  C   UNL     1       0.805  -1.794   0.392  0.00  0.00    +0.120 A 
ATOM     29  C   UNL     1       0.538  -2.937  -0.349  0.00  0.00    +0.046 A 
ATOM     30  C   UNL     1       1.123  -3.107  -1.589  0.00  0.00    +0.009 A 
ATOM     31  C   UNL     1       1.974  -2.140  -2.092  0.00  0.00    -0.024 A 
ATOM     32  C   UNL     1       2.242  -1.001  -1.355  0.00  0.00    +0.009 A 
ATOM     33  C   UNL     1       1.655  -0.823  -0.117  0.00  0.00    +0.046 A 
BRANCH  28  35
ATOM     34  C   UNL     1      -0.632  -2.666   2.073  0.00  0.00    +0.277 C 
ATOM     35  O   UNL     1       0.231  -1.625   1.612  0.00  0.00    -0.495 OA
ENDBRANCH  28  35
ENDBRANCH   1  31
BRANCH   6  36
ATOM     36  O   UNL     1      -3.892  -4.683  -3.653  0.00  0.00    -0.495 OA
ATOM     37  C   UNL     1      -5.159  -4.041  -3.500  0.00  0.00    +0.277 C 
ENDBRANCH   6  36
TORSDOF 5
