REMARK  Name = ZINC16572317
REMARK  8 active torsions:
REMARK  status: ('A' for Active; 'I' for Inactive)
REMARK    1  A    between atoms: C_1  and  C_2
REMARK    2  A    between atoms: C_2  and  C_3
REMARK    3  A    between atoms: C_3  and  C_5
REMARK    4  A    between atoms: C_3  and  C_6
REMARK    5  A    between atoms: C_6  and  C_8
REMARK    6  A    between atoms: C_6  and  N_23
REMARK    7  A    between atoms: C_14  and  C_16
REMARK    8  A    between atoms: N_26  and  C_27
REMARK                            x       y       z     vdW  Elec       q    Type
REMARK                         _______ _______ _______ _____ _____    ______ ____
ROOT
ATOM      1  C   UNL     1       1.074   2.016  -0.048  0.00  0.00    +0.163 C 
ENDROOT
BRANCH   1   2
ATOM      2  C   UNL     1       0.723   3.351  -0.651  0.00  0.00    +0.239 C 
ATOM      3  O   UNL     1      -0.412   3.571  -1.019  0.00  0.00    -0.273 OA
ATOM      4  N   UNL     1       1.669   4.302  -0.780  0.00  0.00    -0.262 N 
ATOM      5  C   UNL     1       1.323   5.568  -1.238  0.00  0.00    +0.188 A 
ATOM      6  N   UNL     1       0.142   6.049  -1.605  0.00  0.00    -0.125 NA
ATOM      7  N   UNL     1       0.000   7.239  -1.997  0.00  0.00    -0.140 NA
ATOM      8  C   UNL     1       1.026   8.079  -2.077  0.00  0.00    +0.134 A 
ATOM      9  S   UNL     1       2.347   7.012  -1.508  0.00  0.00    -0.030 S 
ATOM     10  H   UNL     1       2.591   4.103  -0.554  0.00  0.00    +0.157 HD
BRANCH   8  11
ATOM     11  C   UNL     1       1.066   9.491  -2.513  0.00  0.00    +0.009 A 
ATOM     12  C   UNL     1       2.273  10.191  -2.511  0.00  0.00    +0.012 A 
ATOM     13  C   UNL     1       2.305  11.507  -2.923  0.00  0.00    +0.016 A 
ATOM     14  C   UNL     1       1.141  12.136  -3.328  0.00  0.00    +0.018 A 
ATOM     15  C   UNL     1      -0.061  11.449  -3.327  0.00  0.00    +0.016 A 
ATOM     16  C   UNL     1      -0.105  10.131  -2.921  0.00  0.00    +0.012 A 
ATOM     17 BR   UNL     1       1.192  13.943  -3.885  0.00  0.00    -0.050 Br
ENDBRANCH   8  11
ENDBRANCH   1   2
BRANCH   1  18
ATOM     18  N   UNL     1       0.083   1.018  -0.459  0.00  0.00    -0.288 N 
ATOM     19  C   UNL     1       0.414  -0.288  -0.491  0.00  0.00    +0.300 C 
ATOM     20  O   UNL     1       1.536  -0.638  -0.179  0.00  0.00    -0.253 OA
ATOM     21  N   UNL     1      -0.497  -1.205  -0.869  0.00  0.00    -0.297 N 
ATOM     22  H   UNL     1      -0.811   1.298  -0.712  0.00  0.00    +0.151 HD
ATOM     23  H   UNL     1      -1.392  -0.926  -1.118  0.00  0.00    +0.151 HD
BRANCH  21  24
ATOM     24  C   UNL     1      -0.137  -2.625  -0.904  0.00  0.00    +0.074 C 
ATOM     25  C   UNL     1       0.528  -2.949  -2.243  0.00  0.00    +0.022 C 
ATOM     26  C   UNL     1       0.905  -4.432  -2.280  0.00  0.00    +0.002 C 
ATOM     27  C   UNL     1      -0.357  -5.282  -2.118  0.00  0.00    +0.000 C 
ATOM     28  C   UNL     1      -1.022  -4.958  -0.779  0.00  0.00    +0.002 C 
ATOM     29  C   UNL     1      -1.399  -3.475  -0.742  0.00  0.00    +0.022 C 
ENDBRANCH  21  24
ENDBRANCH   1  18
BRANCH   1  30
ATOM     30  C   UNL     1       1.080   2.130   1.478  0.00  0.00    +0.015 C 
ATOM     31  C   UNL     1      -0.340   2.409   1.974  0.00  0.00    +0.010 C 
BRANCH  30  33
ATOM     32  C   UNL     1       3.050   0.610   1.699  0.00  0.00    +0.004 C 
ATOM     33  C   UNL     1       1.585   0.820   2.086  0.00  0.00    +0.002 C 
ENDBRANCH  30  33
ENDBRANCH   1  30
TORSDOF 6
