REMARK  Name = ZINC14667142
REMARK  10 active torsions:
REMARK  status: ('A' for Active; 'I' for Inactive)
REMARK    1  A    between atoms: C_1  and  C_2
REMARK    2  A    between atoms: C_2  and  C_3
REMARK    3  A    between atoms: C_2  and  C_4
REMARK    4  A    between atoms: C_4  and  O_5
REMARK    5  A    between atoms: O_5  and  C_6
REMARK    6  A    between atoms: C_11  and  C_12
REMARK    7  A    between atoms: N_14  and  C_15
REMARK    8  A    between atoms: C_15  and  N_17
REMARK    9  A    between atoms: N_17  and  C_18
REMARK   10  A    between atoms: C_19  and  C_27
REMARK                            x       y       z     vdW  Elec       q    Type
REMARK                         _______ _______ _______ _____ _____    ______ ____
ROOT
ATOM      1  C   UNL     1      -2.927   8.753  -4.561  0.00  0.00    +0.253 C 
ATOM      2  O   UNL     1      -2.908   7.869  -5.395  0.00  0.00    -0.270 OA
ATOM      3  N   UNL     1      -2.613   8.477  -3.279  0.00  0.00    -0.263 N 
ATOM      4  H   UNL     1      -2.628   9.182  -2.614  0.00  0.00    +0.157 HD
ENDROOT
BRANCH   1  10
ATOM      5  C   UNL     1      -3.619  10.418  -6.282  0.00  0.00    +0.133 A 
ATOM      6  C   UNL     1      -3.963  11.714  -6.638  0.00  0.00    +0.047 A 
ATOM      7  C   UNL     1      -3.982  12.712  -5.685  0.00  0.00    +0.019 A 
ATOM      8  C   UNL     1      -3.660  12.429  -4.366  0.00  0.00    +0.019 A 
ATOM      9  C   UNL     1      -3.321  11.145  -3.994  0.00  0.00    +0.032 A 
ATOM     10  C   UNL     1      -3.293  10.127  -4.951  0.00  0.00    +0.080 A 
ATOM     11 BR   UNL     1      -3.691  13.807  -3.072  0.00  0.00    -0.050 Br
BRANCH   5  12
ATOM     12  O   UNL     1      -3.600   9.437  -7.219  0.00  0.00    -0.491 OA
BRANCH  12  13
ATOM     13  C   UNL     1      -3.944   9.809  -8.555  0.00  0.00    +0.232 C 
BRANCH  13  15
ATOM     14  C   UNL     1      -4.929   7.564  -9.038  0.00  0.00    +0.010 C 
ATOM     15  C   UNL     1      -3.866   8.580  -9.463  0.00  0.00    +0.020 C 
ATOM     16  C   UNL     1      -4.113   9.000 -10.913  0.00  0.00    +0.010 C 
ENDBRANCH  13  15
ENDBRANCH  12  13
ENDBRANCH   5  12
ENDBRANCH   1  10
BRANCH   3  17
ATOM     17  C   UNL     1      -2.279   7.221  -2.923  0.00  0.00    +0.141 C 
ATOM     18  S   UNL     1      -2.252   5.976  -4.098  0.00  0.00    -0.018 S 
BRANCH  17  19
ATOM     19  N   UNL     1      -1.965   6.945  -1.641  0.00  0.00    -0.290 N 
ATOM     20  H   UNL     1      -1.980   7.651  -0.976  0.00  0.00    +0.154 HD
BRANCH  19  21
ATOM     21  C   UNL     1      -1.621   5.653  -1.274  0.00  0.00    +0.089 A 
ATOM     22  C   UNL     1      -1.271   5.178  -0.019  0.00  0.00    +0.084 A 
ATOM     23  C   UNL     1      -0.951   3.765   0.100  0.00  0.00    -0.018 A 
ATOM     24  C   UNL     1      -1.032   3.059  -1.049  0.00  0.00    -0.004 A 
ATOM     25  S   UNL     1      -1.524   4.240  -2.273  0.00  0.00    -0.077 S 
ATOM     26  C   UNL     1      -0.761   1.597  -1.232  0.00  0.00    +0.043 C 
ATOM     27  C   UNL     1      -0.013   1.086   0.008  0.00  0.00    +0.005 C 
ATOM     28  C   UNL     1      -0.735   1.583   1.264  0.00  0.00    +0.005 C 
ATOM     29  C   UNL     1      -0.551   3.094   1.407  0.00  0.00    +0.037 C 
BRANCH  22  30
ATOM     30  C   UNL     1      -1.227   6.047   1.118  0.00  0.00    +0.102 C 
ATOM     31  N   UNL     1      -1.192   6.736   2.020  0.00  0.00    -0.191 NA
ENDBRANCH  22  30
ENDBRANCH  19  21
ENDBRANCH  17  19
ENDBRANCH   3  17
TORSDOF 8
