REMARK  Name = ZINC44004504
REMARK  6 active torsions:
REMARK  status: ('A' for Active; 'I' for Inactive)
REMARK    1  A    between atoms: C_3  and  N_6
REMARK    2  A    between atoms: C_12  and  C_15
REMARK    3  A    between atoms: C_15  and  N_16
REMARK    4  A    between atoms: C_17  and  C_19
REMARK    5  A    between atoms: C_22  and  S_25
REMARK    6  A    between atoms: S_25  and  N_28
REMARK                            x       y       z     vdW  Elec       q    Type
REMARK                         _______ _______ _______ _____ _____    ______ ____
ROOT
ATOM      1  N   UNL     1      10.402   1.880  -2.635  0.00  0.00    -0.311 N 
ATOM      2  C   UNL     1      11.306   2.041  -3.622  0.00  0.00    +0.244 C 
ATOM      3  O   UNL     1      11.086   2.821  -4.527  0.00  0.00    -0.270 OA
ATOM      4  H   UNL     1      10.578   1.257  -1.913  0.00  0.00    +0.149 HD
ENDROOT
BRANCH   2   5
ATOM      5  C   UNL     1      12.567   1.269  -3.602  0.00  0.00    +0.037 A 
ATOM      6  C   UNL     1      12.821   0.368  -2.566  0.00  0.00    +0.015 A 
ATOM      7  C   UNL     1      13.999  -0.350  -2.554  0.00  0.00    +0.029 A 
ATOM      8  C   UNL     1      14.928  -0.178  -3.565  0.00  0.00    +0.106 A 
ATOM      9  C   UNL     1      14.683   0.714  -4.594  0.00  0.00    +0.029 A 
ATOM     10  C   UNL     1      13.506   1.433  -4.622  0.00  0.00    +0.015 A 
BRANCH   8  11
ATOM     11  S   UNL     1      16.431  -1.098  -3.542  0.00  0.00    +0.061 S 
ATOM     12  O   UNL     1      17.373  -0.357  -4.305  0.00  0.00    -0.153 OA
ATOM     13  O   UNL     1      16.664  -1.460  -2.187  0.00  0.00    -0.153 OA
BRANCH  11  14
ATOM     14  N   UNL     1      16.155  -2.506  -4.368  0.00  0.00    -0.177 NA
ATOM     15  C   UNL     1      15.665  -3.702  -3.667  0.00  0.00    +0.109 C 
ATOM     16  C   UNL     1      14.404  -4.205  -4.376  0.00  0.00    +0.017 C 
ATOM     17  C   UNL     1      14.710  -4.427  -5.859  0.00  0.00    +0.003 C 
ATOM     18  C   UNL     1      15.127  -3.101  -6.499  0.00  0.00    +0.017 C 
ATOM     19  C   UNL     1      16.391  -2.583  -5.816  0.00  0.00    +0.109 C 
ENDBRANCH  11  14
ENDBRANCH   8  11
ENDBRANCH   2   5
BRANCH   1  20
ATOM     20  C   UNL     1       9.153   2.645  -2.655  0.00  0.00    +0.108 C 
BRANCH  20  27
ATOM     21  N   UNL     1       3.663   1.800  -0.025  0.00  0.00    -0.264 N 
ATOM     22  C   UNL     1       4.690   0.927  -0.038  0.00  0.00    +0.307 C 
ATOM     23  O   UNL     1       4.474  -0.267   0.051  0.00  0.00    -0.252 OA
ATOM     24  N   UNL     1       5.955   1.376  -0.150  0.00  0.00    -0.285 N 
ATOM     25  C   UNL     1       6.242   2.817  -0.141  0.00  0.00    +0.109 C 
ATOM     26  C   UNL     1       7.065   3.165  -1.385  0.00  0.00    +0.024 C 
ATOM     27  C   UNL     1       8.310   2.277  -1.432  0.00  0.00    +0.009 C 
ATOM     28  C   UNL     1       7.889   0.809  -1.525  0.00  0.00    +0.024 C 
ATOM     29  C   UNL     1       7.076   0.435  -0.277  0.00  0.00    +0.109 C 
ATOM     30  H   UNL     1       3.838   2.754  -0.020  0.00  0.00    +0.157 HD
BRANCH  21  33
ATOM     31  C   UNL     1      -0.016   1.350   0.003  0.00  0.00    +0.009 A 
ATOM     32  C   UNL     1       1.183   2.039  -0.003  0.00  0.00    +0.031 A 
ATOM     33  C   UNL     1       2.346   1.330  -0.017  0.00  0.00    +0.073 A 
ATOM     34  S   UNL     1       1.753  -0.353  -0.022  0.00  0.00    -0.082 S 
ATOM     35  C   UNL     1       0.002  -0.004  -0.006  0.00  0.00    +0.047 A 
ENDBRANCH  21  33
ENDBRANCH  20  27
ENDBRANCH   1  20
TORSDOF 6
