REMARK  Name = ZINC03187039
REMARK  6 active torsions:
REMARK  status: ('A' for Active; 'I' for Inactive)
REMARK    1  A    between atoms: C_1  and  C_2
REMARK    2  A    between atoms: C_5  and  C_9
REMARK    3  A    between atoms: C_9  and  C_11
REMARK    4  A    between atoms: C_9  and  N_15
REMARK    5  A    between atoms: C_24  and  S_28
REMARK    6  A    between atoms: S_28  and  C_31
REMARK                            x       y       z     vdW  Elec       q    Type
REMARK                         _______ _______ _______ _____ _____    ______ ____
ROOT
ATOM      1  N   UNL     1     -10.433  -1.446   0.429  0.00  0.00    -0.288 N 
ATOM      2  C   UNL     1      -9.131  -1.183   0.655  0.00  0.00    +0.306 C 
ATOM      3  O   UNL     1      -8.442  -1.989   1.249  0.00  0.00    -0.252 OA
ATOM      4  N   UNL     1      -8.593  -0.025   0.223  0.00  0.00    -0.248 N 
ATOM      5  C   UNL     1      -7.254   0.245   0.456  0.00  0.00    +0.167 A 
ATOM      6  N   UNL     1      -6.360  -0.492   1.072  0.00  0.00    -0.225 NA
ATOM      7  C   UNL     1      -5.077  -0.099   1.228  0.00  0.00    +0.080 A 
ATOM      8  C   UNL     1      -4.023  -0.793   1.865  0.00  0.00    +0.031 A 
ATOM      9  C   UNL     1      -2.768  -0.246   1.937  0.00  0.00    +0.029 A 
ATOM     10  C   UNL     1      -2.486   0.998   1.391  0.00  0.00    +0.089 A 
ATOM     11  C   UNL     1      -3.495   1.706   0.764  0.00  0.00    +0.044 A 
ATOM     12  C   UNL     1      -4.754   1.165   0.683  0.00  0.00    +0.043 A 
ATOM     13  S   UNL     1      -6.306   1.688  -0.006  0.00  0.00    -0.052 S 
ATOM     14  H   UNL     1     -10.983  -0.802  -0.045  0.00  0.00    +0.151 HD
ATOM     15  H   UNL     1      -9.142   0.619  -0.250  0.00  0.00    +0.158 HD
ENDROOT
BRANCH  10  16
ATOM     16  S   UNL     1      -0.862   1.671   1.500  0.00  0.00    -0.006 S 
ATOM     17  O   UNL     1      -0.296   1.065   2.655  0.00  0.00    -0.170 OA
ATOM     18  O   UNL     1      -1.048   3.078   1.438  0.00  0.00    -0.170 OA
ATOM     19  C   UNL     1      -0.013   1.086   0.008  0.00  0.00    +0.200 C 
ENDBRANCH  10  16
BRANCH   1  20
ATOM     20  C   UNL     1     -11.019  -2.704   0.898  0.00  0.00    +0.156 C 
BRANCH  20  25
ATOM     21  C   UNL     1     -16.709  -2.024   1.649  0.00  0.00    +0.047 C 
ATOM     22  C   UNL     1     -15.226  -2.202   1.453  0.00  0.00    -0.015 A 
ATOM     23  C   UNL     1     -14.492  -2.941   2.361  0.00  0.00    +0.006 A 
ATOM     24  C   UNL     1     -13.131  -3.103   2.181  0.00  0.00    +0.006 A 
ATOM     25  C   UNL     1     -12.502  -2.526   1.093  0.00  0.00    -0.020 A 
ATOM     26  C   UNL     1     -13.233  -1.782   0.187  0.00  0.00    +0.044 A 
ATOM     27  C   UNL     1     -14.598  -1.623   0.363  0.00  0.00    +0.127 A 
ATOM     28  F   UNL     1     -15.314  -0.900  -0.525  0.00  0.00    -0.205 F 
ENDBRANCH  20  25
BRANCH  20  29
ATOM     29  C   UNL     1     -10.768  -3.801  -0.138  0.00  0.00    +0.213 C 
ATOM     30 CL   UNL     1      -8.993  -4.014  -0.371  0.00  0.00    -0.081 Cl
ATOM     31 CL   UNL     1     -11.488  -5.350   0.439  0.00  0.00    -0.081 Cl
ATOM     32 CL   UNL     1     -11.528  -3.332  -1.705  0.00  0.00    -0.081 Cl
ENDBRANCH  20  29
ENDBRANCH   1  20
TORSDOF 4
