REMARK  Name = ZINC65277339
REMARK  10 active torsions:
REMARK  status: ('A' for Active; 'I' for Inactive)
REMARK    1  A    between atoms: C_1  and  C_2
REMARK    2  A    between atoms: C_4  and  C_29
REMARK    3  A    between atoms: C_5  and  N_9
REMARK    4  A    between atoms: C_6  and  C_8
REMARK    5  A    between atoms: C_10  and  C_12
REMARK    6  A    between atoms: C_12  and  N_13
REMARK    7  A    between atoms: N_13  and  C_14
REMARK    8  A    between atoms: C_17  and  C_21
REMARK    9  A    between atoms: C_19  and  C_20
REMARK   10  A    between atoms: N_23  and  C_24
REMARK                            x       y       z     vdW  Elec       q    Type
REMARK                         _______ _______ _______ _____ _____    ______ ____
ROOT
ATOM      1  N   UNL     1       0.858  -6.983   2.265  0.00  0.00    -0.335 N 
ATOM      2  H   UNL     1       1.071  -6.364   2.981  0.00  0.00    +0.147 HD
ENDROOT
BRANCH   1   3
ATOM      3  C   UNL     1       0.988  -8.353   2.468  0.00  0.00    +0.030 A 
ATOM      4  C   UNL     1       0.688  -9.240   1.438  0.00  0.00    +0.024 A 
ATOM      5  C   UNL     1       0.816 -10.595   1.636  0.00  0.00    +0.015 A 
ATOM      6  C   UNL     1       1.248 -11.082   2.873  0.00  0.00    +0.037 A 
ATOM      7  C   UNL     1       1.549 -10.189   3.906  0.00  0.00    +0.018 A 
ATOM      8  C   UNL     1       1.425  -8.834   3.700  0.00  0.00    -0.029 A 
ATOM      9  C   UNL     1       1.755  -7.870   4.810  0.00  0.00    +0.045 C 
BRANCH   6  10
ATOM     10  C   UNL     1       1.386 -12.535   3.089  0.00  0.00    +0.244 C 
ATOM     11  O   UNL     1       1.762 -12.956   4.166  0.00  0.00    -0.270 OA
ATOM     12  N   UNL     1       1.095 -13.395   2.093  0.00  0.00    -0.308 N 
ATOM     13  H   UNL     1       0.795 -13.058   1.234  0.00  0.00    +0.149 HD
BRANCH  12  14
ATOM     14  C   UNL     1       1.232 -14.837   2.308  0.00  0.00    +0.073 C 
ATOM     15  C   UNL     1       2.671 -15.286   1.981  0.00  0.00    +0.022 C 
ATOM     16  C   UNL     1       2.495 -16.675   1.320  0.00  0.00    +0.002 C 
ATOM     17  C   UNL     1       1.212 -16.490   0.472  0.00  0.00    +0.002 C 
ATOM     18  C   UNL     1       0.304 -15.603   1.348  0.00  0.00    +0.022 C 
ENDBRANCH  12  14
ENDBRANCH   6  10
ENDBRANCH   1   3
BRANCH   1  19
ATOM     19  C   UNL     1       0.399  -6.476   0.969  0.00  0.00    +0.198 C 
BRANCH  19  21
ATOM     20  N   UNL     1      -0.052  -4.280  -0.077  0.00  0.00    -0.284 N 
ATOM     21  C   UNL     1       0.345  -4.970   1.011  0.00  0.00    +0.234 C 
ATOM     22  O   UNL     1       0.659  -4.380   2.022  0.00  0.00    -0.274 OA
ATOM     23  H   UNL     1      -0.370  -4.753  -0.862  0.00  0.00    +0.155 HD
BRANCH  20  28
ATOM     24  C   UNL     1       0.136   1.390  -0.065  0.00  0.00    +0.044 C 
ATOM     25  C   UNL     1       0.086  -0.116  -0.068  0.00  0.00    -0.050 A 
ATOM     26  C   UNL     1       0.759  -0.827  -1.045  0.00  0.00    +0.008 A 
ATOM     27  C   UNL     1       0.715  -2.207  -1.051  0.00  0.00    -0.029 A 
ATOM     28  C   UNL     1      -0.005  -2.882  -0.074  0.00  0.00    +0.039 A 
ATOM     29  C   UNL     1      -0.679  -2.165   0.906  0.00  0.00    -0.029 A 
ATOM     30  C   UNL     1      -0.628  -0.785   0.909  0.00  0.00    +0.008 A 
ATOM     31  C   UNL     1      -1.463  -2.893   1.968  0.00  0.00    +0.045 C 
ATOM     32  C   UNL     1       1.448  -2.981  -2.117  0.00  0.00    +0.045 C 
ENDBRANCH  20  28
ENDBRANCH  19  21
ENDBRANCH   1  19
TORSDOF 6
