REMARK  Name = ZINC22917874
REMARK  10 active torsions:
REMARK  status: ('A' for Active; 'I' for Inactive)
REMARK    1  A    between atoms: C_1  and  C_2
REMARK    2  A    between atoms: C_3  and  C_33
REMARK    3  A    between atoms: C_5  and  N_24
REMARK    4  A    between atoms: C_6  and  C_7
REMARK    5  A    between atoms: C_7  and  C_9
REMARK    6  A    between atoms: C_7  and  N_17
REMARK    7  A    between atoms: C_12  and  S_15
REMARK    8  A    between atoms: S_15  and  C_16
REMARK    9  A    between atoms: N_20  and  C_23
REMARK   10  A    between atoms: C_25  and  C_27
REMARK                            x       y       z     vdW  Elec       q    Type
REMARK                         _______ _______ _______ _____ _____    ______ ____
ROOT
ATOM      1  C   UNL     1      -0.633   1.401   0.237  0.00  0.00    +0.045 C 
ATOM      2  C   UNL     1      -0.423  -0.085   0.100  0.00  0.00    -0.034 A 
ATOM      3  C   UNL     1      -0.539  -0.686  -1.109  0.00  0.00    -0.008 A 
ATOM      4  S   UNL     1      -0.201  -2.393  -0.710  0.00  0.00    -0.078 S 
ATOM      5  C   UNL     1       0.072  -2.195   1.043  0.00  0.00    +0.077 A 
ATOM      6  C   UNL     1      -0.105  -0.853   1.205  0.00  0.00    +0.006 A 
ATOM      7  C   UNL     1      -0.867  -0.072  -2.445  0.00  0.00    +0.052 C 
ENDROOT
BRANCH   5   8
ATOM      8  N   UNL     1       0.390  -3.162   1.999  0.00  0.00    -0.276 N 
ATOM      9  C   UNL     1       0.412  -4.465   1.657  0.00  0.00    +0.249 C 
ATOM     10  O   UNL     1       0.247  -4.793   0.498  0.00  0.00    -0.270 OA
ATOM     11  H   UNL     1       0.596  -2.895   2.908  0.00  0.00    +0.156 HD
BRANCH   9  12
ATOM     12  C   UNL     1       0.636  -5.497   2.692  0.00  0.00    +0.037 A 
ATOM     13  C   UNL     1       0.715  -5.134   4.037  0.00  0.00    +0.013 A 
ATOM     14  C   UNL     1       0.924  -6.102   4.998  0.00  0.00    +0.001 A 
ATOM     15  C   UNL     1       1.055  -7.429   4.630  0.00  0.00    +0.000 A 
ATOM     16  C   UNL     1       0.978  -7.795   3.298  0.00  0.00    +0.001 A 
ATOM     17  C   UNL     1       0.764  -6.838   2.328  0.00  0.00    +0.013 A 
ENDBRANCH   9  12
ENDBRANCH   5   8
BRANCH   6  18
ATOM     18  C   UNL     1       0.039  -0.219   2.564  0.00  0.00    +0.120 C 
BRANCH  18  19
ATOM     19  N   UNL     1       1.217  -0.776   3.243  0.00  0.00    -0.295 NA
ATOM     20  C   UNL     1       1.405  -0.159   4.563  0.00  0.00    +0.067 C 
ATOM     21  C   UNL     1       2.604  -0.807   5.259  0.00  0.00    -0.064 C 
ATOM     22  N   UNL     1       3.807  -0.622   4.437  0.00  0.00    +0.379 N 
ATOM     23  C   UNL     1       3.613  -1.265   3.131  0.00  0.00    -0.064 C 
ATOM     24  C   UNL     1       2.423  -0.621   2.417  0.00  0.00    +0.067 C 
ATOM     25  C   UNL     1       4.961  -1.228   5.114  0.00  0.00    -0.096 C 
ATOM     26  H   UNL     1       3.975   0.364   4.304  0.00  0.00    -0.082 HD
ENDBRANCH  18  19
BRANCH  18  27
ATOM     27  C   UNL     1      -1.194  -0.503   3.384  0.00  0.00    -0.026 A 
ATOM     28  C   UNL     1      -1.270  -1.661   4.136  0.00  0.00    +0.006 A 
ATOM     29  C   UNL     1      -2.398  -1.925   4.888  0.00  0.00    +0.015 A 
ATOM     30  C   UNL     1      -3.457  -1.025   4.888  0.00  0.00    +0.008 A 
ATOM     31  C   UNL     1      -3.376   0.138   4.131  0.00  0.00    +0.015 A 
ATOM     32  C   UNL     1      -2.243   0.397   3.386  0.00  0.00    +0.006 A 
BRANCH  30  33
ATOM     33  S   UNL     1      -4.898  -1.358   5.845  0.00  0.00    -0.129 S 
ATOM     34  C   UNL     1      -5.973   0.069   5.530  0.00  0.00    +0.090 C 
ENDBRANCH  30  33
ENDBRANCH  18  27
ENDBRANCH   6  18
TORSDOF 6
