REMARK  Name = ZINC09391449
REMARK  11 active torsions:
REMARK  status: ('A' for Active; 'I' for Inactive)
REMARK    1  A    between atoms: C_1  and  C_2
REMARK    2  A    between atoms: C_2  and  O_3
REMARK    3  A    between atoms: O_3  and  C_4
REMARK    4  A    between atoms: C_4  and  C_6
REMARK    5  A    between atoms: C_10  and  N_11
REMARK    6  A    between atoms: C_12  and  C_14
REMARK    7  A    between atoms: C_17  and  S_20
REMARK    8  A    between atoms: S_20  and  N_23
REMARK    9  A    between atoms: C_25  and  C_32
REMARK   10  A    between atoms: C_28  and  C_31
REMARK   11  A    between atoms: C_36  and  N_68
REMARK                            x       y       z     vdW  Elec       q    Type
REMARK                         _______ _______ _______ _____ _____    ______ ____
ROOT
ATOM      1  N   UNL     1      -0.953  -3.918   0.263  0.00  0.00    -0.275 N 
ATOM      2  C   UNL     1      -2.237  -4.123   0.619  0.00  0.00    +0.249 C 
ATOM      3  O   UNL     1      -2.970  -3.174   0.822  0.00  0.00    -0.270 OA
ATOM      4  H   UNL     1      -0.368  -4.675   0.101  0.00  0.00    +0.156 HD
ENDROOT
BRANCH   1   9
ATOM      5  C   UNL     1       0.812  -2.219  -0.224  0.00  0.00    +0.091 A 
ATOM      6  C   UNL     1       1.061  -0.791  -0.293  0.00  0.00    -0.025 A 
ATOM      7  C   UNL     1       0.002  -0.004   0.002  0.00  0.00    -0.021 A 
ATOM      8  S   UNL     1      -1.311  -1.132   0.364  0.00  0.00    -0.079 S 
ATOM      9  C   UNL     1      -0.469  -2.628   0.130  0.00  0.00    +0.086 A 
ATOM     10  C   UNL     1      -0.018   1.492   0.010  0.00  0.00    -0.036 C 
ATOM     11  C   UNL     1       2.151   1.298  -1.051  0.00  0.00    -0.074 C 
ATOM     12  C   UNL     1       2.400  -0.164  -0.666  0.00  0.00    +0.018 C 
ATOM     13  C   UNL     1       1.430   3.432  -0.162  0.00  0.00    -0.096 C 
ATOM     14  N   UNL     1       1.388   1.965   0.023  0.00  0.00    +0.381 N 
ATOM     15  H   UNL     1       1.811   1.731   0.929  0.00  0.00    -0.082 HD
BRANCH   5  16
ATOM     16  C   UNL     1       1.868  -3.190  -0.516  0.00  0.00    +0.342 C 
ATOM     17  O   UNL     1       2.587  -3.594   0.378  0.00  0.00    -0.245 OA
BRANCH  16  18
ATOM     18  O   UNL     1       2.043  -3.638  -1.777  0.00  0.00    -0.461 OA
BRANCH  18  20
ATOM     19  C   UNL     1       3.154  -4.988  -3.472  0.00  0.00    +0.048 C 
ATOM     20  C   UNL     1       3.108  -4.600  -1.992  0.00  0.00    +0.229 C 
ENDBRANCH  18  20
ENDBRANCH  16  18
ENDBRANCH   5  16
ENDBRANCH   1   9
BRANCH   2  21
ATOM     21  C   UNL     1      -2.754  -5.500   0.761  0.00  0.00    +0.037 A 
ATOM     22  C   UNL     1      -1.917  -6.591   0.522  0.00  0.00    +0.015 A 
ATOM     23  C   UNL     1      -2.405  -7.874   0.662  0.00  0.00    +0.029 A 
ATOM     24  C   UNL     1      -3.723  -8.081   1.027  0.00  0.00    +0.106 A 
ATOM     25  C   UNL     1      -4.560  -7.003   1.260  0.00  0.00    +0.029 A 
ATOM     26  C   UNL     1      -4.083  -5.715   1.129  0.00  0.00    +0.015 A 
BRANCH  24  27
ATOM     27  S   UNL     1      -4.340  -9.722   1.197  0.00  0.00    +0.061 S 
ATOM     28  O   UNL     1      -3.216 -10.553   1.457  0.00  0.00    -0.153 OA
ATOM     29  O   UNL     1      -5.453  -9.649   2.077  0.00  0.00    -0.153 OA
BRANCH  27  30
ATOM     30  N   UNL     1      -4.933 -10.178  -0.281  0.00  0.00    -0.176 NA
ATOM     31  C   UNL     1      -6.338  -9.930  -0.631  0.00  0.00    +0.112 C 
ATOM     32  C   UNL     1      -6.382  -9.164  -1.962  0.00  0.00    +0.002 C 
ATOM     33  C   UNL     1      -5.598  -9.944  -3.020  0.00  0.00    +0.009 C 
ATOM     34  C   UNL     1      -4.137 -10.070  -2.584  0.00  0.00    +0.002 C 
ATOM     35  C   UNL     1      -4.066 -10.842  -1.263  0.00  0.00    +0.112 C 
ATOM     36  C   UNL     1      -3.347 -10.823  -3.658  0.00  0.00    +0.009 C 
ATOM     37  C   UNL     1      -5.754  -7.780  -1.779  0.00  0.00    +0.009 C 
ENDBRANCH  27  30
ENDBRANCH  24  27
ENDBRANCH   2  21
TORSDOF 7
