REMARK  Name = ZINC15675839
REMARK  7 active torsions:
REMARK  status: ('A' for Active; 'I' for Inactive)
REMARK    1  A    between atoms: C_1  and  O_2
REMARK    2  A    between atoms: O_2  and  C_3
REMARK    3  A    between atoms: C_6  and  N_9
REMARK    4  A    between atoms: C_21  and  C_23
REMARK    5  A    between atoms: C_25  and  C_28
REMARK    6  A    between atoms: C_31  and  O_34
REMARK    7  A    between atoms: O_34  and  C_35
REMARK                            x       y       z     vdW  Elec       q    Type
REMARK                         _______ _______ _______ _____ _____    ______ ____
ROOT
ATOM      1  N   UNL     1       2.457  -2.458  -4.303  0.00  0.00    -0.269 N 
ATOM      2  C   UNL     1       2.596  -3.798  -4.325  0.00  0.00    +0.307 C 
ATOM      3  O   UNL     1       2.103  -4.475  -3.443  0.00  0.00    -0.252 OA
ATOM      4  N   UNL     1       3.283  -4.388  -5.324  0.00  0.00    -0.267 N 
ATOM      5  C   UNL     1       3.987  -3.580  -6.335  0.00  0.00    +0.165 C 
ATOM      6  C   UNL     1       3.691  -4.192  -7.684  0.00  0.00    +0.054 A 
ATOM      7  C   UNL     1       3.103  -5.397  -7.847  0.00  0.00    +0.040 A 
ATOM      8  N   UNL     1       3.005  -5.613  -9.189  0.00  0.00    -0.349 N 
ATOM      9  H   UNL     1       2.628  -6.395  -9.621  0.00  0.00    +0.166 HD
ATOM     10  C   UNL     1       3.534  -4.530  -9.804  0.00  0.00    +0.171 A 
ATOM     11  N   UNL     1       3.941  -3.685  -8.893  0.00  0.00    -0.348 N 
ATOM     12  C   UNL     1       2.652  -6.294  -6.724  0.00  0.00    +0.087 C 
ATOM     13  C   UNL     1       3.352  -5.854  -5.427  0.00  0.00    +0.172 C 
ATOM     14  H   UNL     1       2.727  -1.930  -5.071  0.00  0.00    +0.156 HD
ATOM     15  H   UNL     1       4.359  -2.827  -9.068  0.00  0.00    +0.166 HD
ENDROOT
BRANCH   1  19
ATOM     16  C   UNL     1       0.860  -0.582  -0.939  0.00  0.00    +0.120 A 
ATOM     17  C   UNL     1       1.792   0.080  -1.724  0.00  0.00    +0.047 A 
ATOM     18  C   UNL     1       2.321  -0.541  -2.839  0.00  0.00    +0.027 A 
ATOM     19  C   UNL     1       1.920  -1.828  -3.172  0.00  0.00    +0.035 A 
ATOM     20  C   UNL     1       0.987  -2.489  -2.385  0.00  0.00    +0.027 A 
ATOM     21  C   UNL     1       0.462  -1.869  -1.269  0.00  0.00    +0.047 A 
BRANCH  16  23
ATOM     22  C   UNL     1       0.792   1.356   0.438  0.00  0.00    +0.277 C 
ATOM     23  O   UNL     1       0.339   0.030   0.158  0.00  0.00    -0.495 OA
ENDBRANCH  16  23
ENDBRANCH   1  19
BRANCH  13  24
ATOM     24  C   UNL     1       4.795  -6.289  -5.456  0.00  0.00    +0.249 A 
ATOM     25  N   UNL     1       5.305  -7.278  -4.780  0.00  0.00    -0.190 NA
ATOM     26  C   UNL     1       6.620  -7.387  -5.044  0.00  0.00    +0.202 A 
ATOM     27  N   UNL     1       6.953  -6.454  -5.902  0.00  0.00    -0.056 NA
ATOM     28  O   UNL     1       5.767  -5.727  -6.187  0.00  0.00    -0.336 OA
BRANCH  26  29
ATOM     29  C   UNL     1       7.539  -8.395  -4.462  0.00  0.00    +0.023 A 
ATOM     30  C   UNL     1       7.056  -9.342  -3.560  0.00  0.00    +0.015 A 
ATOM     31  C   UNL     1       7.912 -10.278  -3.020  0.00  0.00    +0.046 A 
ATOM     32  C   UNL     1       9.255 -10.278  -3.374  0.00  0.00    +0.130 A 
ATOM     33  C   UNL     1       9.739  -9.336  -4.272  0.00  0.00    +0.046 A 
ATOM     34  C   UNL     1       8.886  -8.401  -4.820  0.00  0.00    +0.015 A 
BRANCH  32  35
ATOM     35  O   UNL     1      10.097 -11.201  -2.841  0.00  0.00    -0.406 OA
BRANCH  35  36
ATOM     36  C   UNL     1      11.465 -11.144  -3.249  0.00  0.00    +0.575 C 
ATOM     37  F   UNL     1      12.003  -9.900  -2.902  0.00  0.00    -0.133 F 
ATOM     38  F   UNL     1      12.185 -12.158  -2.609  0.00  0.00    -0.133 F 
ATOM     39  F   UNL     1      11.547 -11.317  -4.635  0.00  0.00    -0.133 F 
ENDBRANCH  35  36
ENDBRANCH  32  35
ENDBRANCH  26  29
ENDBRANCH  13  24
TORSDOF 6
