REMARK  Name = ZINC32687694
REMARK  11 active torsions:
REMARK  status: ('A' for Active; 'I' for Inactive)
REMARK    1  A    between atoms: C_1  and  C_2
REMARK    2  A    between atoms: C_2  and  C_3
REMARK    3  A    between atoms: C_2  and  C_4
REMARK    4  A    between atoms: C_4  and  C_6
REMARK    5  A    between atoms: C_4  and  N_19
REMARK    6  A    between atoms: N_8  and  C_9
REMARK    7  A    between atoms: C_9  and  C_10
REMARK    8  A    between atoms: C_15  and  N_16
REMARK    9  A    between atoms: N_16  and  C_17
REMARK   10  A    between atoms: N_16  and  C_18
REMARK   11  A    between atoms: C_20  and  C_22
REMARK                            x       y       z     vdW  Elec       q    Type
REMARK                         _______ _______ _______ _____ _____    ______ ____
ROOT
ATOM      1  C   UNL     1      -1.517  -0.857  -0.362  0.00  0.00    +0.161 C 
ENDROOT
BRANCH   1   2
ATOM      2  C   UNL     1      -1.406  -2.341  -0.128  0.00  0.00    +0.234 C 
ATOM      3  O   UNL     1      -1.816  -3.119  -0.963  0.00  0.00    -0.274 OA
ATOM      4  N   UNL     1      -0.852  -2.804   1.010  0.00  0.00    -0.310 N 
ATOM      5  H   UNL     1      -0.455  -2.186   1.643  0.00  0.00    +0.149 HD
BRANCH   4   6
ATOM      6  C   UNL     1      -0.848  -4.242   1.291  0.00  0.00    +0.143 C 
BRANCH   6   7
ATOM      7  C   UNL     1      -0.174  -4.494   2.615  0.00  0.00    +0.008 A 
ATOM      8  C   UNL     1       1.129  -4.957   2.662  0.00  0.00    +0.010 A 
ATOM      9  C   UNL     1       1.711  -5.176   3.903  0.00  0.00    +0.018 A 
ATOM     10  C   UNL     1       0.978  -4.926   5.046  0.00  0.00    +0.084 A 
ATOM     11  N   UNL     1      -0.263  -4.484   4.972  0.00  0.00    -0.349 N 
ATOM     12  C   UNL     1      -0.851  -4.258   3.807  0.00  0.00    +0.103 A 
ATOM     13  H   UNL     1      -0.756  -4.317   5.790  0.00  0.00    +0.167 HD
BRANCH  12  14
ATOM     14  N   UNL     1      -2.158  -3.787   3.775  0.00  0.00    -0.323 N 
ATOM     15  C   UNL     1      -3.276  -4.732   3.714  0.00  0.00    +0.130 C 
ATOM     16  C   UNL     1      -2.418  -2.346   3.801  0.00  0.00    +0.130 C 
ENDBRANCH  12  14
ENDBRANCH   6   7
ENDBRANCH   4   6
ENDBRANCH   1   2
BRANCH   1  17
ATOM     17  N   UNL     1      -2.581  -0.594  -1.334  0.00  0.00    -0.303 N 
ATOM     18  C   UNL     1      -3.208   0.599  -1.340  0.00  0.00    +0.220 C 
ATOM     19  O   UNL     1      -2.892   1.455  -0.540  0.00  0.00    -0.275 OA
ATOM     20  H   UNL     1      -2.834  -1.278  -1.973  0.00  0.00    +0.149 HD
BRANCH  18  21
ATOM     21  C   UNL     1      -4.303   0.870  -2.339  0.00  0.00    +0.048 C 
ATOM     22  C   UNL     1      -5.434  -0.142  -2.144  0.00  0.00    +0.019 C 
ATOM     23  C   UNL     1      -6.545   0.133  -3.159  0.00  0.00    -0.009 C 
ATOM     24  C   UNL     1      -7.086   1.549  -2.952  0.00  0.00    +0.007 C 
ATOM     25  C   UNL     1      -5.955   2.561  -3.148  0.00  0.00    -0.009 C 
ATOM     26  C   UNL     1      -4.844   2.286  -2.133  0.00  0.00    +0.019 C 
ATOM     27  C   UNL     1      -5.395   2.431  -4.565  0.00  0.00    +0.007 C 
ATOM     28  C   UNL     1      -4.854   1.015  -4.772  0.00  0.00    -0.009 C 
ATOM     29  C   UNL     1      -5.985   0.003  -4.576  0.00  0.00    +0.007 C 
ATOM     30  C   UNL     1      -3.742   0.740  -3.757  0.00  0.00    +0.019 C 
ENDBRANCH  18  21
ENDBRANCH   1  17
BRANCH   1  32
ATOM     31  C   UNL     1       0.088  -0.946  -2.275  0.00  0.00    +0.009 C 
ATOM     32  C   UNL     1      -0.188  -0.326  -0.904  0.00  0.00    +0.012 C 
ATOM     33  C   UNL     1      -0.264   1.196  -1.039  0.00  0.00    +0.009 C 
ENDBRANCH   1  32
TORSDOF 7
