REMARK  Name = ZINC36017188
REMARK  14 active torsions:
REMARK  status: ('A' for Active; 'I' for Inactive)
REMARK    1  A    between atoms: C_1  and  C_2
REMARK    2  A    between atoms: C_2  and  N_3
REMARK    3  A    between atoms: C_4  and  C_24
REMARK    4  A    between atoms: C_5  and  C_19
REMARK    5  A    between atoms: C_6  and  C_11
REMARK    6  A    between atoms: C_16  and  O_17
REMARK    7  A    between atoms: O_17  and  C_18
REMARK    8  A    between atoms: C_19  and  O_21
REMARK    9  A    between atoms: O_21  and  C_22
REMARK   10  A    between atoms: C_22  and  C_23
REMARK   11  A    between atoms: C_24  and  N_25
REMARK   12  A    between atoms: N_34  and  C_35
REMARK   13  A    between atoms: C_35  and  C_36
REMARK   14  A    between atoms: C_35  and  C_37
REMARK                            x       y       z     vdW  Elec       q    Type
REMARK                         _______ _______ _______ _____ _____    ______ ____
ROOT
ATOM      1  N   UNL     1       0.591  -0.438   1.229  0.00  0.00    -0.261 N 
ATOM      2  C   UNL     1       1.894  -0.742   0.959  0.00  0.00    +0.010 C 
ATOM      3  C   UNL     1       2.691  -1.290   1.902  0.00  0.00    +0.077 C 
ATOM      4  C   UNL     1       2.090  -1.555   3.267  0.00  0.00    +0.147 C 
ATOM      5  N   UNL     1       0.676  -1.190   3.455  0.00  0.00    -0.288 N 
ATOM      6  C   UNL     1       0.010  -0.646   2.418  0.00  0.00    +0.307 C 
ATOM      7  O   UNL     1      -1.157  -0.338   2.564  0.00  0.00    -0.252 OA
ATOM      8  H   UNL     1       0.235  -1.335   4.307  0.00  0.00    +0.151 HD
ENDROOT
BRANCH   4   9
ATOM      9  C   UNL     1       2.232  -3.026   3.560  0.00  0.00    +0.019 A 
ATOM     10  C   UNL     1       1.208  -3.897   3.243  0.00  0.00    +0.009 A 
ATOM     11  C   UNL     1       1.337  -5.247   3.512  0.00  0.00    +0.001 A 
ATOM     12  C   UNL     1       2.493  -5.729   4.099  0.00  0.00    +0.004 A 
ATOM     13  C   UNL     1       3.520  -4.863   4.418  0.00  0.00    +0.046 A 
ATOM     14  C   UNL     1       3.395  -3.509   4.144  0.00  0.00    +0.125 A 
BRANCH  14  15
ATOM     15  O   UNL     1       4.406  -2.655   4.452  0.00  0.00    -0.495 OA
ATOM     16  C   UNL     1       5.613  -3.233   4.953  0.00  0.00    +0.277 C 
ENDBRANCH  14  15
ENDBRANCH   4   9
BRANCH   1  18
ATOM     17  C   UNL     1      -0.252   1.675   0.330  0.00  0.00    +0.025 C 
ATOM     18  C   UNL     1      -0.216   0.154   0.160  0.00  0.00    +0.111 C 
ENDBRANCH   1  18
BRANCH   3  19
ATOM     19  C   UNL     1       4.042  -1.607   1.623  0.00  0.00    +0.339 C 
ATOM     20  O   UNL     1       4.934  -0.908   2.066  0.00  0.00    -0.245 OA
BRANCH  19  21
ATOM     21  O   UNL     1       4.340  -2.684   0.867  0.00  0.00    -0.462 OA
BRANCH  21  22
ATOM     22  C   UNL     1       5.724  -3.009   0.719  0.00  0.00    +0.229 C 
ATOM     23  C   UNL     1       5.871  -4.175  -0.262  0.00  0.00    +0.048 C 
ENDBRANCH  21  22
ENDBRANCH  19  21
ENDBRANCH   3  19
BRANCH   2  24
ATOM     24  C   UNL     1       2.452  -0.463  -0.412  0.00  0.00    -0.026 C 
BRANCH  24  25
ATOM     25  N   UNL     1       2.995   0.902  -0.451  0.00  0.00    +0.384 N 
ATOM     26  C   UNL     1       3.257   1.254  -1.845  0.00  0.00    -0.077 C 
ATOM     27  C   UNL     1       3.109   2.750  -2.018  0.00  0.00    +0.000 C 
ATOM     28  C   UNL     1       4.484   3.423  -1.854  0.00  0.00    +0.107 C 
ATOM     29  N   UNL     1       5.256   2.794  -0.763  0.00  0.00    -0.287 N 
ATOM     30  C   UNL     1       4.649   2.408   0.494  0.00  0.00    +0.091 C 
ATOM     31  C   UNL     1       4.122   0.958   0.399  0.00  0.00    -0.059 C 
ATOM     32  C   UNL     1       6.573   2.572  -0.944  0.00  0.00    +0.302 C 
ATOM     33  O   UNL     1       7.087   2.807  -2.020  0.00  0.00    -0.253 OA
ATOM     34  N   UNL     1       7.320   2.088   0.069  0.00  0.00    -0.297 N 
ATOM     35  H   UNL     1       6.897   1.828   0.902  0.00  0.00    +0.150 HD
ATOM     36  H   UNL     1       2.294   1.532  -0.092  0.00  0.00    -0.081 HD
BRANCH  34  37
ATOM     37  C   UNL     1       8.770   1.956  -0.089  0.00  0.00    +0.068 C 
ATOM     38  C   UNL     1       9.444   3.288   0.244  0.00  0.00    +0.027 C 
ATOM     39  C   UNL     1       9.289   0.871   0.856  0.00  0.00    +0.027 C 
ENDBRANCH  34  37
ENDBRANCH  24  25
ENDBRANCH   2  24
TORSDOF 9
