REMARK  Name = ZINC36252543
REMARK  3 active torsions:
REMARK  status: ('A' for Active; 'I' for Inactive)
REMARK    1  A    between atoms: C_1  and  C_2
REMARK    2  A    between atoms: C_3  and  N_18
REMARK    3  A    between atoms: C_8  and  C_11
REMARK                            x       y       z     vdW  Elec       q    Type
REMARK                         _______ _______ _______ _____ _____    ______ ____
ROOT
ATOM      1  C   UNL     1      -2.015   1.178   1.020  0.00  0.00    +0.066 C 
ATOM      2  C   UNL     1      -1.651  -0.273   0.838  0.00  0.00    +0.045 A 
ATOM      3  C   UNL     1      -2.347  -1.038  -0.040  0.00  0.00    +0.044 A 
ATOM      4  C   UNL     1      -2.013  -2.396  -0.216  0.00  0.00    +0.028 A 
ATOM      5  C   UNL     1      -0.989  -2.937   0.498  0.00  0.00    +0.050 A 
ATOM      6  C   UNL     1      -0.277  -2.129   1.404  0.00  0.00    +0.162 A 
ATOM      7  N   UNL     1      -0.619  -0.808   1.554  0.00  0.00    -0.278 N 
ATOM      8  C   UNL     1       0.246  -0.300   2.484  0.00  0.00    +0.169 A 
ATOM      9  N   UNL     1       1.050  -1.280   2.847  0.00  0.00    -0.128 NA
ATOM     10  N   UNL     1       0.742  -2.361   2.220  0.00  0.00    -0.129 NA
ENDROOT
BRANCH   8  11
ATOM     11  C   UNL     1       0.275   1.088   2.988  0.00  0.00    +0.021 A 
ATOM     12  C   UNL     1       0.199   1.339   4.359  0.00  0.00    +0.011 A 
ATOM     13  C   UNL     1       0.226   2.637   4.824  0.00  0.00    +0.002 A 
ATOM     14  C   UNL     1       0.329   3.692   3.933  0.00  0.00    +0.015 A 
ATOM     15  C   UNL     1       0.404   3.451   2.572  0.00  0.00    +0.019 A 
ATOM     16  C   UNL     1       0.384   2.156   2.095  0.00  0.00    +0.027 A 
ATOM     17 BR   UNL     1       0.543   4.900   1.364  0.00  0.00    -0.050 Br
ENDBRANCH   8  11
BRANCH   3  18
ATOM     18  N   UNL     1      -3.401  -0.477  -0.772  0.00  0.00    -0.357 N 
ATOM     19  H   UNL     1      -3.632   0.457  -0.651  0.00  0.00    +0.142 HD
ATOM     20  H   UNL     1      -3.899  -1.023  -1.400  0.00  0.00    +0.142 HD
ENDBRANCH   3  18
TORSDOF 2
