REMARK  Name = ZINC45526868
REMARK  6 active torsions:
REMARK  status: ('A' for Active; 'I' for Inactive)
REMARK    1  A    between atoms: C_1  and  S_2
REMARK    2  A    between atoms: S_2  and  C_3
REMARK    3  A    between atoms: C_8  and  N_12
REMARK    4  A    between atoms: N_12  and  S_13
REMARK    5  A    between atoms: S_13  and  C_16
REMARK    6  A    between atoms: C_19  and  N_22
REMARK                            x       y       z     vdW  Elec       q    Type
REMARK                         _______ _______ _______ _____ _____    ______ ____
ROOT
ATOM      1  S   UNL     1       4.528  -1.001  -7.987  0.00  0.00    +0.092 S 
ATOM      2  O   UNL     1       3.189  -0.746  -8.387  0.00  0.00    -0.148 OA
ATOM      3  O   UNL     1       5.480   0.038  -7.804  0.00  0.00    -0.148 OA
ENDROOT
BRANCH   1   4
ATOM      4  C   UNL     1       5.209  -2.104  -9.181  0.00  0.00    +0.110 A 
ATOM      5  C   UNL     1       6.579  -2.163  -9.364  0.00  0.00    +0.031 A 
ATOM      6  C   UNL     1       7.115  -3.025 -10.300  0.00  0.00    +0.030 A 
ATOM      7  C   UNL     1       6.278  -3.835 -11.057  0.00  0.00    +0.069 A 
ATOM      8  C   UNL     1       4.903  -3.773 -10.870  0.00  0.00    +0.030 A 
ATOM      9  C   UNL     1       4.373  -2.912  -9.929  0.00  0.00    +0.031 A 
BRANCH   7  10
ATOM     10  N   UNL     1       6.818  -4.709 -12.006  0.00  0.00    -0.196 N 
ATOM     11  C   UNL     1       6.313  -4.740 -13.256  0.00  0.00    +0.292 A 
ATOM     12  O   UNL     1       5.386  -4.008 -13.563  0.00  0.00    -0.264 OA
ATOM     13  C   UNL     1       6.865  -5.624 -14.203  0.00  0.00    +0.127 A 
ATOM     14  C   UNL     1       7.901  -6.432 -13.836  0.00  0.00    +0.084 A 
ATOM     15  C   UNL     1       8.400  -6.372 -12.526  0.00  0.00    +0.155 A 
ATOM     16  N   UNL     1       7.885  -5.545 -11.656  0.00  0.00    -0.170 NA
ATOM     17 CL   UNL     1       8.599  -7.531 -14.985  0.00  0.00    -0.080 Cl
ATOM     18 CL   UNL     1       6.234  -5.685 -15.819  0.00  0.00    -0.076 Cl
ENDBRANCH   7  10
ENDBRANCH   1   4
BRANCH   1  19
ATOM     19  N   UNL     1       4.445  -1.824  -6.553  0.00  0.00    -0.098 NA
BRANCH  19  25
ATOM     20  C   UNL     1       2.413  -0.134  -0.853  0.00  0.00    +0.135 A 
ATOM     21  N   UNL     1       2.447   0.588  -1.951  0.00  0.00    -0.233 NA
ATOM     22  C   UNL     1       2.913   0.102  -3.124  0.00  0.00    +0.080 A 
ATOM     23  C   UNL     1       3.002   0.768  -4.368  0.00  0.00    +0.031 A 
ATOM     24  C   UNL     1       3.502   0.130  -5.472  0.00  0.00    +0.029 A 
ATOM     25  C   UNL     1       3.938  -1.192  -5.411  0.00  0.00    +0.075 A 
ATOM     26  C   UNL     1       3.864  -1.874  -4.204  0.00  0.00    +0.044 A 
ATOM     27  C   UNL     1       3.363  -1.237  -3.096  0.00  0.00    +0.042 A 
ATOM     28  S   UNL     1       3.094  -1.693  -1.401  0.00  0.00    -0.061 S 
BRANCH  20  30
ATOM     29  C   UNL     1       1.300   2.041   0.552  0.00  0.00    +0.092 C 
ATOM     30  S   UNL     1       1.847   0.323   0.752  0.00  0.00    -0.102 S 
ENDBRANCH  20  30
ENDBRANCH  19  25
ENDBRANCH   1  19
TORSDOF 5
