REMARK  Name = ZINC13187809
REMARK  5 active torsions:
REMARK  status: ('A' for Active; 'I' for Inactive)
REMARK    1  A    between atoms: C_4  and  S_7
REMARK    2  A    between atoms: S_7  and  N_10
REMARK    3  A    between atoms: C_13  and  C_16
REMARK    4  A    between atoms: N_18  and  C_19
REMARK    5  A    between atoms: C_24  and  C_25
REMARK                            x       y       z     vdW  Elec       q    Type
REMARK                         _______ _______ _______ _____ _____    ______ ____
ROOT
ATOM      1  N   UNL     1       1.330   2.039  -0.059  0.00  0.00    -0.177 NA
ATOM      2  C   UNL     1      -0.050   1.535  -0.037  0.00  0.00    +0.110 C 
ATOM      3  C   UNL     1      -0.016   0.003  -0.031  0.00  0.00    +0.030 C 
ATOM      4  C   UNL     1       0.814  -0.489  -1.219  0.00  0.00    +0.078 C 
ATOM      5  C   UNL     1       2.249   0.026  -1.089  0.00  0.00    +0.030 C 
ATOM      6  C   UNL     1       2.240   1.558  -1.107  0.00  0.00    +0.110 C 
ENDROOT
BRANCH   4   7
ATOM      7  C   UNL     1       0.821  -1.996  -1.235  0.00  0.00    +0.220 C 
ATOM      8  O   UNL     1       0.222  -2.615  -0.381  0.00  0.00    -0.275 OA
ATOM      9  N   UNL     1       1.494  -2.656  -2.199  0.00  0.00    -0.285 N 
ATOM     10  H   UNL     1       1.919  -2.163  -2.918  0.00  0.00    +0.155 HD
BRANCH   9  11
ATOM     11  C   UNL     1       1.579  -4.046  -2.161  0.00  0.00    +0.048 A 
ATOM     12  C   UNL     1       0.510  -4.798  -1.692  0.00  0.00    +0.025 A 
ATOM     13  C   UNL     1       0.594  -6.175  -1.660  0.00  0.00    +0.022 A 
ATOM     14  C   UNL     1       1.747  -6.818  -2.086  0.00  0.00    +0.042 A 
ATOM     15  C   UNL     1       2.820  -6.088  -2.550  0.00  0.00    +0.037 A 
ATOM     16  C   UNL     1       2.747  -4.693  -2.592  0.00  0.00    +0.086 A 
ATOM     17 CL   UNL     1       1.839  -8.551  -2.033  0.00  0.00    -0.084 Cl
BRANCH  16  18
ATOM     18  C   UNL     1       3.891  -3.905  -3.087  0.00  0.00    +0.388 C 
ATOM     19  O   UNL     1       3.862  -2.692  -3.032  0.00  0.00    -0.241 OA
ATOM     20  O   UNL     1       4.968  -4.531  -3.601  0.00  0.00    -0.241 OA
ENDBRANCH  16  18
ENDBRANCH   9  11
ENDBRANCH   4   7
BRANCH   1  21
ATOM     21  S   UNL     1       1.849   3.127   1.076  0.00  0.00    +0.061 S 
ATOM     22  O   UNL     1       2.948   3.820   0.501  0.00  0.00    -0.153 OA
ATOM     23  O   UNL     1       0.692   3.797   1.555  0.00  0.00    -0.153 OA
BRANCH  21  27
ATOM     24  C   UNL     1       3.499   0.747   4.555  0.00  0.00    +0.000 A 
ATOM     25  C   UNL     1       4.332   1.121   3.517  0.00  0.00    +0.002 A 
ATOM     26  C   UNL     1       3.828   1.848   2.454  0.00  0.00    +0.028 A 
ATOM     27  C   UNL     1       2.491   2.200   2.430  0.00  0.00    +0.105 A 
ATOM     28  C   UNL     1       1.660   1.831   3.471  0.00  0.00    +0.028 A 
ATOM     29  C   UNL     1       2.163   1.100   4.531  0.00  0.00    +0.002 A 
ENDBRANCH  21  27
ENDBRANCH   1  21
TORSDOF 5
