REMARK  Name = ZINC39723554
REMARK  8 active torsions:
REMARK  status: ('A' for Active; 'I' for Inactive)
REMARK    1  A    between atoms: C_1  and  C_2
REMARK    2  A    between atoms: C_4  and  C_30
REMARK    3  A    between atoms: C_5  and  N_9
REMARK    4  A    between atoms: C_6  and  C_8
REMARK    5  A    between atoms: C_10  and  C_12
REMARK    6  A    between atoms: C_12  and  S_13
REMARK    7  A    between atoms: S_13  and  C_14
REMARK    8  A    between atoms: C_20  and  C_22
REMARK                            x       y       z     vdW  Elec       q    Type
REMARK                         _______ _______ _______ _____ _____    ______ ____
ROOT
ATOM      1  C   UNL     1      -0.738  -8.847   2.096  0.00  0.00    +0.160 A 
ATOM      2  N   UNL     1      -0.995  -9.488   0.966  0.00  0.00    -0.133 NA
ATOM      3  N   UNL     1      -1.203 -10.732   0.937  0.00  0.00    -0.125 NA
ATOM      4  C   UNL     1      -1.177 -11.473   2.033  0.00  0.00    +0.189 A 
ATOM      5  S   UNL     1      -0.800 -10.215   3.250  0.00  0.00    -0.024 S 
ATOM      6  N   UNL     1      -1.380 -12.840   2.193  0.00  0.00    -0.259 N 
ATOM      7  C   UNL     1      -1.650 -13.611   1.121  0.00  0.00    +0.251 C 
ATOM      8  O   UNL     1      -1.716 -13.113   0.014  0.00  0.00    -0.270 OA
ATOM      9  H   UNL     1      -1.326 -13.238   3.076  0.00  0.00    +0.157 HD
ENDROOT
BRANCH   7  10
ATOM     10  C   UNL     1      -1.865 -15.063   1.291  0.00  0.00    +0.057 A 
ATOM     11  C   UNL     1      -1.795 -15.638   2.562  0.00  0.00    +0.034 A 
ATOM     12  C   UNL     1      -1.998 -16.995   2.713  0.00  0.00    +0.042 A 
ATOM     13  C   UNL     1      -2.270 -17.786   1.609  0.00  0.00    +0.021 A 
ATOM     14  C   UNL     1      -2.341 -17.223   0.348  0.00  0.00    +0.022 A 
ATOM     15  C   UNL     1      -2.146 -15.866   0.182  0.00  0.00    +0.053 A 
ATOM     16 CL   UNL     1      -2.242 -15.160  -1.401  0.00  0.00    -0.083 Cl
ATOM     17 CL   UNL     1      -1.911 -17.712   4.292  0.00  0.00    -0.084 Cl
ENDBRANCH   7  10
BRANCH   1  18
ATOM     18  S   UNL     1      -0.418  -7.138   2.382  0.00  0.00    -0.088 S 
BRANCH  18  19
ATOM     19  C   UNL     1      -0.526  -6.390   0.733  0.00  0.00    +0.172 C 
BRANCH  19  21
ATOM     20  N   UNL     1      -0.299  -4.141  -0.272  0.00  0.00    -0.284 N 
ATOM     21  C   UNL     1      -0.270  -4.908   0.836  0.00  0.00    +0.227 C 
ATOM     22  O   UNL     1      -0.036  -4.407   1.915  0.00  0.00    -0.275 OA
ATOM     23  H   UNL     1      -0.421  -4.551  -1.143  0.00  0.00    +0.155 HD
BRANCH  20  28
ATOM     24  C   UNL     1       0.286   1.486   0.157  0.00  0.00    +0.044 C 
ATOM     25  C   UNL     1       0.130  -0.009   0.043  0.00  0.00    -0.050 A 
ATOM     26  C   UNL     1       1.121  -0.844   0.526  0.00  0.00    +0.008 A 
ATOM     27  C   UNL     1       0.982  -2.215   0.423  0.00  0.00    -0.029 A 
ATOM     28  C   UNL     1      -0.155  -2.753  -0.166  0.00  0.00    +0.039 A 
ATOM     29  C   UNL     1      -1.148  -1.911  -0.649  0.00  0.00    -0.029 A 
ATOM     30  C   UNL     1      -1.005  -0.542  -0.539  0.00  0.00    +0.008 A 
ATOM     31  C   UNL     1      -2.383  -2.491  -1.289  0.00  0.00    +0.045 C 
ATOM     32  C   UNL     1       2.062  -3.124   0.949  0.00  0.00    +0.045 C 
ENDBRANCH  20  28
ENDBRANCH  19  21
ENDBRANCH  18  19
ENDBRANCH   1  18
TORSDOF 5
