REMARK  Name = ZINC08974444
REMARK  1 active torsions:
REMARK  status: ('A' for Active; 'I' for Inactive)
REMARK    1  A    between atoms: C_8  and  C_12
REMARK                            x       y       z     vdW  Elec       q    Type
REMARK                         _______ _______ _______ _____ _____    ______ ____
ROOT
ATOM      1  C   UNL     1       2.586  -4.234   0.117  0.00  0.00    +0.236 C 
ATOM      2  O   UNL     1       3.120  -4.668  -0.881  0.00  0.00    -0.274 OA
ATOM      3  N   UNL     1       2.025  -5.080   1.004  0.00  0.00    -0.263 N 
ATOM      4  C   UNL     1       2.060  -6.446   0.775  0.00  0.00    +0.165 A 
ATOM      5  N   UNL     1       2.591  -7.099  -0.232  0.00  0.00    -0.225 NA
ATOM      6  C   UNL     1       2.551  -8.446  -0.326  0.00  0.00    +0.080 A 
ATOM      7  C   UNL     1       3.079  -9.265  -1.350  0.00  0.00    +0.029 A 
ATOM      8  C   UNL     1       2.950 -10.628  -1.292  0.00  0.00    +0.002 A 
ATOM      9  C   UNL     1       2.300 -11.251  -0.236  0.00  0.00    +0.001 A 
ATOM     10  C   UNL     1       1.772 -10.480   0.783  0.00  0.00    +0.017 A 
ATOM     11  C   UNL     1       1.896  -9.114   0.734  0.00  0.00    +0.041 A 
ATOM     12  S   UNL     1       1.399  -7.768   1.781  0.00  0.00    -0.052 S 
ATOM     13  H   UNL     1       1.597  -4.733   1.802  0.00  0.00    +0.157 HD
ENDROOT
BRANCH   1  21
ATOM     14  C   UNL     1      -0.017   1.376   0.010  0.00  0.00    +0.000 A 
ATOM     15  C   UNL     1       1.173   2.080   0.002  0.00  0.00    +0.000 A 
ATOM     16  C   UNL     1       2.374   1.400  -0.011  0.00  0.00    +0.005 A 
ATOM     17  C   UNL     1       2.395   0.013  -0.018  0.00  0.00    -0.030 A 
ATOM     18  C   UNL     1       1.208  -0.688  -0.014  0.00  0.00    -0.041 A 
ATOM     19  C   UNL     1       0.002  -0.004   0.002  0.00  0.00    +0.004 A 
ATOM     20  C   UNL     1       1.180  -2.195  -0.033  0.00  0.00    +0.063 C 
ATOM     21  C   UNL     1       2.548  -2.748   0.366  0.00  0.00    +0.145 C 
ATOM     22  N   UNL     1       3.577  -2.081  -0.447  0.00  0.00    -0.301 NA
ATOM     23  C   UNL     1       3.730  -0.684  -0.026  0.00  0.00    +0.117 C 
ATOM     24  H   UNL     1       4.456  -2.573  -0.393  0.00  0.00    +0.123 HD
ENDBRANCH   1  21
TORSDOF 1
