REMARK  Name = ZINC63573607
REMARK  5 active torsions:
REMARK  status: ('A' for Active; 'I' for Inactive)
REMARK    1  A    between atoms: C_7  and  C_10
REMARK    2  A    between atoms: C_10  and  C_11
REMARK    3  A    between atoms: C_11  and  N_12
REMARK    4  A    between atoms: C_13  and  C_15
REMARK    5  A    between atoms: C_18  and  N_21
REMARK                            x       y       z     vdW  Elec       q    Type
REMARK                         _______ _______ _______ _____ _____    ______ ____
ROOT
ATOM      1  C   UNL     1      -1.754  -6.509  -2.642  0.00  0.00    +0.037 A 
ATOM      2  C   UNL     1      -2.779  -6.572  -1.695  0.00  0.00    +0.015 A 
ATOM      3  C   UNL     1      -3.647  -7.640  -1.691  0.00  0.00    +0.024 A 
ATOM      4  C   UNL     1      -3.504  -8.658  -2.629  0.00  0.00    +0.035 A 
ATOM      5  C   UNL     1      -2.484  -8.599  -3.574  0.00  0.00    +0.024 A 
ATOM      6  C   UNL     1      -1.616  -7.531  -3.586  0.00  0.00    +0.015 A 
ENDROOT
BRANCH   4   7
ATOM      7  N   UNL     1      -4.384  -9.739  -2.622  0.00  0.00    -0.269 N 
ATOM      8  C   UNL     1      -4.762 -10.308  -3.784  0.00  0.00    +0.311 C 
ATOM      9  O   UNL     1      -4.274  -9.932  -4.832  0.00  0.00    -0.252 OA
ATOM     10  N   UNL     1      -5.680 -11.294  -3.784  0.00  0.00    -0.252 N 
ATOM     11  C   UNL     1      -6.276 -11.692  -2.511  0.00  0.00    +0.126 C 
ATOM     12  C   UNL     1      -6.098 -13.208  -2.336  0.00  0.00    +0.095 C 
ATOM     13  S   UNL     1      -7.070 -14.032  -3.632  0.00  0.00    -0.103 S 
ATOM     14  C   UNL     1      -6.648 -13.130  -5.090  0.00  0.00    +0.118 A 
ATOM     15  C   UNL     1      -6.024 -11.885  -5.001  0.00  0.00    +0.070 A 
ATOM     16  C   UNL     1      -5.720 -11.202  -6.176  0.00  0.00    +0.028 A 
ATOM     17  C   UNL     1      -6.051 -11.784  -7.391  0.00  0.00    +0.022 A 
ATOM     18  C   UNL     1      -6.668 -13.018  -7.404  0.00  0.00    +0.112 A 
ATOM     19  N   UNL     1      -6.939 -13.652  -6.274  0.00  0.00    -0.247 NA
ATOM     20  H   UNL     1      -4.724 -10.082  -1.781  0.00  0.00    +0.156 HD
ENDBRANCH   4   7
BRANCH   1  22
ATOM     21  N   UNL     1      -0.956  -4.381  -1.738  0.00  0.00    -0.311 N 
ATOM     22  C   UNL     1      -0.822  -5.365  -2.650  0.00  0.00    +0.244 C 
ATOM     23  O   UNL     1       0.066  -5.309  -3.478  0.00  0.00    -0.270 OA
ATOM     24  H   UNL     1      -1.665  -4.425  -1.078  0.00  0.00    +0.149 HD
BRANCH  21  25
ATOM     25  C   UNL     1      -0.032  -3.245  -1.746  0.00  0.00    +0.109 C 
BRANCH  25  26
ATOM     26  C   UNL     1      -0.401  -2.279  -0.618  0.00  0.00    +0.052 C 
BRANCH  26  33
ATOM     27  C   UNL     1      -0.640   1.900  -2.498  0.00  0.00    +0.001 A 
ATOM     28  C   UNL     1       0.492   2.691  -2.256  0.00  0.00    +0.002 A 
ATOM     29  C   UNL     1       1.546   2.254  -1.536  0.00  0.00    +0.026 A 
ATOM     30  C   UNL     1       1.546   0.943  -0.984  0.00  0.00    +0.043 A 
ATOM     31  N   UNL     1       2.432   0.299  -0.263  0.00  0.00    -0.380 N 
ATOM     32  C   UNL     1       1.909  -1.039   0.035  0.00  0.00    +0.144 C 
ATOM     33  C   UNL     1       0.550  -1.110  -0.626  0.00  0.00    -0.040 C 
ATOM     34  C   UNL     1       0.362   0.088  -1.225  0.00  0.00    -0.001 A 
ATOM     35  C   UNL     1      -0.742   0.640  -2.019  0.00  0.00    +0.010 A 
ATOM     36  H   UNL     1       3.289   0.649   0.025  0.00  0.00    +0.160 HD
ENDBRANCH  26  33
ENDBRANCH  25  26
ENDBRANCH  21  25
ENDBRANCH   1  22
TORSDOF 5
