REMARK  Name = ZINC02347377
REMARK  7 active torsions:
REMARK  status: ('A' for Active; 'I' for Inactive)
REMARK    1  A    between atoms: C_1  and  C_2
REMARK    2  A    between atoms: C_6  and  N_8
REMARK    3  A    between atoms: C_9  and  N_33
REMARK    4  A    between atoms: C_10  and  C_21
REMARK    5  A    between atoms: N_23  and  C_24
REMARK    6  A    between atoms: C_24  and  C_26
REMARK    7  A    between atoms: C_24  and  C_27
REMARK                            x       y       z     vdW  Elec       q    Type
REMARK                         _______ _______ _______ _____ _____    ______ ____
ROOT
ATOM      1  N   UNL     1      -0.069   5.243   0.030  0.00  0.00    -0.280 N 
ATOM      2  C   UNL     1       0.384   6.030  -0.986  0.00  0.00    +0.117 A 
ATOM      3  C   UNL     1       0.225   7.374  -0.668  0.00  0.00    +0.104 A 
ATOM      4  C   UNL     1      -0.385   7.418   0.671  0.00  0.00    +0.123 A 
ATOM      5  C   UNL     1      -0.556   6.017   1.066  0.00  0.00    +0.166 A 
ATOM      6  N   UNL     1      -1.079   5.735   2.240  0.00  0.00    -0.225 NA
ATOM      7  C   UNL     1      -1.461   6.726   3.056  0.00  0.00    +0.092 A 
ATOM      8  C   UNL     1      -2.029   6.434   4.310  0.00  0.00    +0.030 A 
ATOM      9  C   UNL     1      -2.413   7.447   5.132  0.00  0.00    +0.002 A 
ATOM     10  C   UNL     1      -2.255   8.779   4.751  0.00  0.00    +0.002 A 
ATOM     11  C   UNL     1      -1.711   9.101   3.547  0.00  0.00    +0.030 A 
ATOM     12  C   UNL     1      -1.300   8.080   2.669  0.00  0.00    +0.090 A 
ATOM     13  N   UNL     1      -0.764   8.386   1.481  0.00  0.00    -0.241 NA
ENDROOT
BRANCH   1  19
ATOM     14  C   UNL     1       2.490   1.044  -0.016  0.00  0.00    +0.044 C 
ATOM     15  C   UNL     1       1.177   1.782   0.000  0.00  0.00    -0.048 A 
ATOM     16  C   UNL     1      -0.013   1.076   0.008  0.00  0.00    +0.003 A 
ATOM     17  C   UNL     1      -1.220   1.749   0.017  0.00  0.00    +0.002 A 
ATOM     18  C   UNL     1      -1.242   3.131   0.030  0.00  0.00    +0.026 A 
ATOM     19  C   UNL     1      -0.050   3.842   0.022  0.00  0.00    +0.050 A 
ATOM     20  C   UNL     1       1.161   3.163   0.007  0.00  0.00    +0.029 A 
ENDBRANCH   1  19
BRANCH   3  21
ATOM     21  C   UNL     1       0.591   8.519  -1.500  0.00  0.00    +0.250 C 
ATOM     22  O   UNL     1      -0.217   8.986  -2.282  0.00  0.00    -0.270 OA
ATOM     23  N   UNL     1       1.822   9.058  -1.400  0.00  0.00    -0.305 N 
ATOM     24  H   UNL     1       2.465   8.686  -0.776  0.00  0.00    +0.150 HD
BRANCH  23  25
ATOM     25  C   UNL     1       2.189  10.206  -2.233  0.00  0.00    +0.100 C 
ATOM     26  C   UNL     1       1.728  11.497  -1.554  0.00  0.00    +0.033 C 
BRANCH  25  27
ATOM     27  C   UNL     1       3.685  10.238  -2.413  0.00  0.00    -0.027 A 
ATOM     28  C   UNL     1       4.515   9.941  -1.348  0.00  0.00    +0.005 A 
ATOM     29  C   UNL     1       5.887   9.966  -1.514  0.00  0.00    +0.000 A 
ATOM     30  C   UNL     1       6.429  10.299  -2.742  0.00  0.00    +0.000 A 
ATOM     31  C   UNL     1       5.599  10.602  -3.804  0.00  0.00    +0.000 A 
ATOM     32  C   UNL     1       4.226  10.572  -3.640  0.00  0.00    +0.005 A 
ENDBRANCH  25  27
ENDBRANCH  23  25
ENDBRANCH   3  21
BRANCH   2  33
ATOM     33  N   UNL     1       0.922   5.562  -2.157  0.00  0.00    -0.343 N 
ATOM     34  H   UNL     1       1.001   4.607  -2.307  0.00  0.00    +0.144 HD
ATOM     35  H   UNL     1       1.224   6.186  -2.836  0.00  0.00    +0.144 HD
ENDBRANCH   2  33
TORSDOF 5
