REMARK  Name = ZINC09679120
REMARK  8 active torsions:
REMARK  status: ('A' for Active; 'I' for Inactive)
REMARK    1  A    between atoms: C_1  and  C_2
REMARK    2  A    between atoms: C_5  and  C_8
REMARK    3  A    between atoms: N_16  and  C_29
REMARK    4  A    between atoms: C_17  and  C_19
REMARK    5  A    between atoms: C_22  and  C_25
REMARK    6  A    between atoms: C_25  and  O_27
REMARK    7  A    between atoms: O_27  and  C_28
REMARK    8  A    between atoms: C_32  and  C_35
REMARK                            x       y       z     vdW  Elec       q    Type
REMARK                         _______ _______ _______ _____ _____    ______ ____
ROOT
ATOM      1  C   UNL     1      -1.838  -0.962   2.738  0.00  0.00    +0.099 A 
ATOM      2  C   UNL     1      -1.590  -1.274   1.398  0.00  0.00    +0.035 A 
ATOM      3  C   UNL     1      -1.636  -2.654   1.318  0.00  0.00    +0.127 A 
ATOM      4  N   UNL     1      -1.904  -3.098   2.582  0.00  0.00    -0.272 N 
ATOM      5  H   UNL     1      -1.999  -4.058   2.845  0.00  0.00    +0.189 HD
ATOM      6  N   UNL     1      -2.016  -2.098   3.382  0.00  0.00    -0.173 NA
ATOM      7  C   UNL     1      -1.381  -3.050  -0.071  0.00  0.00    +0.270 C 
ATOM      8  O   UNL     1      -1.355  -4.198  -0.472  0.00  0.00    -0.268 OA
ATOM      9  N   UNL     1      -1.182  -1.964  -0.839  0.00  0.00    -0.255 N 
ATOM     10  C   UNL     1      -1.295  -0.772   0.011  0.00  0.00    +0.146 C 
ENDROOT
BRANCH   1  15
ATOM     11  C   UNL     1      -2.048   4.322   5.021  0.00  0.00    +0.044 C 
ATOM     12  C   UNL     1      -1.993   2.939   4.423  0.00  0.00    -0.050 A 
ATOM     13  C   UNL     1      -2.833   1.949   4.899  0.00  0.00    +0.004 A 
ATOM     14  C   UNL     1      -2.787   0.681   4.356  0.00  0.00    +0.010 A 
ATOM     15  C   UNL     1      -1.892   0.400   3.326  0.00  0.00    +0.002 A 
ATOM     16  C   UNL     1      -1.044   1.400   2.854  0.00  0.00    +0.010 A 
ATOM     17  C   UNL     1      -1.103   2.666   3.401  0.00  0.00    +0.004 A 
ENDBRANCH   1  15
BRANCH  10  18
ATOM     18  C   UNL     1       0.002  -0.004   0.002  0.00  0.00    -0.022 A 
ATOM     19  C   UNL     1      -0.017   1.379   0.010  0.00  0.00    +0.006 A 
ATOM     20  C   UNL     1       1.167   2.088   0.002  0.00  0.00    +0.015 A 
ATOM     21  C   UNL     1       2.385   1.407  -0.013  0.00  0.00    +0.059 A 
ATOM     22  C   UNL     1       2.397   0.011  -0.021  0.00  0.00    +0.015 A 
ATOM     23  C   UNL     1       1.206  -0.686  -0.013  0.00  0.00    +0.006 A 
BRANCH  21  24
ATOM     24  C   UNL     1       3.656   2.159  -0.022  0.00  0.00    +0.339 C 
ATOM     25  O   UNL     1       4.715   1.564  -0.035  0.00  0.00    -0.245 OA
BRANCH  24  26
ATOM     26  O   UNL     1       3.642   3.506  -0.014  0.00  0.00    -0.464 OA
ATOM     27  C   UNL     1       4.928   4.180  -0.023  0.00  0.00    +0.280 C 
ENDBRANCH  24  26
ENDBRANCH  21  24
ENDBRANCH  10  18
BRANCH   9  28
ATOM     28  C   UNL     1      -0.915  -1.970  -2.206  0.00  0.00    +0.038 A 
ATOM     29  C   UNL     1      -0.734  -0.767  -2.883  0.00  0.00    +0.024 A 
ATOM     30  C   UNL     1      -0.465  -0.769  -4.233  0.00  0.00    +0.017 A 
ATOM     31  C   UNL     1      -0.384  -1.980  -4.926  0.00  0.00    +0.063 A 
ATOM     32  C   UNL     1      -0.571  -3.186  -4.244  0.00  0.00    +0.017 A 
ATOM     33  C   UNL     1      -0.835  -3.177  -2.893  0.00  0.00    +0.024 A 
BRANCH  31  34
ATOM     34  C   UNL     1      -0.102  -1.986  -6.374  0.00  0.00    +0.387 C 
ATOM     35  O   UNL     1      -0.032  -3.039  -6.975  0.00  0.00    -0.241 OA
ATOM     36  O   UNL     1       0.078  -0.823  -7.029  0.00  0.00    -0.241 OA
ENDBRANCH  31  34
ENDBRANCH   9  28
TORSDOF 6
