REMARK  Name = ZINC08898650
REMARK  9 active torsions:
REMARK  status: ('A' for Active; 'I' for Inactive)
REMARK    1  A    between atoms: C_1  and  C_2
REMARK    2  A    between atoms: C_4  and  C_37
REMARK    3  A    between atoms: C_12  and  C_27
REMARK    4  A    between atoms: C_14  and  C_19
REMARK    5  A    between atoms: C_19  and  C_21
REMARK    6  A    between atoms: C_30  and  O_35
REMARK    7  A    between atoms: C_31  and  O_33
REMARK    8  A    between atoms: O_33  and  C_34
REMARK    9  A    between atoms: O_35  and  C_36
REMARK                            x       y       z     vdW  Elec       q    Type
REMARK                         _______ _______ _______ _____ _____    ______ ____
ROOT
ATOM      1  C   UNL     1       6.628   6.803   4.608  0.00  0.00    +0.044 C 
ATOM      2  C   UNL     1       6.205   5.393   4.932  0.00  0.00    -0.049 A 
ATOM      3  C   UNL     1       7.157   4.408   5.151  0.00  0.00    +0.009 A 
ATOM      4  C   UNL     1       6.799   3.119   5.447  0.00  0.00    -0.024 A 
ATOM      5  C   UNL     1       5.437   2.750   5.538  0.00  0.00    +0.083 A 
ATOM      6  C   UNL     1       4.495   3.779   5.308  0.00  0.00    +0.041 A 
ATOM      7  C   UNL     1       4.863   5.068   5.013  0.00  0.00    +0.020 A 
ATOM      8  S   UNL     1       2.949   2.926   5.503  0.00  0.00    -0.052 S 
ATOM      9  C   UNL     1       3.626   1.315   5.874  0.00  0.00    +0.169 A 
ATOM     10  N   UNL     1       4.919   1.535   5.818  0.00  0.00    -0.224 NA
ATOM     11  N   UNL     1       2.958   0.134   6.146  0.00  0.00    -0.232 N 
ATOM     12  C   UNL     1       1.502  -0.043   6.194  0.00  0.00    +0.152 C 
ATOM     13  C   UNL     1       1.265  -1.498   6.525  0.00  0.00    +0.077 C 
ATOM     14  C   UNL     1       2.484  -2.073   6.649  0.00  0.00    +0.250 C 
ATOM     15  C   UNL     1       3.528  -1.055   6.413  0.00  0.00    +0.293 C 
ATOM     16  O   UNL     1       4.725  -1.261   6.454  0.00  0.00    -0.266 OA
ATOM     17  O   UNL     1       2.711  -3.374   6.944  0.00  0.00    -0.282 OA
ATOM     18  C   UNL     1       7.869   2.083   5.679  0.00  0.00    +0.046 C 
ENDROOT
BRANCH  12  19
ATOM     19  C   UNL     1       0.895   0.289   4.854  0.00  0.00    -0.018 A 
ATOM     20  C   UNL     1       1.513  -0.138   3.693  0.00  0.00    +0.009 A 
ATOM     21  C   UNL     1       0.957   0.159   2.462  0.00  0.00    +0.050 A 
ATOM     22  C   UNL     1      -0.214   0.896   2.390  0.00  0.00    +0.162 A 
ATOM     23  C   UNL     1      -0.835   1.326   3.559  0.00  0.00    +0.162 A 
ATOM     24  C   UNL     1      -0.276   1.020   4.790  0.00  0.00    +0.055 A 
BRANCH  23  25
ATOM     25  O   UNL     1      -1.988   2.044   3.494  0.00  0.00    -0.491 OA
ATOM     26  C   UNL     1      -2.632   2.352   4.732  0.00  0.00    +0.277 C 
ENDBRANCH  23  25
BRANCH  22  27
ATOM     27  O   UNL     1      -0.758   1.194   1.180  0.00  0.00    -0.491 OA
ATOM     28  C   UNL     1      -0.067   0.720   0.023  0.00  0.00    +0.277 C 
ENDBRANCH  22  27
ENDBRANCH  12  19
BRANCH  13  29
ATOM     29  C   UNL     1      -0.034  -2.159   6.682  0.00  0.00    +0.195 C 
ATOM     30  O   UNL     1      -0.385  -3.007   5.885  0.00  0.00    -0.287 OA
BRANCH  29  31
ATOM     31  C   UNL     1      -0.918  -1.793   7.810  0.00  0.00    +0.022 A 
ATOM     32  C   UNL     1      -0.553  -0.765   8.682  0.00  0.00    +0.012 A 
ATOM     33  C   UNL     1      -1.385  -0.426   9.729  0.00  0.00    +0.001 A 
ATOM     34  C   UNL     1      -2.572  -1.110   9.923  0.00  0.00    +0.000 A 
ATOM     35  C   UNL     1      -2.937  -2.133   9.066  0.00  0.00    +0.001 A 
ATOM     36  C   UNL     1      -2.118  -2.479   8.012  0.00  0.00    +0.012 A 
ENDBRANCH  29  31
ENDBRANCH  13  29
TORSDOF 5
