REMARK  Name = ZINC35867013
REMARK  9 active torsions:
REMARK  status: ('A' for Active; 'I' for Inactive)
REMARK    1  A    between atoms: C_1  and  C_2
REMARK    2  A    between atoms: C_2  and  C_3
REMARK    3  A    between atoms: C_3  and  C_5
REMARK    4  A    between atoms: C_3  and  C_6
REMARK    5  A    between atoms: N_27  and  C_28
REMARK    6  A    between atoms: C_31  and  O_36
REMARK    7  A    between atoms: C_33  and  O_34
REMARK    8  A    between atoms: O_34  and  C_35
REMARK    9  A    between atoms: O_36  and  C_37
REMARK                            x       y       z     vdW  Elec       q    Type
REMARK                         _______ _______ _______ _____ _____    ______ ____
ROOT
ATOM      1  C   UNL     1      -0.428  -2.760  -0.316  0.00  0.00    +0.135 A 
ATOM      2  N   UNL     1      -1.014  -3.330  -1.354  0.00  0.00    -0.216 NA
ATOM      3  C   UNL     1      -0.354  -4.107  -2.198  0.00  0.00    +0.133 A 
ATOM      4  C   UNL     1       1.033  -4.340  -1.983  0.00  0.00    +0.051 A 
ATOM      5  C   UNL     1       1.959  -5.154  -2.773  0.00  0.00    -0.025 A 
ATOM      6  C   UNL     1       3.238  -5.209  -2.350  0.00  0.00    -0.004 A 
ATOM      7  S   UNL     1       3.290  -4.195  -0.897  0.00  0.00    -0.073 S 
ATOM      8  C   UNL     1       1.587  -3.698  -0.858  0.00  0.00    +0.114 A 
ATOM      9  N   UNL     1       0.856  -2.934  -0.070  0.00  0.00    -0.224 NA
ATOM     10  C   UNL     1       4.369  -5.967  -2.976  0.00  0.00    +0.043 C 
ATOM     11  C   UNL     1       3.783  -6.980  -3.969  0.00  0.00    +0.005 C 
ATOM     12  C   UNL     1       2.753  -6.266  -4.849  0.00  0.00    +0.005 C 
ATOM     13  C   UNL     1       1.517  -5.915  -4.020  0.00  0.00    +0.037 C 
ATOM     14  N   UNL     1      -1.004  -4.686  -3.273  0.00  0.00    -0.312 N 
ATOM     15  C   UNL     1      -1.506  -6.064  -3.189  0.00  0.00    +0.125 C 
ATOM     16  C   UNL     1      -3.003  -6.061  -3.525  0.00  0.00    +0.128 C 
ATOM     17  N   UNL     1      -3.203  -5.309  -4.771  0.00  0.00    -0.282 N 
ATOM     18  C   UNL     1      -2.701  -3.930  -4.854  0.00  0.00    +0.128 C 
ATOM     19  C   UNL     1      -1.209  -3.931  -4.517  0.00  0.00    +0.125 C 
ATOM     20  C   UNL     1      -3.837  -5.873  -5.819  0.00  0.00    +0.307 C 
ATOM     21  O   UNL     1      -4.330  -6.978  -5.707  0.00  0.00    -0.252 OA
ATOM     22  N   UNL     1      -3.922  -5.211  -6.990  0.00  0.00    -0.266 N 
ATOM     23  H   UNL     1      -3.485  -4.352  -7.095  0.00  0.00    +0.156 HD
ENDROOT
BRANCH  22  24
ATOM     24  C   UNL     1      -4.646  -5.765  -8.057  0.00  0.00    +0.077 A 
ATOM     25  C   UNL     1      -4.766  -7.142  -8.173  0.00  0.00    +0.030 A 
ATOM     26  C   UNL     1      -5.478  -7.688  -9.225  0.00  0.00    +0.047 A 
ATOM     27  C   UNL     1      -6.072  -6.861 -10.166  0.00  0.00    +0.124 A 
ATOM     28  C   UNL     1      -5.954  -5.483 -10.055  0.00  0.00    +0.093 A 
ATOM     29  C   UNL     1      -5.247  -4.933  -8.998  0.00  0.00    +0.145 A 
BRANCH  29  30
ATOM     30  O   UNL     1      -5.135  -3.583  -8.883  0.00  0.00    -0.493 OA
ATOM     31  C   UNL     1      -5.778  -2.791  -9.885  0.00  0.00    +0.277 C 
ENDBRANCH  29  30
BRANCH  27  32
ATOM     32  O   UNL     1      -6.771  -7.401 -11.200  0.00  0.00    -0.495 OA
ATOM     33  C   UNL     1      -6.853  -8.826 -11.254  0.00  0.00    +0.277 C 
ENDBRANCH  27  32
ENDBRANCH  22  24
BRANCH   1  34
ATOM     34  C   UNL     1      -1.244  -1.888   0.603  0.00  0.00    +0.054 C 
ATOM     35  C   UNL     1      -0.663  -0.472   0.610  0.00  0.00    +0.015 C 
BRANCH  34  37
ATOM     36  C   UNL     1      -2.130  -1.649   2.926  0.00  0.00    +0.004 C 
ATOM     37  C   UNL     1      -1.203  -2.462   2.020  0.00  0.00    +0.007 C 
ENDBRANCH  34  37
ENDBRANCH   1  34
TORSDOF 5
