REMARK  Name = ZINC59271865
REMARK  5 active torsions:
REMARK  status: ('A' for Active; 'I' for Inactive)
REMARK    1  A    between atoms: C_4  and  N_25
REMARK    2  A    between atoms: C_5  and  N_7
REMARK    3  A    between atoms: C_8  and  C_10
REMARK    4  A    between atoms: C_14  and  N_16
REMARK    5  A    between atoms: C_17  and  C_19
REMARK                            x       y       z     vdW  Elec       q    Type
REMARK                         _______ _______ _______ _____ _____    ______ ____
ROOT
ATOM      1  N   UNL     1       1.216  -2.065   0.024  0.00  0.00    -0.280 N 
ATOM      2  C   UNL     1       0.067  -2.762   0.126  0.00  0.00    +0.248 C 
ATOM      3  O   UNL     1      -0.999  -2.178   0.143  0.00  0.00    -0.270 OA
ATOM      4  H   UNL     1       2.062  -2.533  -0.057  0.00  0.00    +0.155 HD
ENDROOT
BRANCH   1   9
ATOM      5  C   UNL     1       0.105   1.397  -0.539  0.00  0.00    +0.002 A 
ATOM      6  C   UNL     1       1.134   2.106   0.053  0.00  0.00    +0.002 A 
ATOM      7  C   UNL     1       2.193   1.438   0.638  0.00  0.00    +0.025 A 
ATOM      8  C   UNL     1       2.226   0.051   0.632  0.00  0.00    +0.051 A 
ATOM      9  C   UNL     1       1.189  -0.664   0.034  0.00  0.00    +0.055 A 
ATOM     10  C   UNL     1       0.130   0.015  -0.550  0.00  0.00    +0.025 A 
BRANCH   8  11
ATOM     11  N   UNL     1       3.297  -0.628   1.223  0.00  0.00    -0.328 N 
ATOM     12  C   UNL     1       4.493  -0.966   0.439  0.00  0.00    +0.105 C 
ATOM     13  C   UNL     1       5.728  -0.427   1.167  0.00  0.00    +0.019 C 
ATOM     14  C   UNL     1       5.745  -0.962   2.601  0.00  0.00    +0.003 C 
ATOM     15  C   UNL     1       4.497  -0.476   3.342  0.00  0.00    +0.019 C 
ATOM     16  C   UNL     1       3.250  -1.011   2.640  0.00  0.00    +0.105 C 
ENDBRANCH   8  11
ENDBRANCH   1   9
BRANCH   2  17
ATOM     17  C   UNL     1       0.103  -4.237   0.217  0.00  0.00    +0.039 A 
ATOM     18  C   UNL     1       1.327  -4.910   0.203  0.00  0.00    +0.013 A 
ATOM     19  C   UNL     1       1.358  -6.287   0.288  0.00  0.00    +0.003 A 
ATOM     20  C   UNL     1       0.181  -7.005   0.387  0.00  0.00    +0.023 A 
ATOM     21  C   UNL     1      -1.042  -6.345   0.401  0.00  0.00    +0.034 A 
ATOM     22  C   UNL     1      -1.084  -4.961   0.323  0.00  0.00    +0.036 A 
BRANCH  21  23
ATOM     23  N   UNL     1      -2.230  -7.076   0.500  0.00  0.00    -0.279 N 
ATOM     24  C   UNL     1      -3.335  -6.658  -0.149  0.00  0.00    +0.284 C 
ATOM     25  O   UNL     1      -3.322  -5.601  -0.754  0.00  0.00    -0.266 OA
ATOM     26  H   UNL     1      -2.260  -7.884   1.036  0.00  0.00    +0.155 HD
BRANCH  24  27
ATOM     27  C   UNL     1      -4.551  -7.475  -0.127  0.00  0.00    +0.191 A 
ATOM     28  C   UNL     1      -5.732  -7.173  -0.744  0.00  0.00    +0.056 A 
ATOM     29  C   UNL     1      -6.616  -8.225  -0.462  0.00  0.00    +0.058 A 
ATOM     30  C   UNL     1      -5.944  -9.114   0.306  0.00  0.00    +0.171 A 
ATOM     31  O   UNL     1      -4.699  -8.660   0.501  0.00  0.00    -0.444 OA
ATOM     32 BR   UNL     1      -6.645 -10.733   0.987  0.00  0.00    -0.008 Br
ENDBRANCH  24  27
ENDBRANCH  21  23
ENDBRANCH   2  17
TORSDOF 5
