REMARK  Name = ZINC66395275
REMARK  9 active torsions:
REMARK  status: ('A' for Active; 'I' for Inactive)
REMARK    1  A    between atoms: C_1  and  C_2
REMARK    2  A    between atoms: C_2  and  N_3
REMARK    3  A    between atoms: N_3  and  C_4
REMARK    4  A    between atoms: N_3  and  C_6
REMARK    5  A    between atoms: C_4  and  C_5
REMARK    6  A    between atoms: C_12  and  C_14
REMARK    7  A    between atoms: C_15  and  C_23
REMARK    8  A    between atoms: C_17  and  S_19
REMARK    9  A    between atoms: S_19  and  N_22
REMARK                            x       y       z     vdW  Elec       q    Type
REMARK                         _______ _______ _______ _____ _____    ______ ____
ROOT
ATOM      1  C   UNL     1      -1.484  -0.885   1.670  0.00  0.00    -0.066 C 
ATOM      2  C   UNL     1      -0.385  -1.417   2.593  0.00  0.00    +0.004 C 
ATOM      3  C   UNL     1      -0.184  -2.913   2.331  0.00  0.00    +0.106 C 
ATOM      4  N   UNL     1      -1.476  -3.597   2.476  0.00  0.00    -0.297 N 
ATOM      5  C   UNL     1      -2.625  -3.107   1.702  0.00  0.00    +0.106 C 
ATOM      6  C   UNL     1      -2.799  -1.609   1.970  0.00  0.00    +0.004 C 
ATOM      7  C   UNL     1      -1.605  -4.652   3.304  0.00  0.00    +0.254 C 
ATOM      8  O   UNL     1      -0.667  -5.002   3.995  0.00  0.00    -0.269 OA
ENDROOT
BRANCH   7   9
ATOM      9  C   UNL     1      -2.877  -5.380   3.371  0.00  0.00    +0.079 A 
ATOM     10  C   UNL     1      -3.439  -6.059   4.441  0.00  0.00    -0.029 A 
ATOM     11  C   UNL     1      -4.656  -6.650   4.199  0.00  0.00    +0.040 A 
ATOM     12  C   UNL     1      -5.212  -6.534   2.968  0.00  0.00    +0.143 A 
ATOM     13  S   UNL     1      -4.106  -5.614   2.101  0.00  0.00    -0.064 S 
ATOM     14  C   UNL     1      -2.760  -6.144   5.783  0.00  0.00    +0.045 C 
BRANCH  12  15
ATOM     15  S   UNL     1      -6.748  -7.192   2.407  0.00  0.00    +0.062 S 
ATOM     16  O   UNL     1      -6.648  -7.309   0.995  0.00  0.00    -0.153 OA
ATOM     17  O   UNL     1      -7.044  -8.301   3.244  0.00  0.00    -0.153 OA
BRANCH  15  18
ATOM     18  N   UNL     1      -7.908  -6.049   2.707  0.00  0.00    -0.203 NA
ATOM     19  H   UNL     1      -7.664  -5.207   3.122  0.00  0.00    +0.144 HD
ATOM     20  H   UNL     1      -8.832  -6.222   2.468  0.00  0.00    +0.144 HD
ENDBRANCH  15  18
ENDBRANCH  12  15
ENDBRANCH   7   9
BRANCH   1  21
ATOM     21  N   UNL     1      -1.657   0.556   1.895  0.00  0.00    +0.381 N 
ATOM     22  H   UNL     1      -1.918   0.718   2.856  0.00  0.00    -0.081 HD
BRANCH  21  24
ATOM     23  C   UNL     1      -0.528   2.727   1.987  0.00  0.00    -0.017 C 
ATOM     24  C   UNL     1      -0.395   1.251   1.607  0.00  0.00    -0.082 C 
ENDBRANCH  21  24
BRANCH  21  25
ATOM     25  C   UNL     1      -2.711   1.067   1.008  0.00  0.00    -0.082 C 
ATOM     26  C   UNL     1      -2.331   0.790  -0.448  0.00  0.00    -0.017 C 
ENDBRANCH  21  25
ENDBRANCH   1  21
TORSDOF 6
