REMARK  Name = ZINC08817835
REMARK  8 active torsions:
REMARK  status: ('A' for Active; 'I' for Inactive)
REMARK    1  A    between atoms: C_1  and  C_2
REMARK    2  A    between atoms: C_2  and  C_4
REMARK    3  A    between atoms: C_10  and  C_41
REMARK    4  A    between atoms: N_22  and  O_23
REMARK    5  A    between atoms: O_23  and  C_24
REMARK    6  A    between atoms: C_24  and  C_25
REMARK    7  A    between atoms: N_27  and  C_28
REMARK    8  A    between atoms: C_39  and  C_40
REMARK                            x       y       z     vdW  Elec       q    Type
REMARK                         _______ _______ _______ _____ _____    ______ ____
ROOT
ATOM      1  C   UNL     1      -6.937   8.134 -11.680  0.00  0.00    +0.061 C 
ATOM      2  C   UNL     1      -5.737   7.253 -12.084  0.00  0.00    +0.012 C 
ATOM      3  C   UNL     1      -4.524   7.771 -11.280  0.00  0.00    +0.005 C 
ATOM      4  C   UNL     1      -5.166   8.458 -10.037  0.00  0.00    -0.001 C 
ATOM      5  C   UNL     1      -6.392   9.145 -10.663  0.00  0.00    -0.019 C 
ATOM      6  C   UNL     1      -7.425   9.552  -9.636  0.00  0.00    +0.008 C 
ATOM      7  C   UNL     1      -7.831   8.363  -8.769  0.00  0.00    +0.005 C 
ATOM      8  C   UNL     1      -6.585   7.831  -8.049  0.00  0.00    +0.002 C 
ATOM      9  C   UNL     1      -5.588   7.332  -9.089  0.00  0.00    -0.003 C 
ATOM     10  C   UNL     1      -4.334   6.798  -8.386  0.00  0.00    +0.008 C 
ATOM     11  C   UNL     1      -4.706   5.579  -7.540  0.00  0.00    +0.031 C 
ATOM     12  C   UNL     1      -5.816   5.975  -6.584  0.00  0.00    -0.062 C 
ATOM     13  C   UNL     1      -5.670   5.667  -5.303  0.00  0.00    +0.026 C 
ATOM     14  C   UNL     1      -6.737   5.989  -4.338  0.00  0.00    +0.080 C 
ATOM     15  N   UNL     1      -6.504   6.072  -3.067  0.00  0.00    -0.089 NA
ATOM     16  C   UNL     1      -8.119   6.226  -4.914  0.00  0.00    +0.059 C 
ATOM     17  C   UNL     1      -7.968   7.205  -6.077  0.00  0.00    +0.017 C 
ATOM     18  C   UNL     1      -7.018   6.676  -7.136  0.00  0.00    -0.007 C 
ATOM     19  C   UNL     1      -7.788   5.678  -8.004  0.00  0.00    +0.016 C 
ATOM     20  C   UNL     1      -5.933  10.401 -11.406  0.00  0.00    +0.012 C 
ENDROOT
BRANCH   1  22
ATOM     21  C   UNL     1      -9.439   7.774 -11.030  0.00  0.00    +0.086 C 
ATOM     22  C   UNL     1      -8.012   7.289 -11.048  0.00  0.00    +0.134 C 
ATOM     23  O   UNL     1      -7.731   6.222 -10.557  0.00  0.00    -0.297 OA
ENDBRANCH   1  22
BRANCH  15  24
ATOM     24  O   UNL     1      -5.198   5.843  -2.570  0.00  0.00    -0.384 OA
BRANCH  24  25
ATOM     25  C   UNL     1      -5.086   5.967  -1.150  0.00  0.00    +0.358 C 
BRANCH  25  26
ATOM     26  C   UNL     1      -3.662   5.705  -0.734  0.00  0.00    +0.254 C 
ATOM     27  O   UNL     1      -2.825   5.439  -1.570  0.00  0.00    -0.272 OA
ATOM     28  N   UNL     1      -3.318   5.767   0.568  0.00  0.00    -0.301 N 
ATOM     29  H   UNL     1      -3.988   5.980   1.237  0.00  0.00    +0.150 HD
BRANCH  28  30
ATOM     30  C   UNL     1      -1.934   5.512   0.973  0.00  0.00    +0.159 C 
ATOM     31  C   UNL     1      -1.649   6.216   2.302  0.00  0.00    +0.032 C 
ATOM     32  C   UNL     1      -0.166   6.501   2.453  0.00  0.00    +0.004 C 
ATOM     33  C   UNL     1       0.687   5.253   2.592  0.00  0.00    +0.019 C 
ATOM     34  C   UNL     1       0.677   4.439   1.297  0.00  0.00    +0.104 C 
ATOM     35  N   UNL     1      -0.487   3.539   1.315  0.00  0.00    -0.314 N 
ATOM     36  C   UNL     1      -1.719   4.025   1.156  0.00  0.00    +0.233 C 
ATOM     37  O   UNL     1      -2.671   3.273   1.163  0.00  0.00    -0.274 OA
ATOM     38  H   UNL     1      -0.358   2.585   1.439  0.00  0.00    +0.149 HD
ENDBRANCH  28  30
ENDBRANCH  25  26
ENDBRANCH  24  25
ENDBRANCH  15  24
TORSDOF 5
