REMARK  Name = ZINC39609124
REMARK  6 active torsions:
REMARK  status: ('A' for Active; 'I' for Inactive)
REMARK    1  A    between atoms: C_4  and  C_7
REMARK    2  A    between atoms: C_7  and  O_8
REMARK    3  A    between atoms: O_8  and  C_9
REMARK    4  A    between atoms: C_14  and  N_16
REMARK    5  A    between atoms: C_17  and  C_19
REMARK    6  A    between atoms: C_30  and  C_32
REMARK                            x       y       z     vdW  Elec       q    Type
REMARK                         _______ _______ _______ _____ _____    ______ ____
ROOT
ATOM      1  C   UNL     1       9.372   0.766   2.902  0.00  0.00    +0.100 C 
ATOM      2  C   UNL     1      10.455  -0.336   2.929  0.00  0.00    +0.121 C 
ATOM      3  N   UNL     1      11.647   0.326   3.510  0.00  0.00    -0.295 N 
ATOM      4  C   UNL     1      11.102   1.194   4.581  0.00  0.00    +0.115 C 
ATOM      5  C   UNL     1       9.800   1.768   3.988  0.00  0.00    -0.004 C 
ATOM      6  C   UNL     1       8.728   1.867   5.068  0.00  0.00    -0.010 C 
ATOM      7  C   UNL     1       9.149   2.911   6.106  0.00  0.00    -0.082 C 
ATOM      8  N   UNL     1       9.331   4.211   5.448  0.00  0.00    +0.379 N 
ATOM      9  C   UNL     1      10.428   4.131   4.476  0.00  0.00    -0.082 C 
ATOM     10  C   UNL     1      10.060   3.138   3.369  0.00  0.00    -0.010 C 
ATOM     11  C   UNL     1      12.936   0.172   3.146  0.00  0.00    +0.265 C 
ATOM     12  O   UNL     1      13.815   0.725   3.777  0.00  0.00    -0.268 OA
ATOM     13  H   UNL     1       8.479   4.468   4.972  0.00  0.00    -0.086 HD
ATOM     14  H   UNL     1       9.549   4.910   6.142  0.00  0.00    -0.086 HD
ENDROOT
BRANCH  11  15
ATOM     15  C   UNL     1      13.281  -0.670   1.976  0.00  0.00    +0.126 A 
ATOM     16  C   UNL     1      14.630  -0.912   1.679  0.00  0.00    +0.033 A 
ATOM     17  C   UNL     1      14.961  -1.686   0.605  0.00  0.00    +0.012 A 
ATOM     18  C   UNL     1      13.920  -2.221  -0.176  0.00  0.00    +0.000 A 
ATOM     19  C   UNL     1      14.187  -3.027  -1.295  0.00  0.00    +0.010 A 
ATOM     20  C   UNL     1      13.155  -3.528  -2.027  0.00  0.00    +0.001 A 
ATOM     21  C   UNL     1      11.832  -3.252  -1.682  0.00  0.00    +0.002 A 
ATOM     22  C   UNL     1      11.534  -2.476  -0.605  0.00  0.00    +0.028 A 
ATOM     23  C   UNL     1      12.575  -1.939   0.178  0.00  0.00    +0.072 A 
ATOM     24  N   UNL     1      12.312  -1.180   1.241  0.00  0.00    -0.242 NA
ENDBRANCH  11  15
BRANCH   1  26
ATOM     25  N   UNL     1       6.900   0.835   2.864  0.00  0.00    -0.310 N 
ATOM     26  C   UNL     1       8.022   0.183   3.229  0.00  0.00    +0.218 C 
ATOM     27  O   UNL     1       7.944  -0.872   3.821  0.00  0.00    -0.275 OA
ATOM     28  H   UNL     1       6.962   1.679   2.390  0.00  0.00    +0.149 HD
BRANCH  25  33
ATOM     29  C   UNL     1       4.533   1.387   3.255  0.00  0.00    +0.139 C 
ATOM     30  C   UNL     1       3.480   1.074   2.173  0.00  0.00    +0.033 C 
ATOM     31  C   UNL     1       4.237   0.190   1.151  0.00  0.00    +0.004 C 
ATOM     32  C   UNL     1       5.136  -0.688   2.057  0.00  0.00    +0.025 C 
ATOM     33  C   UNL     1       5.587   0.268   3.182  0.00  0.00    +0.102 C 
BRANCH  29  34
ATOM     34  O   UNL     1       3.920   1.399   4.546  0.00  0.00    -0.370 OA
BRANCH  34  35
ATOM     35  C   UNL     1       3.466   2.688   4.962  0.00  0.00    +0.195 C 
BRANCH  35  39
ATOM     36  C   UNL     1       1.691   2.393   8.836  0.00  0.00    +0.000 A 
ATOM     37  C   UNL     1       3.043   2.652   8.714  0.00  0.00    +0.000 A 
ATOM     38  C   UNL     1       3.618   2.748   7.460  0.00  0.00    +0.006 A 
ATOM     39  C   UNL     1       2.840   2.583   6.329  0.00  0.00    -0.022 A 
ATOM     40  C   UNL     1       1.488   2.323   6.452  0.00  0.00    +0.006 A 
ATOM     41  C   UNL     1       0.913   2.229   7.705  0.00  0.00    +0.000 A 
ENDBRANCH  35  39
ENDBRANCH  34  35
ENDBRANCH  29  34
ENDBRANCH  25  33
ENDBRANCH   1  26
TORSDOF 6
