REMARK  Name = ZINC17244900
REMARK  7 active torsions:
REMARK  status: ('A' for Active; 'I' for Inactive)
REMARK    1  A    between atoms: C_1  and  C_2
REMARK    2  A    between atoms: C_5  and  C_35
REMARK    3  A    between atoms: N_8  and  S_10
REMARK    4  A    between atoms: S_10  and  C_13
REMARK    5  A    between atoms: C_16  and  C_19
REMARK    6  A    between atoms: C_27  and  N_31
REMARK    7  A    between atoms: C_32  and  C_34
REMARK                            x       y       z     vdW  Elec       q    Type
REMARK                         _______ _______ _______ _____ _____    ______ ____
ROOT
ATOM      1  C   UNL     1      -2.807   4.284   7.669  0.00  0.00    +0.250 C 
ATOM      2  O   UNL     1      -3.883   4.809   7.462  0.00  0.00    -0.270 OA
ATOM      3  N   UNL     1      -2.082   4.636   8.749  0.00  0.00    -0.261 N 
ATOM      4  C   UNL     1      -2.564   5.595   9.623  0.00  0.00    +0.166 A 
ATOM      5  N   UNL     1      -3.690   6.266   9.570  0.00  0.00    -0.225 NA
ATOM      6  C   UNL     1      -4.035   7.183  10.501  0.00  0.00    +0.080 A 
ATOM      7  C   UNL     1      -5.210   7.968  10.560  0.00  0.00    +0.031 A 
ATOM      8  C   UNL     1      -5.410   8.853  11.573  0.00  0.00    +0.025 A 
ATOM      9  C   UNL     1      -4.472   9.022  12.589  0.00  0.00    +0.035 A 
ATOM     10  C   UNL     1      -3.305   8.269  12.566  0.00  0.00    +0.040 A 
ATOM     11  C   UNL     1      -3.101   7.375  11.545  0.00  0.00    +0.043 A 
ATOM     12  S   UNL     1      -1.813   6.229  11.116  0.00  0.00    -0.052 S 
ATOM     13  H   UNL     1      -1.108   4.160   8.936  0.00  0.00    +0.157 HD
ENDROOT
BRANCH   1  17
ATOM     14  C   UNL     1      -1.331   1.339   4.987  0.00  0.00    +0.106 A 
ATOM     15  C   UNL     1      -0.586   1.694   6.099  0.00  0.00    +0.029 A 
ATOM     16  C   UNL     1      -1.057   2.654   6.970  0.00  0.00    +0.015 A 
ATOM     17  C   UNL     1      -2.293   3.260   6.735  0.00  0.00    +0.037 A 
ATOM     18  C   UNL     1      -3.041   2.893   5.615  0.00  0.00    +0.015 A 
ATOM     19  C   UNL     1      -2.556   1.936   4.748  0.00  0.00    +0.029 A 
BRANCH  14  20
ATOM     20  S   UNL     1      -0.718   0.117   3.876  0.00  0.00    +0.061 S 
ATOM     21  O   UNL     1      -1.849  -0.434   3.215  0.00  0.00    -0.153 OA
ATOM     22  O   UNL     1       0.197  -0.681   4.613  0.00  0.00    -0.153 OA
BRANCH  20  28
ATOM     23  C   UNL     1       3.840   0.944   1.801  0.00  0.00    +0.009 C 
ATOM     24  C   UNL     1       2.355   0.593   1.687  0.00  0.00    +0.002 C 
ATOM     25  C   UNL     1       1.778   1.220   0.416  0.00  0.00    +0.009 C 
ATOM     26  C   UNL     1       0.301   0.841   0.284  0.00  0.00    +0.002 C 
ATOM     27  C   UNL     1      -0.472   1.389   1.488  0.00  0.00    +0.112 C 
ATOM     28  N   UNL     1       0.167   0.907   2.720  0.00  0.00    -0.176 NA
ATOM     29  C   UNL     1       1.606   1.138   2.907  0.00  0.00    +0.112 C 
ATOM     30  C   UNL     1      -0.266   1.440  -1.004  0.00  0.00    +0.009 C 
ENDBRANCH  20  28
ENDBRANCH  14  20
ENDBRANCH   1  17
BRANCH   9  31
ATOM     31  N   UNL     1      -4.703   9.941  13.621  0.00  0.00    -0.286 N 
ATOM     32  C   UNL     1      -3.669  10.596  14.184  0.00  0.00    +0.214 C 
ATOM     33  O   UNL     1      -2.550  10.463  13.735  0.00  0.00    -0.276 OA
ATOM     34  C   UNL     1      -3.902  11.493  15.372  0.00  0.00    +0.109 C 
ATOM     35  H   UNL     1      -5.729  10.127  13.972  0.00  0.00    +0.155 HD
ENDBRANCH   9  31
TORSDOF 4
