REMARK  Name = ZINC19776244
REMARK  3 active torsions:
REMARK  status: ('A' for Active; 'I' for Inactive)
REMARK    1  A    between atoms: C_6  and  C_7
REMARK    2  A    between atoms: C_7  and  C_9
REMARK    3  A    between atoms: C_13  and  N_14
REMARK                            x       y       z     vdW  Elec       q    Type
REMARK                         _______ _______ _______ _____ _____    ______ ____
ROOT
ATOM      1  C   UNL     1       1.161   3.570   0.009  0.00  0.00    +0.196 C 
ATOM      2  O   UNL     1       2.203   4.194   0.089  0.00  0.00    -0.287 OA
ENDROOT
BRANCH   1   8
ATOM      3  C   UNL     1      -0.016   1.375   0.031  0.00  0.00    +0.015 A 
ATOM      4  C   UNL     1       0.002  -0.003   0.030  0.00  0.00    +0.048 A 
ATOM      5  C   UNL     1       1.211  -0.682   0.006  0.00  0.00    +0.142 A 
ATOM      6  C   UNL     1       2.413   0.029  -0.016  0.00  0.00    +0.076 A 
ATOM      7  C   UNL     1       2.402   1.410  -0.014  0.00  0.00    +0.038 A 
ATOM      8  C   UNL     1       1.182   2.092   0.009  0.00  0.00    +0.024 A 
ATOM      9  N   UNL     1       3.626  -0.675  -0.039  0.00  0.00    -0.280 N 
ATOM     10  C   UNL     1       3.614  -1.988  -0.356  0.00  0.00    +0.255 C 
ATOM     11  O   UNL     1       4.646  -2.624  -0.354  0.00  0.00    -0.272 OA
ATOM     12  C   UNL     1       2.312  -2.658  -0.715  0.00  0.00    +0.325 C 
ATOM     13  O   UNL     1       1.240  -2.040   0.002  0.00  0.00    -0.481 OA
ATOM     14  H   UNL     1       4.567  -0.158   0.200  0.00  0.00    +0.155 HD
ENDBRANCH   1   8
BRANCH   1  15
ATOM     15  C   UNL     1      -0.114   4.283  -0.087  0.00  0.00    +0.054 A 
ATOM     16  C   UNL     1      -0.820   4.741   1.111  0.00  0.00    -0.025 A 
ATOM     17  C   UNL     1      -1.979   5.381   0.881  0.00  0.00    -0.005 A 
ATOM     18  S   UNL     1      -2.150   5.390  -0.887  0.00  0.00    -0.078 S 
ATOM     19  C   UNL     1      -0.696   4.556  -1.317  0.00  0.00    +0.074 A 
ATOM     20  C   UNL     1      -2.645   5.818   2.158  0.00  0.00    +0.043 C 
ATOM     21  C   UNL     1      -1.956   4.985   3.261  0.00  0.00    +0.010 C 
ATOM     22  C   UNL     1      -0.585   4.691   2.621  0.00  0.00    +0.037 C 
BRANCH  19  23
ATOM     23  N   UNL     1      -0.230   4.237  -2.577  0.00  0.00    -0.352 N 
ATOM     24  H   UNL     1      -0.810   4.524  -3.467  0.00  0.00    +0.143 HD
ATOM     25  H   UNL     1       0.721   3.697  -2.691  0.00  0.00    +0.143 HD
ENDBRANCH  19  23
ENDBRANCH   1  15
TORSDOF 3
