REMARK  Name = ZINC33310230
REMARK  6 active torsions:
REMARK  status: ('A' for Active; 'I' for Inactive)
REMARK    1  A    between atoms: C_1  and  C_2
REMARK    2  A    between atoms: C_2  and  N_3
REMARK    3  A    between atoms: C_4  and  C_6
REMARK    4  A    between atoms: N_15  and  C_16
REMARK    5  A    between atoms: C_19  and  N_22
REMARK    6  A    between atoms: N_25  and  C_26
REMARK                            x       y       z     vdW  Elec       q    Type
REMARK                         _______ _______ _______ _____ _____    ______ ____
ROOT
ATOM      1  C   UNL     1      -5.364  -3.958   1.895  0.00  0.00    +0.035 A 
ATOM      2  C   UNL     1      -4.218  -4.741   1.853  0.00  0.00    +0.025 A 
ATOM      3  C   UNL     1      -4.305  -6.103   2.061  0.00  0.00    +0.025 A 
ATOM      4  C   UNL     1      -5.539  -6.691   2.300  0.00  0.00    +0.035 A 
ATOM      5  C   UNL     1      -6.686  -5.909   2.337  0.00  0.00    +0.025 A 
ATOM      6  C   UNL     1      -6.598  -4.546   2.135  0.00  0.00    +0.025 A 
ENDROOT
BRANCH   1  15
ATOM      7  C   UNL     1      -3.657   0.831  -1.029  0.00  0.00    +0.092 C 
ATOM      8  C   UNL     1      -4.456   1.879  -0.252  0.00  0.00    +0.016 C 
ATOM      9  C   UNL     1      -5.611   1.198   0.487  0.00  0.00    +0.020 C 
ATOM     10  C   UNL     1      -5.046   0.183   1.485  0.00  0.00    +0.109 C 
ATOM     11  N   UNL     1      -4.160  -0.743   0.767  0.00  0.00    -0.285 N 
ATOM     12  C   UNL     1      -3.070  -0.189  -0.048  0.00  0.00    +0.122 C 
ATOM     13  C   UNL     1      -4.343  -2.075   0.854  0.00  0.00    +0.306 C 
ATOM     14  O   UNL     1      -3.668  -2.828   0.178  0.00  0.00    -0.252 OA
ATOM     15  N   UNL     1      -5.275  -2.574   1.690  0.00  0.00    -0.269 N 
ATOM     16  H   UNL     1      -5.966  -1.895   2.211  0.00  0.00    +0.156 HD
BRANCH   7  18
ATOM     17  N   UNL     1      -1.698   0.774  -2.538  0.00  0.00    -0.315 N 
ATOM     18  C   UNL     1      -2.539   1.506  -1.781  0.00  0.00    +0.218 C 
ATOM     19  O   UNL     1      -2.398   2.708  -1.706  0.00  0.00    -0.275 OA
ATOM     20  H   UNL     1      -1.824  -0.317  -2.602  0.00  0.00    +0.149 HD
BRANCH  17  22
ATOM     21  C   UNL     1       0.182   0.383  -4.052  0.00  0.00    +0.024 C 
ATOM     22  C   UNL     1      -0.615   1.431  -3.274  0.00  0.00    +0.101 C 
ENDBRANCH  17  22
ENDBRANCH   7  18
ENDBRANCH   1  15
BRANCH   4  23
ATOM     23  N   UNL     1      -5.628  -8.075   2.506  0.00  0.00    -0.269 N 
ATOM     24  C   UNL     1      -4.634  -8.727   3.141  0.00  0.00    +0.308 C 
ATOM     25  O   UNL     1      -3.714  -8.102   3.633  0.00  0.00    -0.252 OA
ATOM     26  N   UNL     1      -4.659 -10.071   3.229  0.00  0.00    -0.269 N 
ATOM     27  H   UNL     1      -6.509  -8.628   2.150  0.00  0.00    +0.156 HD
ATOM     28  H   UNL     1      -5.439 -10.643   2.706  0.00  0.00    +0.156 HD
BRANCH  26  29
ATOM     29  C   UNL     1      -3.691 -10.741   3.987  0.00  0.00    +0.035 A 
ATOM     30  C   UNL     1      -3.256 -12.002   3.602  0.00  0.00    +0.023 A 
ATOM     31  C   UNL     1      -2.298 -12.658   4.350  0.00  0.00    +0.002 A 
ATOM     32  C   UNL     1      -1.779 -12.064   5.486  0.00  0.00    +0.000 A 
ATOM     33  C   UNL     1      -2.214 -10.810   5.874  0.00  0.00    +0.002 A 
ATOM     34  C   UNL     1      -3.168 -10.147   5.128  0.00  0.00    +0.023 A 
ENDBRANCH  26  29
ENDBRANCH   4  23
TORSDOF 5
