REMARK  Name = ZINC08733841
REMARK  4 active torsions:
REMARK  status: ('A' for Active; 'I' for Inactive)
REMARK    1  A    between atoms: C_1  and  C_2
REMARK    2  A    between atoms: C_7  and  C_12
REMARK    3  A    between atoms: N_14  and  C_15
REMARK    4  A    between atoms: C_16  and  C_20
REMARK                            x       y       z     vdW  Elec       q    Type
REMARK                         _______ _______ _______ _____ _____    ______ ____
ROOT
ATOM      1  C   UNL     1      -2.332  -0.401   0.023  0.00  0.00    +0.249 C 
ATOM      2  O   UNL     1      -2.526   0.800   0.031  0.00  0.00    -0.270 OA
ATOM      3  N   UNL     1      -1.072  -0.879   0.008  0.00  0.00    -0.275 N 
ATOM      4  H   UNL     1      -0.917  -1.837   0.001  0.00  0.00    +0.156 HD
ENDROOT
BRANCH   1  10
ATOM      5  C   UNL     1      -9.030   0.186   0.210  0.00  0.00    +0.008 C 
ATOM      6  C   UNL     1      -7.559  -0.142   0.472  0.00  0.00    -0.009 C 
ATOM      7  C   UNL     1      -6.670   0.780  -0.368  0.00  0.00    +0.008 C 
ATOM      8  C   UNL     1      -5.211   0.636   0.068  0.00  0.00    +0.037 C 
ATOM      9  C   UNL     1      -4.838  -0.841   0.050  0.00  0.00    -0.025 A 
ATOM     10  C   UNL     1      -3.472  -1.330   0.029  0.00  0.00    +0.047 A 
ATOM     11  C   UNL     1      -3.278  -2.694   0.019  0.00  0.00    +0.058 A 
ATOM     12  S   UNL     1      -4.892  -3.325   0.031  0.00  0.00    -0.101 S 
ATOM     13  C   UNL     1      -5.792  -1.800   0.049  0.00  0.00    -0.006 A 
ATOM     14  C   UNL     1      -7.275  -1.599   0.065  0.00  0.00    +0.046 C 
ENDBRANCH   1  10
BRANCH   3  15
ATOM     15  C   UNL     1       0.002  -0.004   0.002  0.00  0.00    +0.084 A 
ATOM     16  C   UNL     1       1.360  -0.303  -0.013  0.00  0.00    +0.065 A 
ATOM     17  C   UNL     1       2.271   0.817  -0.015  0.00  0.00    +0.022 A 
ATOM     18  C   UNL     1       1.730   2.049  -0.004  0.00  0.00    +0.048 A 
ATOM     19  S   UNL     1      -0.021   1.727   0.011  0.00  0.00    -0.081 S 
BRANCH  16  20
ATOM     20  C   UNL     1       1.843  -1.687  -0.025  0.00  0.00    +0.244 C 
ATOM     21  O   UNL     1       1.048  -2.609  -0.023  0.00  0.00    -0.270 OA
ATOM     22  N   UNL     1       3.166  -1.939  -0.039  0.00  0.00    -0.325 N 
ATOM     23  H   UNL     1       3.800  -1.204  -0.041  0.00  0.00    +0.145 HD
ATOM     24  H   UNL     1       3.486  -2.855  -0.047  0.00  0.00    +0.145 HD
ENDBRANCH  16  20
ENDBRANCH   3  15
TORSDOF 3
