REMARK  Name = ZINC44854146
REMARK  8 active torsions:
REMARK  status: ('A' for Active; 'I' for Inactive)
REMARK    1  A    between atoms: C_1  and  C_2
REMARK    2  A    between atoms: N_5  and  C_8
REMARK    3  A    between atoms: C_11  and  C_14
REMARK    4  A    between atoms: C_14  and  C_16
REMARK    5  A    between atoms: C_14  and  N_17
REMARK    6  A    between atoms: C_18  and  C_20
REMARK    7  A    between atoms: N_25  and  C_27
REMARK    8  A    between atoms: C_27  and  C_28
REMARK                            x       y       z     vdW  Elec       q    Type
REMARK                         _______ _______ _______ _____ _____    ______ ____
ROOT
ATOM      1  N   UNL     1      -2.079  -6.090   6.085  0.00  0.00    -0.309 N 
ATOM      2  C   UNL     1      -2.755  -6.492   7.179  0.00  0.00    +0.215 C 
ATOM      3  O   UNL     1      -3.809  -7.079   7.059  0.00  0.00    -0.276 OA
ATOM      4  H   UNL     1      -1.236  -5.621   6.181  0.00  0.00    +0.149 HD
ENDROOT
BRANCH   2   5
ATOM      5  C   UNL     1      -2.202  -6.211   8.552  0.00  0.00    +0.058 C 
ATOM      6  C   UNL     1      -0.833  -6.882   8.699  0.00  0.00    +0.009 C 
ATOM      7  C   UNL     1      -0.315  -6.656  10.123  0.00  0.00    -0.018 C 
ATOM      8  C   UNL     1      -1.338  -7.199  11.123  0.00  0.00    -0.078 C 
ATOM      9  N   UNL     1      -2.617  -6.499  10.950  0.00  0.00    +0.383 N 
ATOM     10  C   UNL     1      -3.155  -6.768   9.611  0.00  0.00    -0.066 C 
ATOM     11  H   UNL     1      -2.473  -5.506  11.059  0.00  0.00    -0.081 HD
BRANCH   9  12
ATOM     12  C   UNL     1      -3.571  -6.968  11.963  0.00  0.00    -0.042 C 
BRANCH  12  13
ATOM     13  C   UNL     1      -3.083  -6.573  13.334  0.00  0.00    -0.056 A 
ATOM     14  C   UNL     1      -2.442  -7.482  14.119  0.00  0.00    +0.002 A 
ATOM     15  C   UNL     1      -1.984  -7.136  15.389  0.00  0.00    +0.001 A 
ATOM     16  C   UNL     1      -2.164  -5.879  15.880  0.00  0.00    +0.008 A 
ATOM     17  C   UNL     1      -2.821  -4.914  15.098  0.00  0.00    -0.018 A 
ATOM     18  C   UNL     1      -3.282  -5.264  13.804  0.00  0.00    -0.017 A 
ATOM     19  C   UNL     1      -3.934  -4.298  13.020  0.00  0.00    +0.009 A 
ATOM     20  C   UNL     1      -4.109  -3.040  13.509  0.00  0.00    +0.001 A 
ATOM     21  C   UNL     1      -3.650  -2.693  14.779  0.00  0.00    +0.001 A 
ATOM     22  C   UNL     1      -3.026  -3.607  15.572  0.00  0.00    +0.008 A 
ENDBRANCH  12  13
ENDBRANCH   9  12
ENDBRANCH   2   5
BRANCH   1  23
ATOM     23  C   UNL     1      -2.617  -6.364   4.750  0.00  0.00    +0.100 C 
ATOM     24  C   UNL     1      -2.202  -7.770   4.311  0.00  0.00    +0.033 C 
BRANCH  23  28
ATOM     25  C   UNL     1      -1.080  -3.494   1.980  0.00  0.00    +0.030 A 
ATOM     26  C   UNL     1      -2.407  -3.899   1.899  0.00  0.00    +0.023 A 
ATOM     27  C   UNL     1      -2.900  -4.827   2.795  0.00  0.00    +0.007 A 
ATOM     28  C   UNL     1      -2.075  -5.352   3.773  0.00  0.00    -0.027 A 
ATOM     29  C   UNL     1      -0.754  -4.952   3.856  0.00  0.00    +0.007 A 
ATOM     30  C   UNL     1      -0.253  -4.028   2.960  0.00  0.00    +0.023 A 
BRANCH  25  35
ATOM     31  C   UNL     1      -0.045   1.525  -0.005  0.00  0.00    +0.007 C 
ATOM     32  C   UNL     1      -0.011  -0.004  -0.005  0.00  0.00    -0.011 C 
ATOM     33  C   UNL     1      -1.442  -0.546  -0.007  0.00  0.00    +0.022 C 
ATOM     34  C   UNL     1      -1.404  -2.077  -0.042  0.00  0.00    +0.105 C 
ATOM     35  N   UNL     1      -0.578  -2.556   1.075  0.00  0.00    -0.330 N 
ATOM     36  C   UNL     1       0.785  -2.029   1.222  0.00  0.00    +0.105 C 
ATOM     37  C   UNL     1       0.723  -0.498   1.244  0.00  0.00    +0.022 C 
ENDBRANCH  25  35
ENDBRANCH  23  28
ENDBRANCH   1  23
TORSDOF 6
