REMARK  Name = ZINC40406545
REMARK  8 active torsions:
REMARK  status: ('A' for Active; 'I' for Inactive)
REMARK    1  A    between atoms: C_4  and  C_7
REMARK    2  A    between atoms: C_7  and  C_8
REMARK    3  A    between atoms: N_10  and  C_11
REMARK    4  A    between atoms: C_15  and  C_17
REMARK    5  A    between atoms: C_19  and  C_32
REMARK    6  A    between atoms: N_21  and  C_25
REMARK    7  A    between atoms: C_25  and  C_26
REMARK    8  A    between atoms: N_34  and  C_35
REMARK                            x       y       z     vdW  Elec       q    Type
REMARK                         _______ _______ _______ _____ _____    ______ ____
ROOT
ATOM      1  C   UNL     1       8.943  -3.187   4.544  0.00  0.00    +0.238 C 
ATOM      2  C   UNL     1       8.802  -4.689   4.885  0.00  0.00    +0.211 C 
ATOM      3  N   UNL     1       9.874  -4.886   5.880  0.00  0.00    -0.248 N 
ATOM      4  C   UNL     1      10.276  -3.670   6.296  0.00  0.00    +0.405 C 
ATOM      5  O   UNL     1      11.170  -3.495   7.099  0.00  0.00    -0.226 OA
ATOM      6  O   UNL     1       9.582  -2.668   5.726  0.00  0.00    -0.440 OA
ENDROOT
BRANCH   1  11
ATOM      7  C   UNL     1       5.848  -1.796   2.878  0.00  0.00    +0.034 A 
ATOM      8  C   UNL     1       5.107  -1.383   3.977  0.00  0.00    +0.023 A 
ATOM      9  C   UNL     1       5.610  -1.556   5.252  0.00  0.00    +0.002 A 
ATOM     10  C   UNL     1       6.851  -2.140   5.434  0.00  0.00    +0.007 A 
ATOM     11  C   UNL     1       7.591  -2.552   4.341  0.00  0.00    -0.003 A 
ATOM     12  C   UNL     1       7.091  -2.388   3.064  0.00  0.00    +0.030 A 
BRANCH   7  15
ATOM     13  C   UNL     1       4.602  -0.535   1.292  0.00  0.00    +0.222 C 
ATOM     14  O   UNL     1       4.304   0.250   2.167  0.00  0.00    -0.275 OA
ATOM     15  N   UNL     1       5.341  -1.623   1.585  0.00  0.00    -0.285 N 
ATOM     16  H   UNL     1       5.523  -2.285   0.900  0.00  0.00    +0.155 HD
BRANCH  13  17
ATOM     17  C   UNL     1       4.144  -0.294  -0.123  0.00  0.00    +0.131 C 
BRANCH  17  21
ATOM     18  C   UNL     1       1.865   3.315  -0.290  0.00  0.00    +0.000 A 
ATOM     19  C   UNL     1       3.233   3.353  -0.480  0.00  0.00    +0.000 A 
ATOM     20  C   UNL     1       3.971   2.185  -0.426  0.00  0.00    +0.004 A 
ATOM     21  C   UNL     1       3.340   0.979  -0.181  0.00  0.00    -0.039 A 
ATOM     22  C   UNL     1       1.971   0.942   0.009  0.00  0.00    +0.004 A 
ATOM     23  C   UNL     1       1.234   2.110  -0.047  0.00  0.00    +0.000 A 
ENDBRANCH  17  21
ENDBRANCH  13  17
ENDBRANCH   7  15
ENDBRANCH   1  11
BRANCH   2  24
ATOM     24  C   UNL     1       7.449  -4.979   5.483  0.00  0.00    +0.242 C 
ATOM     25  O   UNL     1       7.329  -5.093   6.685  0.00  0.00    -0.273 OA
ATOM     26  N   UNL     1       6.373  -5.112   4.683  0.00  0.00    -0.284 N 
ATOM     27  H   UNL     1       6.479  -5.087   3.719  0.00  0.00    +0.155 HD
BRANCH  26  28
ATOM     28  C   UNL     1       5.102  -5.285   5.243  0.00  0.00    +0.033 A 
ATOM     29  C   UNL     1       3.988  -4.734   4.624  0.00  0.00    +0.023 A 
ATOM     30  C   UNL     1       2.735  -4.907   5.179  0.00  0.00    +0.002 A 
ATOM     31  C   UNL     1       2.590  -5.629   6.349  0.00  0.00    +0.000 A 
ATOM     32  C   UNL     1       3.697  -6.179   6.968  0.00  0.00    +0.002 A 
ATOM     33  C   UNL     1       4.952  -6.014   6.415  0.00  0.00    +0.023 A 
ENDBRANCH  26  28
ENDBRANCH   2  24
BRANCH   3  34
ATOM     34  C   UNL     1      10.406  -6.173   6.334  0.00  0.00    +0.147 C 
BRANCH  34  35
ATOM     35  C   UNL     1      11.559  -6.579   5.452  0.00  0.00    -0.030 A 
ATOM     36  C   UNL     1      11.327  -7.332   4.316  0.00  0.00    +0.005 A 
ATOM     37  C   UNL     1      12.384  -7.705   3.507  0.00  0.00    +0.000 A 
ATOM     38  C   UNL     1      13.672  -7.325   3.833  0.00  0.00    +0.000 A 
ATOM     39  C   UNL     1      13.903  -6.572   4.969  0.00  0.00    +0.000 A 
ATOM     40  C   UNL     1      12.846  -6.195   5.776  0.00  0.00    +0.005 A 
ENDBRANCH  34  35
ENDBRANCH   3  34
TORSDOF 8
