REMARK  Name = ZINC13131859
REMARK  5 active torsions:
REMARK  status: ('A' for Active; 'I' for Inactive)
REMARK    1  A    between atoms: C_1  and  C_2
REMARK    2  A    between atoms: C_2  and  C_3
REMARK    3  A    between atoms: C_6  and  C_9
REMARK    4  A    between atoms: C_12  and  C_21
REMARK    5  A    between atoms: C_26  and  C_27
REMARK                            x       y       z     vdW  Elec       q    Type
REMARK                         _______ _______ _______ _____ _____    ______ ____
ROOT
ATOM      1  C   UNL     1       2.949  -1.178   4.259  0.00  0.00    +0.106 C 
ATOM      2  C   UNL     1       3.182  -0.191   5.408  0.00  0.00    +0.058 C 
ATOM      3  C   UNL     1       3.868  -0.909   6.577  0.00  0.00    +0.143 C 
ATOM      4  N   UNL     1       3.140  -2.146   6.862  0.00  0.00    -0.224 N 
ATOM      5  C   UNL     1       2.294  -2.751   5.995  0.00  0.00    +0.216 A 
ATOM      6  N   UNL     1       1.819  -3.823   6.571  0.00  0.00    -0.180 NA
ATOM      7  C   UNL     1       2.339  -3.937   7.801  0.00  0.00    +0.233 A 
ATOM      8  N   UNL     1       3.154  -2.929   8.017  0.00  0.00    -0.132 NA
ATOM      9  N   UNL     1       2.060  -4.962   8.707  0.00  0.00    -0.326 N 
ATOM     10  N   UNL     1       2.042  -2.244   4.726  0.00  0.00    -0.307 N 
ATOM     11  H   UNL     1       1.443  -5.670   8.464  0.00  0.00    +0.145 HD
ATOM     12  H   UNL     1       2.482  -4.966   9.580  0.00  0.00    +0.145 HD
ATOM     13  H   UNL     1       1.309  -2.569   4.179  0.00  0.00    +0.149 HD
ENDROOT
BRANCH   3  14
ATOM     14  C   UNL     1       3.855  -0.021   7.794  0.00  0.00    -0.020 A 
ATOM     15  C   UNL     1       2.661   0.502   8.256  0.00  0.00    +0.006 A 
ATOM     16  C   UNL     1       2.650   1.317   9.372  0.00  0.00    +0.000 A 
ATOM     17  C   UNL     1       3.832   1.610  10.027  0.00  0.00    +0.000 A 
ATOM     18  C   UNL     1       5.025   1.087   9.565  0.00  0.00    +0.004 A 
ATOM     19  C   UNL     1       5.036   0.268   8.451  0.00  0.00    -0.045 A 
ATOM     20  C   UNL     1       6.337  -0.306   7.951  0.00  0.00    +0.044 C 
ENDBRANCH   3  14
BRANCH   1  24
ATOM     21  C   UNL     1       1.179   0.863   0.950  0.00  0.00    -0.048 A 
ATOM     22  C   UNL     1       2.534   0.591   0.950  0.00  0.00    +0.004 A 
ATOM     23  C   UNL     1       3.107  -0.069   2.020  0.00  0.00    +0.006 A 
ATOM     24  C   UNL     1       2.325  -0.457   3.092  0.00  0.00    -0.027 A 
ATOM     25  C   UNL     1       0.970  -0.184   3.093  0.00  0.00    +0.006 A 
ATOM     26  C   UNL     1       0.397   0.480   2.024  0.00  0.00    +0.004 A 
BRANCH  21  28
ATOM     27  C   UNL     1       0.603   3.092   0.029  0.00  0.00    +0.009 C 
ATOM     28  C   UNL     1       0.554   1.583  -0.217  0.00  0.00    +0.032 C 
ENDBRANCH  21  28
ENDBRANCH   1  24
TORSDOF 3
