REMARK  Name = ZINC43757664
REMARK  10 active torsions:
REMARK  status: ('A' for Active; 'I' for Inactive)
REMARK    1  A    between atoms: C_1  and  C_2
REMARK    2  A    between atoms: C_4  and  O_42
REMARK    3  A    between atoms: C_14  and  C_20
REMARK    4  A    between atoms: C_16  and  C_18
REMARK    5  A    between atoms: C_16  and  C_19
REMARK    6  A    between atoms: C_20  and  C_22
REMARK    7  A    between atoms: C_22  and  O_23
REMARK    8  A    between atoms: O_23  and  C_24
REMARK    9  A    between atoms: C_24  and  C_26
REMARK   10  A    between atoms: C_38  and  C_39
REMARK                            x       y       z     vdW  Elec       q    Type
REMARK                         _______ _______ _______ _____ _____    ______ ____
ROOT
ATOM      1  C   UNL     1      -0.190   1.526  -0.137  0.00  0.00    +0.015 C 
ATOM      2  C   UNL     1      -0.175  -0.004  -0.154  0.00  0.00    +0.012 C 
ATOM      3  C   UNL     1      -1.593  -0.526  -0.173  0.00  0.00    +0.044 C 
ATOM      4  C   UNL     1      -2.333   0.123   1.010  0.00  0.00    +0.154 C 
ATOM      5  C   UNL     1      -1.640  -0.176   2.339  0.00  0.00    +0.153 C 
ATOM      6  C   UNL     1      -0.161   0.234   2.300  0.00  0.00    +0.037 C 
ATOM      7  C   UNL     1       0.477  -0.539   1.167  0.00  0.00    +0.007 C 
ATOM      8  C   UNL     1       1.989  -0.378   0.958  0.00  0.00    +0.039 C 
ATOM      9  C   UNL     1       2.129   0.095  -0.475  0.00  0.00    +0.162 C 
ATOM     10  C   UNL     1       0.817  -0.484  -1.156  0.00  0.00    +0.165 C 
ATOM     11  O   UNL     1       1.011  -0.025  -2.463  0.00  0.00    -0.332 OA
ATOM     12  C   UNL     1       2.450  -0.093  -2.672  0.00  0.00    +0.166 C 
ATOM     13  O   UNL     1       3.069  -0.411  -1.393  0.00  0.00    -0.343 OA
ATOM     14  C   UNL     1       2.775  -1.192  -3.686  0.00  0.00    +0.074 C 
ATOM     15  C   UNL     1       2.962   1.254  -3.186  0.00  0.00    +0.074 C 
ATOM     16  C   UNL     1       0.479  -0.122   3.645  0.00  0.00    +0.048 C 
ATOM     17  C   UNL     1       0.634  -1.643   3.704  0.00  0.00    +0.194 C 
ATOM     18  C   UNL     1      -0.672  -2.305   3.372  0.00  0.00    -0.020 C 
ATOM     19  C   UNL     1      -0.814  -3.620   3.658  0.00  0.00    +0.054 C 
ATOM     20  C   UNL     1      -2.119  -4.209   3.252  0.00  0.00    +0.179 C 
ATOM     21  O   UNL     1      -2.730  -4.995   3.953  0.00  0.00    -0.288 OA
ATOM     22  C   UNL     1      -2.622  -3.764   1.923  0.00  0.00    +0.047 C 
ATOM     23  C   UNL     1      -2.458  -2.450   1.660  0.00  0.00    -0.009 C 
ATOM     24  C   UNL     1      -1.825  -1.617   2.719  0.00  0.00    +0.047 C 
ATOM     25  C   UNL     1      -2.889  -1.587   3.819  0.00  0.00    +0.023 C 
ATOM     26  F   UNL     1       1.605  -2.047   2.781  0.00  0.00    -0.241 F 
ATOM     27  F   UNL     1      -2.254   0.606   3.323  0.00  0.00    -0.238 F 
ENDROOT
BRANCH  10  28
ATOM     28  C   UNL     1       0.866  -1.991  -1.143  0.00  0.00    +0.205 C 
ATOM     29  O   UNL     1       1.688  -2.562  -0.468  0.00  0.00    -0.291 OA
BRANCH  28  30
ATOM     30  C   UNL     1      -0.111  -2.784  -1.972  0.00  0.00    +0.309 C 
BRANCH  30  31
ATOM     31  O   UNL     1       0.211  -4.173  -1.888  0.00  0.00    -0.457 OA
BRANCH  31  32
ATOM     32  C   UNL     1      -0.570  -5.022  -2.575  0.00  0.00    +0.311 C 
ATOM     33  O   UNL     1      -1.496  -4.599  -3.225  0.00  0.00    -0.251 OA
BRANCH  32  34
ATOM     34  C   UNL     1      -0.291  -6.503  -2.534  0.00  0.00    +0.098 C 
ATOM     35  C   UNL     1       0.213  -7.162  -3.819  0.00  0.00    +0.015 C 
ATOM     36  C   UNL     1      -1.217  -7.418  -3.338  0.00  0.00    +0.015 C 
ENDBRANCH  32  34
ENDBRANCH  31  32
ENDBRANCH  30  31
ENDBRANCH  28  30
ENDBRANCH  10  28
BRANCH   4  37
ATOM     37  O   UNL     1      -3.669  -0.382   1.058  0.00  0.00    -0.389 OA
ATOM     38  H   UNL     1      -4.186  -0.203   0.261  0.00  0.00    +0.210 HD
ENDBRANCH   4  37
TORSDOF 6
