REMARK  Name = ZINC36647923
REMARK  11 active torsions:
REMARK  status: ('A' for Active; 'I' for Inactive)
REMARK    1  A    between atoms: C_1  and  C_2
REMARK    2  A    between atoms: C_2  and  C_35
REMARK    3  A    between atoms: C_5  and  C_31
REMARK    4  A    between atoms: C_6  and  N_13
REMARK    5  A    between atoms: C_9  and  C_11
REMARK    6  A    between atoms: C_9  and  C_12
REMARK    7  A    between atoms: C_14  and  C_16
REMARK    8  A    between atoms: N_21  and  S_23
REMARK    9  A    between atoms: S_23  and  C_26
REMARK   10  A    between atoms: C_31  and  O_33
REMARK   11  A    between atoms: O_33  and  C_34
REMARK                            x       y       z     vdW  Elec       q    Type
REMARK                         _______ _______ _______ _____ _____    ______ ____
ROOT
ATOM      1  C   UNL     1      -0.019   1.526   0.010  0.00  0.00    -0.010 C 
ATOM      2  C   UNL     1       0.002  -0.004   0.002  0.00  0.00    -0.069 C 
ATOM      3  C   UNL     1      -1.434  -0.533  -0.096  0.00  0.00    +0.024 C 
ATOM      4  C   UNL     1      -2.142  -0.137   1.190  0.00  0.00    -0.024 A 
ATOM      5  C   UNL     1      -3.547   0.164   1.354  0.00  0.00    +0.091 A 
ATOM      6  C   UNL     1      -3.972   0.509   2.631  0.00  0.00    +0.086 A 
ATOM      7  S   UNL     1      -2.577   0.437   3.563  0.00  0.00    -0.079 S 
ATOM      8  C   UNL     1      -1.412  -0.053   2.327  0.00  0.00    -0.016 A 
ATOM      9  C   UNL     1       0.048  -0.332   2.463  0.00  0.00    -0.041 C 
ATOM     10  N   UNL     1       0.700  -0.526   1.169  0.00  0.00    +0.389 N 
ATOM     11  C   UNL     1       0.719   0.818   3.227  0.00  0.00    -0.005 C 
ATOM     12  C   UNL     1       0.218  -1.616   3.298  0.00  0.00    -0.005 C 
ATOM     13  C   UNL     1       0.759  -0.459  -1.260  0.00  0.00    -0.010 C 
ATOM     14  H   UNL     1       0.856  -1.527   1.032  0.00  0.00    -0.084 HD
ATOM     15  H   UNL     1       1.630  -0.105   1.207  0.00  0.00    -0.084 HD
ENDROOT
BRANCH   6  16
ATOM     16  N   UNL     1      -5.255   0.838   3.040  0.00  0.00    -0.279 N 
ATOM     17  C   UNL     1      -5.492   1.150   4.330  0.00  0.00    +0.222 C 
ATOM     18  O   UNL     1      -4.582   1.143   5.132  0.00  0.00    -0.275 OA
ATOM     19  H   UNL     1      -5.982   0.843   2.399  0.00  0.00    +0.155 HD
BRANCH  17  20
ATOM     20  C   UNL     1      -6.886   1.508   4.775  0.00  0.00    +0.091 C 
ATOM     21  C   UNL     1      -7.369   2.738   4.004  0.00  0.00    +0.015 C 
ATOM     22  C   UNL     1      -8.798   3.082   4.431  0.00  0.00    +0.018 C 
ATOM     23  C   UNL     1      -8.813   3.412   5.927  0.00  0.00    +0.109 C 
ATOM     24  N   UNL     1      -8.216   2.291   6.665  0.00  0.00    -0.175 NA
ATOM     25  C   UNL     1      -6.881   1.819   6.275  0.00  0.00    +0.122 C 
BRANCH  24  26
ATOM     26  S   UNL     1      -9.033   1.572   7.913  0.00  0.00    +0.067 S 
ATOM     27  O   UNL     1      -8.053   0.966   8.744  0.00  0.00    -0.152 OA
ATOM     28  O   UNL     1      -9.957   2.535   8.402  0.00  0.00    -0.152 OA
BRANCH  26  29
ATOM     29  C   UNL     1      -9.989   0.262   7.224  0.00  0.00    +0.143 A 
ATOM     30  C   UNL     1      -9.649  -1.037   7.040  0.00  0.00    +0.036 A 
ATOM     31  C   UNL     1     -10.572  -1.898   6.474  0.00  0.00    +0.010 A 
ATOM     32  C   UNL     1     -11.788  -1.417   6.120  0.00  0.00    +0.047 A 
ATOM     33  S   UNL     1     -11.659   0.300   6.595  0.00  0.00    -0.077 S 
ENDBRANCH  26  29
ENDBRANCH  24  26
ENDBRANCH  17  20
ENDBRANCH   6  16
BRANCH   5  34
ATOM     34  C   UNL     1      -4.489   0.107   0.234  0.00  0.00    +0.342 C 
ATOM     35  O   UNL     1      -5.072  -0.930  -0.019  0.00  0.00    -0.245 OA
BRANCH  34  36
ATOM     36  O   UNL     1      -4.709   1.206  -0.518  0.00  0.00    -0.464 OA
ATOM     37  C   UNL     1      -5.641   1.079  -1.595  0.00  0.00    +0.280 C 
ENDBRANCH  34  36
ENDBRANCH   5  34
TORSDOF 6
