REMARK  Name = ZINC12570799
REMARK  8 active torsions:
REMARK  status: ('A' for Active; 'I' for Inactive)
REMARK    1  A    between atoms: C_1  and  C_2
REMARK    2  A    between atoms: C_2  and  C_4
REMARK    3  A    between atoms: C_2  and  O_19
REMARK    4  A    between atoms: N_6  and  N_7
REMARK    5  A    between atoms: N_7  and  C_8
REMARK    6  A    between atoms: C_8  and  N_10
REMARK    7  A    between atoms: C_11  and  C_13
REMARK    8  A    between atoms: O_19  and  C_20
REMARK                            x       y       z     vdW  Elec       q    Type
REMARK                         _______ _______ _______ _____ _____    ______ ____
ROOT
ATOM      1  C   UNL     1       2.373  -3.931  -0.959  0.00  0.00    +0.270 C 
ATOM      2  O   UNL     1       1.287  -4.260  -1.386  0.00  0.00    -0.270 OA
ATOM      3  N   UNL     1       3.455  -4.694  -1.209  0.00  0.00    -0.232 N 
ATOM      4  H   UNL     1       4.324  -4.430  -0.867  0.00  0.00    +0.173 HD
ENDROOT
BRANCH   1   6
ATOM      5  C   UNL     1       3.052  -3.011   1.242  0.00  0.00    +0.062 C 
ATOM      6  C   UNL     1       2.512  -2.668  -0.148  0.00  0.00    +0.257 C 
BRANCH   6   7
ATOM      7  O   UNL     1       1.235  -2.040  -0.021  0.00  0.00    -0.478 OA
BRANCH   7   8
ATOM      8  C   UNL     1       1.226  -0.698   0.200  0.00  0.00    +0.140 A 
ATOM      9  C   UNL     1       2.419  -0.021   0.405  0.00  0.00    +0.048 A 
ATOM     10  C   UNL     1       2.408   1.343   0.629  0.00  0.00    +0.023 A 
ATOM     11  C   UNL     1       1.209   2.033   0.650  0.00  0.00    +0.043 A 
ATOM     12  C   UNL     1       0.018   1.359   0.446  0.00  0.00    +0.043 A 
ATOM     13  C   UNL     1       0.024  -0.005   0.221  0.00  0.00    +0.084 A 
ATOM     14 CL   UNL     1      -1.470  -0.850  -0.036  0.00  0.00    -0.080 Cl
ATOM     15 CL   UNL     1       1.199   3.745   0.931  0.00  0.00    -0.083 Cl
ENDBRANCH   7   8
ENDBRANCH   6   7
ENDBRANCH   1   6
BRANCH   3  16
ATOM     16  N   UNL     1       3.325  -5.868  -1.962  0.00  0.00    -0.245 N 
ATOM     17  H   UNL     1       2.457  -6.131  -2.304  0.00  0.00    +0.172 HD
BRANCH  16  18
ATOM     18  C   UNL     1       4.408  -6.631  -2.213  0.00  0.00    +0.153 C 
ATOM     19  S   UNL     1       4.249  -8.065  -3.134  0.00  0.00    -0.017 S 
BRANCH  18  20
ATOM     20  N   UNL     1       5.615  -6.265  -1.738  0.00  0.00    -0.260 N 
ATOM     21  C   UNL     1       6.697  -7.028  -1.988  0.00  0.00    +0.285 C 
ATOM     22  O   UNL     1       6.585  -8.048  -2.643  0.00  0.00    -0.266 OA
ATOM     23  H   UNL     1       5.705  -5.452  -1.216  0.00  0.00    +0.157 HD
BRANCH  21  24
ATOM     24  C   UNL     1       8.009  -6.630  -1.472  0.00  0.00    +0.191 A 
ATOM     25  C   UNL     1       9.181  -7.309  -1.651  0.00  0.00    +0.056 A 
ATOM     26  C   UNL     1      10.178  -6.574  -0.991  0.00  0.00    +0.058 A 
ATOM     27  C   UNL     1       9.578  -5.492  -0.444  0.00  0.00    +0.171 A 
ATOM     28  O   UNL     1       8.272  -5.527  -0.741  0.00  0.00    -0.444 OA
ATOM     29 BR   UNL     1      10.441  -4.147   0.568  0.00  0.00    -0.008 Br
ENDBRANCH  21  24
ENDBRANCH  18  20
ENDBRANCH  16  18
ENDBRANCH   3  16
TORSDOF 7
