REMARK  Name = ZINC63806853
REMARK  8 active torsions:
REMARK  status: ('A' for Active; 'I' for Inactive)
REMARK    1  A    between atoms: C_1  and  C_2
REMARK    2  A    between atoms: C_2  and  C_3
REMARK    3  A    between atoms: C_2  and  C_4
REMARK    4  A    between atoms: C_4  and  C_6
REMARK    5  A    between atoms: C_4  and  N_23
REMARK    6  A    between atoms: C_11  and  C_14
REMARK    7  A    between atoms: C_24  and  C_26
REMARK    8  A    between atoms: C_26  and  C_27
REMARK                            x       y       z     vdW  Elec       q    Type
REMARK                         _______ _______ _______ _____ _____    ______ ____
ROOT
ATOM      1  C   UNL     1      -1.370  -2.037   0.215  0.00  0.00    +0.239 C 
ATOM      2  O   UNL     1      -1.850  -2.704  -0.677  0.00  0.00    -0.273 OA
ATOM      3  N   UNL     1      -0.825  -2.641   1.289  0.00  0.00    -0.263 N 
ATOM      4  C   UNL     1      -0.898  -4.020   1.421  0.00  0.00    +0.165 A 
ATOM      5  N   UNL     1      -0.436  -4.782   2.389  0.00  0.00    -0.225 NA
ATOM      6  C   UNL     1      -0.623  -6.105   2.306  0.00  0.00    +0.079 A 
ATOM      7  C   UNL     1      -1.297  -6.606   1.199  0.00  0.00    +0.076 A 
ATOM      8  S   UNL     1      -1.648  -5.211   0.326  0.00  0.00    -0.060 S 
ATOM      9  H   UNL     1      -0.381  -2.112   1.970  0.00  0.00    +0.157 HD
ENDROOT
BRANCH   6  10
ATOM     10  C   UNL     1      -0.148  -6.969   3.316  0.00  0.00    +0.007 C 
ATOM     11  C   UNL     1       0.535  -6.612   4.476  0.00  0.00    +0.005 A 
ATOM     12  C   UNL     1       0.949  -5.364   4.993  0.00  0.00    +0.010 A 
ATOM     13  C   UNL     1       1.613  -5.313   6.176  0.00  0.00    +0.001 A 
ATOM     14  C   UNL     1       1.901  -6.469   6.904  0.00  0.00    +0.002 A 
ATOM     15  C   UNL     1       1.534  -7.699   6.468  0.00  0.00    +0.026 A 
ATOM     16  C   UNL     1       0.837  -7.834   5.240  0.00  0.00    +0.043 A 
ATOM     17  N   UNL     1       0.378  -8.897   4.609  0.00  0.00    -0.380 N 
ATOM     18  C   UNL     1      -0.279  -8.475   3.368  0.00  0.00    +0.151 C 
ATOM     19  H   UNL     1       0.458  -9.812   4.919  0.00  0.00    +0.160 HD
ENDBRANCH   6  10
BRANCH   1  20
ATOM     20  C   UNL     1      -1.385  -0.533   0.122  0.00  0.00    +0.162 C 
BRANCH  20  21
ATOM     21  N   UNL     1      -2.374  -0.115  -0.874  0.00  0.00    -0.303 N 
ATOM     22  C   UNL     1      -2.933   1.109  -0.796  0.00  0.00    +0.218 C 
ATOM     23  O   UNL     1      -2.617   1.864   0.100  0.00  0.00    -0.275 OA
ATOM     24  H   UNL     1      -2.626  -0.718  -1.590  0.00  0.00    +0.149 HD
BRANCH  22  25
ATOM     25  C   UNL     1      -3.950   1.540  -1.821  0.00  0.00    +0.130 C 
BRANCH  25  26
ATOM     26  C   UNL     1      -4.416   2.939  -1.510  0.00  0.00    -0.039 A 
ATOM     27  C   UNL     1      -5.503   3.136  -0.679  0.00  0.00    +0.004 A 
ATOM     28  C   UNL     1      -5.930   4.419  -0.393  0.00  0.00    +0.000 A 
ATOM     29  C   UNL     1      -5.271   5.505  -0.938  0.00  0.00    +0.000 A 
ATOM     30  C   UNL     1      -4.183   5.308  -1.768  0.00  0.00    +0.000 A 
ATOM     31  C   UNL     1      -3.753   4.025  -2.050  0.00  0.00    +0.004 A 
ENDBRANCH  25  26
ENDBRANCH  22  25
ENDBRANCH  20  21
BRANCH  20  33
ATOM     32  C   UNL     1       0.309  -0.511  -1.714  0.00  0.00    +0.009 C 
ATOM     33  C   UNL     1       0.001  -0.035  -0.293  0.00  0.00    +0.012 C 
ATOM     34  C   UNL     1       0.026   1.495  -0.251  0.00  0.00    +0.009 C 
ENDBRANCH  20  33
ENDBRANCH   1  20
TORSDOF 6
