REMARK  Name = ZINC09233156
REMARK  7 active torsions:
REMARK  status: ('A' for Active; 'I' for Inactive)
REMARK    1  A    between atoms: C_10  and  N_11
REMARK    2  A    between atoms: C_12  and  C_29
REMARK    3  A    between atoms: C_15  and  S_16
REMARK    4  A    between atoms: S_16  and  C_17
REMARK    5  A    between atoms: C_17  and  C_18
REMARK    6  A    between atoms: N_20  and  C_21
REMARK    7  A    between atoms: C_24  and  C_27
REMARK                            x       y       z     vdW  Elec       q    Type
REMARK                         _______ _______ _______ _____ _____    ______ ____
ROOT
ATOM      1  N   UNL     1       2.617   1.545  -0.050  0.00  0.00    -0.267 N 
ATOM      2  C   UNL     1       3.288   1.052   1.050  0.00  0.00    +0.205 A 
ATOM      3  N   UNL     1       4.256   0.285   0.598  0.00  0.00    -0.125 NA
ATOM      4  N   UNL     1       4.243   0.272  -0.687  0.00  0.00    -0.122 NA
ATOM      5  C   UNL     1       3.264   1.023  -1.139  0.00  0.00    +0.197 A 
ENDROOT
BRANCH   1  15
ATOM      6  C   UNL     1       2.008   6.556  -0.109  0.00  0.00    +0.001 A 
ATOM      7  C   UNL     1       3.123   5.720  -0.106  0.00  0.00    +0.001 A 
ATOM      8  C   UNL     1       2.982   4.366  -0.088  0.00  0.00    +0.010 A 
ATOM      9  C   UNL     1       1.697   3.801  -0.072  0.00  0.00    +0.006 A 
ATOM     10  C   UNL     1       0.563   4.651  -0.075  0.00  0.00    -0.016 A 
ATOM     11  C   UNL     1       0.748   6.044  -0.093  0.00  0.00    +0.008 A 
ATOM     12  C   UNL     1      -0.724   4.087  -0.058  0.00  0.00    +0.008 A 
ATOM     13  C   UNL     1      -0.873   2.733  -0.045  0.00  0.00    +0.003 A 
ATOM     14  C   UNL     1       0.234   1.889  -0.037  0.00  0.00    +0.027 A 
ATOM     15  C   UNL     1       1.512   2.402  -0.053  0.00  0.00    +0.058 A 
ENDBRANCH   1  15
BRANCH   2  16
ATOM     16  C   UNL     1       2.977   1.328   2.461  0.00  0.00    +0.172 A 
ATOM     17  C   UNL     1       3.439   0.627   3.534  0.00  0.00    +0.053 A 
ATOM     18  C   UNL     1       2.895   1.236   4.681  0.00  0.00    +0.042 A 
ATOM     19  C   UNL     1       2.128   2.261   4.259  0.00  0.00    +0.196 A 
ATOM     20  O   UNL     1       2.180   2.314   2.917  0.00  0.00    -0.460 OA
ENDBRANCH   2  16
BRANCH   5  21
ATOM     21  S   UNL     1       2.859   1.306  -2.830  0.00  0.00    -0.076 S 
BRANCH  21  22
ATOM     22  C   UNL     1       4.134   0.302  -3.631  0.00  0.00    +0.173 C 
BRANCH  22  23
ATOM     23  C   UNL     1       3.980   0.394  -5.127  0.00  0.00    +0.227 C 
ATOM     24  O   UNL     1       3.095   1.072  -5.605  0.00  0.00    -0.275 OA
ATOM     25  N   UNL     1       4.825  -0.276  -5.934  0.00  0.00    -0.285 N 
ATOM     26  H   UNL     1       5.579  -0.756  -5.556  0.00  0.00    +0.155 HD
BRANCH  25  27
ATOM     27  C   UNL     1       4.617  -0.281  -7.313  0.00  0.00    +0.033 A 
ATOM     28  C   UNL     1       3.321  -0.257  -7.819  0.00  0.00    +0.024 A 
ATOM     29  C   UNL     1       3.112  -0.256  -9.180  0.00  0.00    +0.017 A 
ATOM     30  C   UNL     1       4.203  -0.290 -10.053  0.00  0.00    +0.063 A 
ATOM     31  C   UNL     1       5.503  -0.319  -9.541  0.00  0.00    +0.017 A 
ATOM     32  C   UNL     1       5.705  -0.315  -8.179  0.00  0.00    +0.024 A 
BRANCH  30  33
ATOM     33  C   UNL     1       3.983  -0.295 -11.511  0.00  0.00    +0.387 C 
ATOM     34  O   UNL     1       4.932  -0.324 -12.269  0.00  0.00    -0.241 OA
ATOM     35  O   UNL     1       2.728  -0.267 -12.003  0.00  0.00    -0.241 OA
ENDBRANCH  30  33
ENDBRANCH  25  27
ENDBRANCH  22  23
ENDBRANCH  21  22
ENDBRANCH   5  21
TORSDOF 7
