REMARK  Name = ZINC00866988
REMARK  9 active torsions:
REMARK  status: ('A' for Active; 'I' for Inactive)
REMARK    1  A    between atoms: C_1  and  C_2
REMARK    2  A    between atoms: C_2  and  C_4
REMARK    3  A    between atoms: C_2  and  O_37
REMARK    4  A    between atoms: C_8  and  N_10
REMARK    5  A    between atoms: C_11  and  C_13
REMARK    6  A    between atoms: C_17  and  C_28
REMARK    7  A    between atoms: C_20  and  C_24
REMARK    8  A    between atoms: C_31  and  O_34
REMARK    9  A    between atoms: O_34  and  C_35
REMARK                            x       y       z     vdW  Elec       q    Type
REMARK                         _______ _______ _______ _____ _____    ______ ____
ROOT
ATOM      1  C   UNL     1       6.144  -2.548   3.174  0.00  0.00    +0.129 C 
ATOM      2  C   UNL     1       6.922  -2.448   2.066  0.00  0.00    +0.109 C 
ATOM      3  C   UNL     1       8.238  -2.989   2.410  0.00  0.00    +0.154 C 
ATOM      4  N   UNL     1       9.313  -3.097   1.683  0.00  0.00    -0.259 NA
ATOM      5  C   UNL     1      10.531  -3.650   2.287  0.00  0.00    +0.139 C 
ATOM      6  C   UNL     1      10.178  -4.689   3.353  0.00  0.00    +0.065 C 
ATOM      7  C   UNL     1       9.285  -4.047   4.426  0.00  0.00    +0.202 C 
ATOM      8  N   UNL     1       8.161  -3.410   3.732  0.00  0.00    -0.224 N 
ATOM      9  N   UNL     1       6.886  -3.114   4.201  0.00  0.00    -0.256 N 
ATOM     10 CL   UNL     1       6.446  -1.800   0.528  0.00  0.00    -0.078 Cl
ATOM     11  H   UNL     1       6.566  -3.278   5.102  0.00  0.00    +0.170 HD
ENDROOT
BRANCH   5  12
ATOM     12  C   UNL     1      11.365  -4.302   1.215  0.00  0.00    -0.023 A 
ATOM     13  C   UNL     1      10.754  -5.036   0.216  0.00  0.00    +0.009 A 
ATOM     14  C   UNL     1      11.517  -5.636  -0.768  0.00  0.00    +0.046 A 
ATOM     15  C   UNL     1      12.898  -5.500  -0.752  0.00  0.00    +0.120 A 
ATOM     16  C   UNL     1      13.508  -4.763   0.252  0.00  0.00    +0.046 A 
ATOM     17  C   UNL     1      12.741  -4.161   1.230  0.00  0.00    +0.009 A 
BRANCH  15  18
ATOM     18  O   UNL     1      13.650  -6.089  -1.718  0.00  0.00    -0.495 OA
ATOM     19  C   UNL     1      15.066  -5.907  -1.639  0.00  0.00    +0.277 C 
ENDBRANCH  15  18
ENDBRANCH   5  12
BRANCH   1  21
ATOM     20  N   UNL     1       4.096  -2.168   4.457  0.00  0.00    -0.280 N 
ATOM     21  C   UNL     1       4.735  -2.117   3.272  0.00  0.00    +0.265 C 
ATOM     22  O   UNL     1       4.152  -1.716   2.284  0.00  0.00    -0.268 OA
ATOM     23  H   UNL     1       4.580  -2.421   5.259  0.00  0.00    +0.155 HD
BRANCH  20  28
ATOM     24  C   UNL     1       0.568  -2.231   5.486  0.00  0.00    -0.018 A 
ATOM     25  C   UNL     1       0.042  -1.239   4.678  0.00  0.00    +0.006 A 
ATOM     26  C   UNL     1       0.860  -0.555   3.797  0.00  0.00    +0.002 A 
ATOM     27  C   UNL     1       2.204  -0.861   3.721  0.00  0.00    +0.023 A 
ATOM     28  C   UNL     1       2.736  -1.856   4.532  0.00  0.00    +0.034 A 
ATOM     29  C   UNL     1       1.913  -2.537   5.420  0.00  0.00    +0.029 A 
BRANCH  24  31
ATOM     30  C   UNL     1      -1.001  -4.138   5.715  0.00  0.00    +0.043 C 
ATOM     31  C   UNL     1      -0.327  -2.974   6.445  0.00  0.00    +0.141 C 
BRANCH  31  32
ATOM     32  O   UNL     1      -1.326  -2.086   6.950  0.00  0.00    -0.387 OA
ATOM     33  H   UNL     1      -1.939  -2.498   7.574  0.00  0.00    +0.210 HD
ENDBRANCH  31  32
ENDBRANCH  24  31
ENDBRANCH  20  28
ENDBRANCH   1  21
BRANCH   7  34
ATOM     34  C   UNL     1       8.767  -5.123   5.383  0.00  0.00    +0.410 C 
ATOM     35  F   UNL     1       9.849  -5.757   6.002  0.00  0.00    -0.169 F 
ATOM     36  F   UNL     1       7.956  -4.529   6.356  0.00  0.00    -0.169 F 
ATOM     37  F   UNL     1       8.022  -6.065   4.666  0.00  0.00    -0.169 F 
ENDBRANCH   7  34
TORSDOF 7
