REMARK  Name = ZINC28308813
REMARK  11 active torsions:
REMARK  status: ('A' for Active; 'I' for Inactive)
REMARK    1  A    between atoms: C_1  and  C_2
REMARK    2  A    between atoms: C_5  and  N_9
REMARK    3  A    between atoms: C_6  and  C_8
REMARK    4  A    between atoms: C_10  and  C_12
REMARK    5  A    between atoms: C_12  and  N_24
REMARK    6  A    between atoms: C_13  and  C_14
REMARK    7  A    between atoms: C_17  and  O_22
REMARK    8  A    between atoms: C_19  and  O_20
REMARK    9  A    between atoms: O_20  and  C_21
REMARK   10  A    between atoms: O_22  and  C_23
REMARK   11  A    between atoms: C_25  and  C_27
REMARK                            x       y       z     vdW  Elec       q    Type
REMARK                         _______ _______ _______ _____ _____    ______ ____
ROOT
ATOM      1  C   UNL     1      -2.517   2.958   4.630  0.00  0.00    +0.097 C 
ATOM      2  C   UNL     1      -1.965   2.425   3.512  0.00  0.00    +0.040 C 
ENDROOT
BRANCH   2   3
ATOM      3  C   UNL     1      -1.769   3.260   2.321  0.00  0.00    +0.019 A 
ATOM      4  C   UNL     1      -2.815   4.057   1.840  0.00  0.00    +0.015 A 
ATOM      5  C   UNL     1      -2.626   4.838   0.723  0.00  0.00    +0.046 A 
ATOM      6  C   UNL     1      -1.399   4.838   0.068  0.00  0.00    +0.124 A 
ATOM      7  C   UNL     1      -0.354   4.056   0.538  0.00  0.00    +0.091 A 
ATOM      8  C   UNL     1      -0.531   3.263   1.657  0.00  0.00    +0.131 A 
BRANCH   8   9
ATOM      9  O   UNL     1       0.489   2.494   2.115  0.00  0.00    -0.494 OA
ATOM     10  C   UNL     1       1.719   2.547   1.389  0.00  0.00    +0.277 C 
ENDBRANCH   8   9
BRANCH   6  11
ATOM     11  O   UNL     1      -1.222   5.611  -1.034  0.00  0.00    -0.495 OA
ATOM     12  C   UNL     1      -2.337   6.396  -1.462  0.00  0.00    +0.277 C 
ENDBRANCH   6  11
ENDBRANCH   2   3
BRANCH   1  14
ATOM     13  N   UNL     1      -3.402   4.923   5.770  0.00  0.00    -0.280 N 
ATOM     14  C   UNL     1      -2.722   4.407   4.727  0.00  0.00    +0.262 C 
ATOM     15  O   UNL     1      -2.279   5.144   3.865  0.00  0.00    -0.268 OA
ATOM     16  H   UNL     1      -3.742   4.266   6.584  0.00  0.00    +0.155 HD
BRANCH  13  21
ATOM     17  C   UNL     1      -4.508  10.483   5.963  0.00  0.00    +0.044 C 
ATOM     18  C   UNL     1      -4.214   9.006   5.912  0.00  0.00    -0.050 A 
ATOM     19  C   UNL     1      -3.104   8.546   5.227  0.00  0.00    +0.005 A 
ATOM     20  C   UNL     1      -2.831   7.194   5.179  0.00  0.00    +0.024 A 
ATOM     21  C   UNL     1      -3.674   6.293   5.818  0.00  0.00    +0.037 A 
ATOM     22  C   UNL     1      -4.792   6.757   6.500  0.00  0.00    -0.029 A 
ATOM     23  C   UNL     1      -5.056   8.112   6.549  0.00  0.00    +0.008 A 
ATOM     24  C   UNL     1      -5.712   5.784   7.190  0.00  0.00    +0.045 C 
ENDBRANCH  13  21
ENDBRANCH   1  14
BRANCH   1  25
ATOM     25  N   UNL     1      -2.890   2.126   5.692  0.00  0.00    -0.277 N 
ATOM     26  C   UNL     1      -2.348   2.305   6.912  0.00  0.00    +0.248 C 
ATOM     27  O   UNL     1      -1.605   3.246   7.115  0.00  0.00    -0.270 OA
ATOM     28  H   UNL     1      -3.627   1.325   5.530  0.00  0.00    +0.155 HD
BRANCH  26  29
ATOM     29  C   UNL     1      -2.655   1.358   8.004  0.00  0.00    +0.037 A 
ATOM     30  C   UNL     1      -3.512   0.280   7.776  0.00  0.00    +0.014 A 
ATOM     31  C   UNL     1      -3.792  -0.603   8.798  0.00  0.00    +0.016 A 
ATOM     32  C   UNL     1      -3.232  -0.416  10.051  0.00  0.00    +0.018 A 
ATOM     33  C   UNL     1      -2.385   0.654  10.285  0.00  0.00    +0.016 A 
ATOM     34  C   UNL     1      -2.094   1.541   9.270  0.00  0.00    +0.014 A 
ATOM     35 BR   UNL     1      -3.626  -1.628  11.448  0.00  0.00    -0.050 Br
ENDBRANCH  26  29
ENDBRANCH   1  25
TORSDOF 7
