REMARK  Name = ZINC01617452
REMARK  5 active torsions:
REMARK  status: ('A' for Active; 'I' for Inactive)
REMARK    1  A    between atoms: C_3  and  C_19
REMARK    2  A    between atoms: C_5  and  N_7
REMARK    3  A    between atoms: C_10  and  C_17
REMARK    4  A    between atoms: C_11  and  N_16
REMARK    5  A    between atoms: C_12  and  C_14
REMARK                            x       y       z     vdW  Elec       q    Type
REMARK                         _______ _______ _______ _____ _____    ______ ____
ROOT
ATOM      1  N   UNL     1      -0.088   5.241   0.052  0.00  0.00    -0.195 N 
ATOM      2  C   UNL     1      -1.254   5.879  -0.145  0.00  0.00    +0.291 A 
ATOM      3  O   UNL     1      -2.279   5.239  -0.305  0.00  0.00    -0.264 OA
ATOM      4  C   UNL     1      -1.293   7.296  -0.162  0.00  0.00    +0.141 A 
ATOM      5  C   UNL     1      -0.078   7.979   0.023  0.00  0.00    +0.082 A 
ATOM      6  C   UNL     1       1.125   7.164   0.223  0.00  0.00    +0.194 A 
ATOM      7  N   UNL     1       1.025   5.852   0.222  0.00  0.00    -0.155 NA
ENDROOT
BRANCH   1  12
ATOM      8  C   UNL     1       0.839   1.756  -0.668  0.00  0.00    +0.003 A 
ATOM      9  C   UNL     1      -0.089   1.075   0.099  0.00  0.00    +0.012 A 
ATOM     10  C   UNL     1      -1.013   1.773   0.854  0.00  0.00    +0.057 A 
ATOM     11  C   UNL     1      -1.015   3.155   0.841  0.00  0.00    +0.040 A 
ATOM     12  C   UNL     1      -0.088   3.842   0.067  0.00  0.00    +0.070 A 
ATOM     13  C   UNL     1       0.839   3.137  -0.690  0.00  0.00    +0.028 A 
BRANCH  10  14
ATOM     14  C   UNL     1      -2.018   1.027   1.692  0.00  0.00    +0.417 C 
ATOM     15  F   UNL     1      -1.819  -0.350   1.543  0.00  0.00    -0.166 F 
ATOM     16  F   UNL     1      -1.857   1.379   3.036  0.00  0.00    -0.166 F 
ATOM     17  F   UNL     1      -3.312   1.359   1.275  0.00  0.00    -0.166 F 
ENDBRANCH  10  14
ENDBRANCH   1  12
BRANCH   6  18
ATOM     18  C   UNL     1       2.436   7.810   0.422  0.00  0.00    +0.408 C 
ATOM     19  O   UNL     1       2.508   9.018   0.530  0.00  0.00    -0.239 OA
ATOM     20  O   UNL     1       3.554   7.060   0.486  0.00  0.00    -0.239 OA
ENDBRANCH   6  18
BRANCH   5  21
ATOM     21  N   UNL     1      -0.020   9.351   0.017  0.00  0.00    -0.355 N 
ATOM     22  H   UNL     1       0.840   9.800   0.014  0.00  0.00    +0.142 HD
ATOM     23  H   UNL     1      -0.839   9.871   0.016  0.00  0.00    +0.142 HD
ENDBRANCH   5  21
BRANCH   4  24
ATOM     24  C   UNL     1      -2.521   8.004  -0.364  0.00  0.00    +0.107 C 
ATOM     25  N   UNL     1      -3.496   8.566  -0.525  0.00  0.00    -0.191 NA
ENDBRANCH   4  24
TORSDOF 5
