REMARK  Name = ZINC40156282
REMARK  8 active torsions:
REMARK  status: ('A' for Active; 'I' for Inactive)
REMARK    1  A    between atoms: C_1  and  C_2
REMARK    2  A    between atoms: C_2  and  C_3
REMARK    3  A    between atoms: C_2  and  C_4
REMARK    4  A    between atoms: C_4  and  C_6
REMARK    5  A    between atoms: C_4  and  N_24
REMARK    6  A    between atoms: N_8  and  C_9
REMARK    7  A    between atoms: C_13  and  C_15
REMARK    8  A    between atoms: C_25  and  C_27
REMARK                            x       y       z     vdW  Elec       q    Type
REMARK                         _______ _______ _______ _____ _____    ______ ____
ROOT
ATOM      1  C   UNL     1       1.947  -0.025   1.972  0.00  0.00    +0.238 C 
ATOM      2  O   UNL     1       2.783  -0.770   2.435  0.00  0.00    -0.273 OA
ATOM      3  N   UNL     1       2.292   1.221   1.589  0.00  0.00    -0.284 N 
ATOM      4  H   UNL     1       1.637   1.796   1.163  0.00  0.00    +0.155 HD
ENDROOT
BRANCH   3   5
ATOM      5  C   UNL     1       3.594   1.684   1.806  0.00  0.00    +0.034 A 
ATOM      6  C   UNL     1       4.671   0.813   1.685  0.00  0.00    +0.023 A 
ATOM      7  C   UNL     1       5.958   1.267   1.898  0.00  0.00    +0.002 A 
ATOM      8  C   UNL     1       6.183   2.587   2.234  0.00  0.00    +0.010 A 
ATOM      9  C   UNL     1       5.109   3.467   2.358  0.00  0.00    +0.001 A 
ATOM     10  C   UNL     1       3.812   3.012   2.137  0.00  0.00    +0.033 A 
BRANCH   9  11
ATOM     11  C   UNL     1       5.349   4.886   2.719  0.00  0.00    +0.064 A 
ATOM     12  C   UNL     1       4.397   5.845   2.878  0.00  0.00    +0.113 A 
ATOM     13  N   UNL     1       5.052   6.993   3.206  0.00  0.00    -0.335 N 
ATOM     14  C   UNL     1       6.378   6.713   3.238  0.00  0.00    +0.087 A 
ATOM     15  N   UNL     1       6.550   5.456   2.954  0.00  0.00    -0.343 N 
ATOM     16  C   UNL     1       7.447   7.730   3.564  0.00  0.00    +0.072 C 
ATOM     17  C   UNL     1       6.831   9.129   3.441  0.00  0.00    +0.009 C 
ATOM     18  C   UNL     1       5.507   9.167   4.210  0.00  0.00    +0.022 C 
ATOM     19  C   UNL     1       4.468   8.308   3.481  0.00  0.00    +0.123 C 
ATOM     20  H   UNL     1       7.405   5.001   2.915  0.00  0.00    +0.167 HD
ENDBRANCH   9  11
ENDBRANCH   3   5
BRANCH   1  21
ATOM     21  C   UNL     1       0.521  -0.490   1.824  0.00  0.00    +0.162 C 
BRANCH  21  22
ATOM     22  N   UNL     1       0.264  -1.581   2.768  0.00  0.00    -0.300 N 
ATOM     23  C   UNL     1      -0.993  -1.823   3.191  0.00  0.00    +0.245 C 
ATOM     24  O   UNL     1      -1.912  -1.137   2.790  0.00  0.00    -0.270 OA
ATOM     25  H   UNL     1       0.997  -2.129   3.088  0.00  0.00    +0.150 HD
BRANCH  23  26
ATOM     26  C   UNL     1      -1.253  -2.924   4.143  0.00  0.00    +0.037 A 
ATOM     27  C   UNL     1      -0.198  -3.710   4.610  0.00  0.00    +0.014 A 
ATOM     28  C   UNL     1      -0.446  -4.735   5.498  0.00  0.00    +0.021 A 
ATOM     29  C   UNL     1      -1.740  -4.985   5.927  0.00  0.00    +0.041 A 
ATOM     30  C   UNL     1      -2.790  -4.208   5.467  0.00  0.00    +0.021 A 
ATOM     31  C   UNL     1      -2.553  -3.177   4.583  0.00  0.00    +0.014 A 
ATOM     32 CL   UNL     1      -2.045  -6.278   7.045  0.00  0.00    -0.084 Cl
ENDBRANCH  23  26
ENDBRANCH  21  22
BRANCH  21  34
ATOM     33  C   UNL     1       1.298  -2.094   0.073  0.00  0.00    +0.009 C 
ATOM     34  C   UNL     1       0.292  -0.988   0.395  0.00  0.00    +0.012 C 
ATOM     35  C   UNL     1      -1.130  -1.538   0.269  0.00  0.00    +0.009 C 
ENDBRANCH  21  34
ENDBRANCH   1  21
TORSDOF 6
