REMARK  Name = ZINC03007134
REMARK  11 active torsions:
REMARK  status: ('A' for Active; 'I' for Inactive)
REMARK    1  A    between atoms: C_1  and  C_2
REMARK    2  A    between atoms: N_5  and  S_8
REMARK    3  A    between atoms: S_8  and  C_11
REMARK    4  A    between atoms: C_14  and  C_17
REMARK    5  A    between atoms: N_19  and  C_20
REMARK    6  A    between atoms: C_21  and  C_31
REMARK    7  A    between atoms: C_28  and  C_29
REMARK    8  A    between atoms: C_28  and  C_30
REMARK    9  A    between atoms: C_28  and  N_68
REMARK   10  A    between atoms: C_31  and  O_33
REMARK   11  A    between atoms: O_33  and  C_34
REMARK                            x       y       z     vdW  Elec       q    Type
REMARK                         _______ _______ _______ _____ _____    ______ ____
ROOT
ATOM      1  C   UNL     1       2.215   2.522   3.518  0.00  0.00    +0.249 C 
ATOM      2  O   UNL     1       3.244   3.135   3.307  0.00  0.00    -0.270 OA
ATOM      3  N   UNL     1       1.468   2.083   2.486  0.00  0.00    -0.275 N 
ATOM      4  H   UNL     1       0.648   1.594   2.655  0.00  0.00    +0.156 HD
ENDROOT
BRANCH   3   5
ATOM      5  C   UNL     1       1.872   2.330   1.185  0.00  0.00    +0.086 A 
ATOM      6  C   UNL     1       1.244   1.962   0.001  0.00  0.00    +0.091 A 
ATOM      7  C   UNL     1       1.879   2.354  -1.243  0.00  0.00    -0.025 A 
ATOM      8  C   UNL     1       3.037   3.040  -1.109  0.00  0.00    -0.021 A 
ATOM      9  S   UNL     1       3.286   3.170   0.637  0.00  0.00    -0.079 S 
ATOM     10  C   UNL     1       3.894   3.561  -2.220  0.00  0.00    -0.035 C 
ATOM     11  C   UNL     1       2.016   2.977  -3.634  0.00  0.00    -0.073 C 
ATOM     12  C   UNL     1       1.329   2.045  -2.631  0.00  0.00    +0.018 C 
ATOM     13  N   UNL     1       3.481   2.879  -3.470  0.00  0.00    +0.384 N 
ATOM     14  H   UNL     1       3.745   1.889  -3.414  0.00  0.00    -0.081 HD
BRANCH  13  15
ATOM     15  C   UNL     1       4.162   3.494  -4.631  0.00  0.00    -0.074 C 
ATOM     16  C   UNL     1       5.669   3.514  -4.372  0.00  0.00    -0.014 C 
ATOM     17  C   UNL     1       3.869   2.656  -5.877  0.00  0.00    -0.014 C 
ENDBRANCH  13  15
BRANCH   6  18
ATOM     18  C   UNL     1      -0.014   1.212   0.009  0.00  0.00    +0.342 C 
ATOM     19  O   UNL     1       0.002  -0.004   0.002  0.00  0.00    -0.245 OA
BRANCH  18  20
ATOM     20  O   UNL     1      -1.192   1.871   0.018  0.00  0.00    -0.464 OA
ATOM     21  C   UNL     1      -2.398   1.063   0.019  0.00  0.00    +0.280 C 
ENDBRANCH  18  20
ENDBRANCH   6  18
ENDBRANCH   3   5
BRANCH   1  25
ATOM     22  C   UNL     1       0.976   1.766   7.510  0.00  0.00    +0.106 A 
ATOM     23  C   UNL     1       2.147   2.463   7.273  0.00  0.00    +0.029 A 
ATOM     24  C   UNL     1       2.556   2.712   5.979  0.00  0.00    +0.015 A 
ATOM     25  C   UNL     1       1.784   2.259   4.907  0.00  0.00    +0.037 A 
ATOM     26  C   UNL     1       0.601   1.560   5.154  0.00  0.00    +0.015 A 
ATOM     27  C   UNL     1       0.207   1.313   6.452  0.00  0.00    +0.029 A 
BRANCH  22  28
ATOM     28  S   UNL     1       0.462   1.453   9.166  0.00  0.00    +0.061 S 
ATOM     29  O   UNL     1      -0.382   0.310   9.119  0.00  0.00    -0.153 OA
ATOM     30  O   UNL     1       1.632   1.504   9.971  0.00  0.00    -0.153 OA
BRANCH  28  35
ATOM     31  C   UNL     1      -2.859   4.576  12.643  0.00  0.00    +0.007 C 
ATOM     32  C   UNL     1      -2.130   4.282  11.331  0.00  0.00    -0.012 C 
ATOM     33  C   UNL     1      -2.649   2.968  10.742  0.00  0.00    +0.020 C 
ATOM     34  C   UNL     1      -1.941   2.695   9.411  0.00  0.00    +0.110 C 
ATOM     35  N   UNL     1      -0.489   2.725   9.632  0.00  0.00    -0.177 NA
ATOM     36  C   UNL     1       0.102   3.904  10.281  0.00  0.00    +0.110 C 
ATOM     37  C   UNL     1      -0.627   4.166  11.597  0.00  0.00    +0.020 C 
ENDBRANCH  28  35
ENDBRANCH  22  28
ENDBRANCH   1  25
TORSDOF 7
