REMARK  Name = ZINC28365029
REMARK  8 active torsions:
REMARK  status: ('A' for Active; 'I' for Inactive)
REMARK    1  A    between atoms: C_1  and  C_2
REMARK    2  A    between atoms: C_5  and  C_8
REMARK    3  A    between atoms: C_21  and  C_22
REMARK    4  A    between atoms: C_22  and  O_24
REMARK    5  A    between atoms: O_24  and  C_25
REMARK    6  A    between atoms: C_25  and  C_26
REMARK    7  A    between atoms: N_28  and  C_29
REMARK    8  A    between atoms: C_32  and  C_35
REMARK                            x       y       z     vdW  Elec       q    Type
REMARK                         _______ _______ _______ _____ _____    ______ ____
ROOT
ATOM      1  C   UNL     1       6.096  -2.195   0.187  0.00  0.00    +0.013 C 
ATOM      2  C   UNL     1       4.864  -2.655  -0.091  0.00  0.00    -0.021 C 
ATOM      3  C   UNL     1       4.511  -4.079  -0.441  0.00  0.00    +0.042 C 
ATOM      4  C   UNL     1       2.993  -4.084  -0.664  0.00  0.00    +0.043 C 
ATOM      5  C   UNL     1       2.527  -2.667  -0.435  0.00  0.00    -0.007 A 
ATOM      6  C   UNL     1       3.624  -1.855  -0.104  0.00  0.00    +0.072 A 
ATOM      7  N   UNL     1       3.467  -0.559   0.145  0.00  0.00    -0.247 NA
ATOM      8  C   UNL     1       2.284   0.049   0.100  0.00  0.00    +0.072 A 
ATOM      9  C   UNL     1       2.163   1.426   0.372  0.00  0.00    +0.028 A 
ATOM     10  C   UNL     1       0.940   2.019   0.319  0.00  0.00    +0.002 A 
ATOM     11  C   UNL     1      -0.202   1.288  -0.002  0.00  0.00    +0.001 A 
ATOM     12  C   UNL     1      -0.123  -0.047  -0.271  0.00  0.00    +0.011 A 
ATOM     13  C   UNL     1       1.118  -0.689  -0.225  0.00  0.00    +0.015 A 
ATOM     14  C   UNL     1       1.254  -2.118  -0.505  0.00  0.00    +0.073 A 
ENDROOT
BRANCH   1  19
ATOM     15  C   UNL     1      10.498  -5.863   0.662  0.00  0.00    +0.044 C 
ATOM     16  C   UNL     1       9.344  -4.902   0.537  0.00  0.00    -0.050 A 
ATOM     17  C   UNL     1       9.536  -3.670  -0.063  0.00  0.00    +0.004 A 
ATOM     18  C   UNL     1       8.485  -2.785  -0.180  0.00  0.00    +0.008 A 
ATOM     19  C   UNL     1       7.223  -3.135   0.308  0.00  0.00    -0.025 A 
ATOM     20  C   UNL     1       7.038  -4.378   0.918  0.00  0.00    +0.008 A 
ATOM     21  C   UNL     1       8.098  -5.255   1.024  0.00  0.00    +0.004 A 
ENDBRANCH   1  19
BRANCH  14  22
ATOM     22  C   UNL     1       0.080  -2.947  -0.851  0.00  0.00    +0.341 C 
ATOM     23  O   UNL     1      -0.254  -3.073  -2.012  0.00  0.00    -0.245 OA
BRANCH  22  24
ATOM     24  O   UNL     1      -0.620  -3.562   0.122  0.00  0.00    -0.452 OA
BRANCH  24  25
ATOM     25  C   UNL     1      -1.761  -4.359  -0.290  0.00  0.00    +0.328 C 
BRANCH  25  26
ATOM     26  C   UNL     1      -2.415  -4.965   0.924  0.00  0.00    +0.255 C 
ATOM     27  O   UNL     1      -1.964  -4.747   2.029  0.00  0.00    -0.272 OA
ATOM     28  N   UNL     1      -3.502  -5.750   0.783  0.00  0.00    -0.283 N 
ATOM     29  H   UNL     1      -3.865  -6.012  -0.221  0.00  0.00    +0.155 HD
BRANCH  28  30
ATOM     30  C   UNL     1      -4.165  -6.231   1.911  0.00  0.00    +0.034 A 
ATOM     31  C   UNL     1      -3.442  -6.575   3.049  0.00  0.00    +0.024 A 
ATOM     32  C   UNL     1      -4.094  -7.045   4.166  0.00  0.00    +0.015 A 
ATOM     33  C   UNL     1      -5.484  -7.188   4.153  0.00  0.00    +0.037 A 
ATOM     34  C   UNL     1      -6.208  -6.848   3.007  0.00  0.00    +0.015 A 
ATOM     35  C   UNL     1      -5.549  -6.373   1.895  0.00  0.00    +0.024 A 
BRANCH  33  36
ATOM     36  C   UNL     1      -6.187  -7.697   5.347  0.00  0.00    +0.242 C 
ATOM     37  O   UNL     1      -7.396  -7.821   5.334  0.00  0.00    -0.270 OA
ATOM     38  N   UNL     1      -5.488  -8.025   6.452  0.00  0.00    -0.325 N 
ATOM     39  H   UNL     1      -6.011  -8.405   7.341  0.00  0.00    +0.145 HD
ATOM     40  H   UNL     1      -4.394  -7.913   6.463  0.00  0.00    +0.145 HD
ENDBRANCH  33  36
ENDBRANCH  28  30
ENDBRANCH  25  26
ENDBRANCH  24  25
ENDBRANCH  22  24
ENDBRANCH  14  22
TORSDOF 7
