REMARK  Name = ZINC39750064
REMARK  6 active torsions:
REMARK  status: ('A' for Active; 'I' for Inactive)
REMARK    1  A    between atoms: C_1  and  C_2
REMARK    2  A    between atoms: C_12  and  C_14
REMARK    3  A    between atoms: C_14  and  S_15
REMARK    4  A    between atoms: S_15  and  C_16
REMARK    5  A    between atoms: C_19  and  C_27
REMARK    6  A    between atoms: N_20  and  C_21
REMARK                            x       y       z     vdW  Elec       q    Type
REMARK                         _______ _______ _______ _____ _____    ______ ____
ROOT
ATOM      1  C   UNL     1       0.118  -1.986   9.982  0.00  0.00    +0.197 A 
ATOM      2  N   UNL     1       0.099  -0.719  10.330  0.00  0.00    -0.122 NA
ATOM      3  N   UNL     1       0.111  -0.611  11.610  0.00  0.00    -0.128 NA
ATOM      4  C   UNL     1       0.138  -1.803  12.162  0.00  0.00    +0.169 A 
ATOM      5  N   UNL     1       0.139  -2.723  11.136  0.00  0.00    -0.270 N 
ENDROOT
BRANCH   4   6
ATOM      6  C   UNL     1       0.160  -2.101  13.609  0.00  0.00    +0.023 A 
ATOM      7  C   UNL     1       0.506  -3.377  14.056  0.00  0.00    +0.015 A 
ATOM      8  C   UNL     1       0.526  -3.653  15.407  0.00  0.00    +0.050 A 
ATOM      9  C   UNL     1       0.202  -2.666  16.326  0.00  0.00    +0.166 A 
ATOM     10  C   UNL     1      -0.145  -1.389  15.886  0.00  0.00    +0.167 A 
ATOM     11  C   UNL     1      -0.161  -1.105  14.533  0.00  0.00    +0.061 A 
ATOM     12  O   UNL     1      -0.416  -0.612  16.976  0.00  0.00    -0.453 OA
ATOM     13  C   UNL     1      -0.629  -1.532  18.062  0.00  0.00    +0.466 C 
ATOM     14  O   UNL     1       0.148  -2.686  17.690  0.00  0.00    -0.453 OA
ENDBRANCH   4   6
BRANCH   5  15
ATOM     15  C   UNL     1       0.158  -4.120  11.250  0.00  0.00    +0.051 A 
ATOM     16  C   UNL     1      -0.920  -4.786  11.817  0.00  0.00    +0.026 A 
ATOM     17  C   UNL     1      -0.898  -6.163  11.927  0.00  0.00    +0.002 A 
ATOM     18  C   UNL     1       0.196  -6.877  11.474  0.00  0.00    +0.000 A 
ATOM     19  C   UNL     1       1.270  -6.216  10.909  0.00  0.00    +0.002 A 
ATOM     20  C   UNL     1       1.252  -4.840  10.791  0.00  0.00    +0.026 A 
ENDBRANCH   5  15
BRANCH   1  21
ATOM     21  S   UNL     1       0.112  -2.619   8.338  0.00  0.00    -0.076 S 
BRANCH  21  22
ATOM     22  C   UNL     1       0.083  -1.135   7.296  0.00  0.00    +0.173 C 
BRANCH  22  34
ATOM     23  C   UNL     1      -0.018   1.503   0.010  0.00  0.00    +0.046 C 
ATOM     24  C   UNL     1       0.002  -0.004   0.002  0.00  0.00    -0.024 A 
ATOM     25  C   UNL     1       0.005  -0.675  -1.193  0.00  0.00    +0.005 A 
ATOM     26  C   UNL     1       0.024  -2.061  -1.246  0.00  0.00    +0.001 A 
ATOM     27  C   UNL     1       0.040  -2.784  -0.067  0.00  0.00    +0.017 A 
ATOM     28  C   UNL     1       0.036  -2.121   1.134  0.00  0.00    +0.041 A 
ATOM     29  C   UNL     1       0.023  -0.710   1.227  0.00  0.00    +0.083 A 
ATOM     30  N   UNL     1       0.027  -0.206   2.480  0.00  0.00    -0.224 NA
ATOM     31  C   UNL     1       0.047  -0.969   3.547  0.00  0.00    +0.165 A 
ATOM     32  S   UNL     1       0.051  -2.611   2.842  0.00  0.00    -0.052 S 
ATOM     33  N   UNL     1       0.054  -0.597   4.882  0.00  0.00    -0.264 N 
ATOM     34  C   UNL     1       0.075  -1.540   5.845  0.00  0.00    +0.229 C 
ATOM     35  O   UNL     1       0.088  -2.714   5.543  0.00  0.00    -0.275 OA
ATOM     36  H   UNL     1       0.044   0.343   5.123  0.00  0.00    +0.157 HD
ENDBRANCH  22  34
ENDBRANCH  21  22
ENDBRANCH   1  21
TORSDOF 5
