REMARK  Name = ZINC63058670
REMARK  5 active torsions:
REMARK  status: ('A' for Active; 'I' for Inactive)
REMARK    1  A    between atoms: C_1  and  C_2
REMARK    2  A    between atoms: C_4  and  C_10
REMARK    3  A    between atoms: C_7  and  N_8
REMARK    4  A    between atoms: N_8  and  N_9
REMARK    5  A    between atoms: N_12  and  C_13
REMARK                            x       y       z     vdW  Elec       q    Type
REMARK                         _______ _______ _______ _____ _____    ______ ____
ROOT
ATOM      1  C   UNL     1       0.027  -2.816  -2.481  0.00  0.00    +0.248 C 
ATOM      2  O   UNL     1       0.004  -2.204  -3.531  0.00  0.00    -0.270 OA
ATOM      3  N   UNL     1       0.047  -4.163  -2.486  0.00  0.00    -0.281 N 
ATOM      4  H   UNL     1       0.133  -4.650  -1.651  0.00  0.00    +0.155 HD
ENDROOT
BRANCH   3   5
ATOM      5  C   UNL     1      -0.055  -4.860  -3.696  0.00  0.00    +0.037 A 
ATOM      6  C   UNL     1      -0.740  -6.067  -3.746  0.00  0.00    +0.027 A 
ATOM      7  C   UNL     1      -0.842  -6.756  -4.939  0.00  0.00    +0.051 A 
ATOM      8  C   UNL     1      -0.261  -6.245  -6.089  0.00  0.00    +0.166 A 
ATOM      9  C   UNL     1       0.427  -5.035  -6.042  0.00  0.00    +0.168 A 
ATOM     10  C   UNL     1       0.524  -4.342  -4.847  0.00  0.00    +0.072 A 
ATOM     11  O   UNL     1       0.899  -4.753  -7.291  0.00  0.00    -0.453 OA
ATOM     12  C   UNL     1       0.846  -5.997  -8.013  0.00  0.00    +0.466 C 
ATOM     13  O   UNL     1      -0.219  -6.721  -7.369  0.00  0.00    -0.453 OA
ENDBRANCH   3   5
BRANCH   1  17
ATOM     14  C   UNL     1      -0.009   1.503   0.011  0.00  0.00    +0.046 C 
ATOM     15  C   UNL     1       0.014  -0.004   0.003  0.00  0.00    -0.028 A 
ATOM     16  C   UNL     1       0.010  -0.685  -1.194  0.00  0.00    +0.018 A 
ATOM     17  C   UNL     1       0.031  -2.083  -1.201  0.00  0.00    +0.037 A 
ATOM     18  C   UNL     1       0.057  -2.785   0.008  0.00  0.00    +0.015 A 
ATOM     19  C   UNL     1       0.061  -2.098   1.201  0.00  0.00    +0.025 A 
ATOM     20  C   UNL     1       0.045  -0.706   1.204  0.00  0.00    +0.044 A 
BRANCH  20  21
ATOM     21  N   UNL     1       0.054  -0.015   2.411  0.00  0.00    -0.283 N 
ATOM     22  H   UNL     1       0.039   0.955   2.415  0.00  0.00    +0.166 HD
BRANCH  21  23
ATOM     23  N   UNL     1       0.084  -0.702   3.591  0.00  0.00    -0.257 NA
ATOM     24  H   UNL     1       0.876  -1.327   3.626  0.00  0.00    +0.140 HD
ATOM     25  H   UNL     1       0.088  -0.070   4.378  0.00  0.00    +0.140 HD
ENDBRANCH  21  23
ENDBRANCH  20  21
ENDBRANCH   1  17
TORSDOF 4
