REMARK  Name = ZINC61092752
REMARK  4 active torsions:
REMARK  status: ('A' for Active; 'I' for Inactive)
REMARK    1  A    between atoms: C_1  and  N_2
REMARK    2  A    between atoms: C_4  and  N_19
REMARK    3  A    between atoms: C_6  and  C_7
REMARK    4  A    between atoms: N_9  and  C_10
REMARK                            x       y       z     vdW  Elec       q    Type
REMARK                         _______ _______ _______ _____ _____    ______ ____
ROOT
ATOM      1  C   UNL     1      -0.433  -0.388   2.510  0.00  0.00    +0.265 C 
ATOM      2  O   UNL     1      -0.518  -1.194   3.418  0.00  0.00    -0.268 OA
ATOM      3  N   UNL     1      -0.392   0.932   2.782  0.00  0.00    -0.278 N 
ATOM      4  H   UNL     1      -0.359   1.576   2.057  0.00  0.00    +0.155 HD
ENDROOT
BRANCH   3   5
ATOM      5  C   UNL     1      -0.397   1.373   4.111  0.00  0.00    +0.072 A 
ATOM      6  C   UNL     1      -0.290   0.456   5.148  0.00  0.00    +0.067 A 
ATOM      7  C   UNL     1      -0.294   0.894   6.460  0.00  0.00    +0.160 A 
ATOM      8  C   UNL     1      -0.406   2.248   6.740  0.00  0.00    +0.161 A 
ATOM      9  C   UNL     1      -0.513   3.163   5.707  0.00  0.00    +0.081 A 
ATOM     10  C   UNL     1      -0.503   2.730   4.394  0.00  0.00    +0.147 A 
ATOM     11  F   UNL     1      -0.602   3.625   3.386  0.00  0.00    -0.203 F 
ATOM     12  F   UNL     1      -0.411   2.674   8.022  0.00  0.00    -0.202 F 
ATOM     13  F   UNL     1      -0.190   0.003   7.470  0.00  0.00    -0.202 F 
ENDBRANCH   3   5
BRANCH   1  19
ATOM     14  C   UNL     1      -0.716  -3.318   1.555  0.00  0.00    +0.149 C 
ATOM     15  N   UNL     1      -0.500  -2.153   0.693  0.00  0.00    -0.344 N 
ATOM     16  C   UNL     1      -0.396  -2.179  -0.663  0.00  0.00    +0.108 A 
ATOM     17  C   UNL     1      -0.201  -0.911  -1.110  0.00  0.00    +0.043 A 
ATOM     18  C   UNL     1      -0.182  -0.062   0.006  0.00  0.00    +0.055 A 
ATOM     19  C   UNL     1      -0.375  -0.852   1.120  0.00  0.00    +0.106 A 
BRANCH  17  20
ATOM     20  N   UNL     1      -0.046  -0.519  -2.453  0.00  0.00    -0.357 N 
ATOM     21  H   UNL     1      -0.074  -1.184  -3.158  0.00  0.00    +0.142 HD
ATOM     22  H   UNL     1       0.090   0.416  -2.673  0.00  0.00    +0.142 HD
ENDBRANCH  17  20
ENDBRANCH   1  19
TORSDOF 3
