REMARK  Name = ZINC39691162
REMARK  7 active torsions:
REMARK  status: ('A' for Active; 'I' for Inactive)
REMARK    1  A    between atoms: C_1  and  C_2
REMARK    2  A    between atoms: C_7  and  C_8
REMARK    3  A    between atoms: C_8  and  C_9
REMARK    4  A    between atoms: C_9  and  N_10
REMARK    5  A    between atoms: C_11  and  C_13
REMARK    6  A    between atoms: C_24  and  C_26
REMARK    7  A    between atoms: C_30  and  C_32
REMARK                            x       y       z     vdW  Elec       q    Type
REMARK                         _______ _______ _______ _____ _____    ______ ____
ROOT
ATOM      1  C   UNL     1      -2.752   1.589   6.013  0.00  0.00    +0.100 C 
ATOM      2  C   UNL     1      -2.136   0.959   7.282  0.00  0.00    +0.121 C 
ATOM      3  N   UNL     1      -2.987   1.445   8.393  0.00  0.00    -0.296 N 
ATOM      4  C   UNL     1      -4.365   1.405   7.846  0.00  0.00    +0.115 C 
ATOM      5  C   UNL     1      -4.215   1.880   6.387  0.00  0.00    -0.004 C 
ATOM      6  C   UNL     1      -4.498   3.376   6.287  0.00  0.00    -0.010 C 
ATOM      7  C   UNL     1      -5.973   3.634   6.608  0.00  0.00    -0.082 C 
ATOM      8  N   UNL     1      -6.818   2.891   5.666  0.00  0.00    +0.379 N 
ATOM      9  C   UNL     1      -6.607   1.448   5.833  0.00  0.00    -0.082 C 
ATOM     10  C   UNL     1      -5.159   1.097   5.479  0.00  0.00    -0.010 C 
ATOM     11  C   UNL     1      -2.597   1.835   9.622  0.00  0.00    +0.247 C 
ATOM     12  O   UNL     1      -1.414   1.934   9.882  0.00  0.00    -0.270 OA
ATOM     13  H   UNL     1      -7.788   3.110   5.841  0.00  0.00    -0.086 HD
ATOM     14  H   UNL     1      -6.581   3.157   4.722  0.00  0.00    -0.086 HD
ENDROOT
BRANCH  11  15
ATOM     15  C   UNL     1      -3.609   2.143  10.655  0.00  0.00    +0.037 A 
ATOM     16  C   UNL     1      -4.906   1.640  10.538  0.00  0.00    +0.014 A 
ATOM     17  C   UNL     1      -5.845   1.931  11.505  0.00  0.00    +0.016 A 
ATOM     18  C   UNL     1      -5.504   2.720  12.590  0.00  0.00    +0.021 A 
ATOM     19  C   UNL     1      -4.220   3.223  12.712  0.00  0.00    -0.036 A 
ATOM     20  C   UNL     1      -3.270   2.934  11.755  0.00  0.00    +0.017 A 
ATOM     21  C   UNL     1      -3.857   4.082  13.896  0.00  0.00    +0.045 C 
ATOM     22 BR   UNL     1      -6.798   3.115  13.911  0.00  0.00    -0.050 Br
ENDBRANCH  11  15
BRANCH   1  24
ATOM     23  N   UNL     1      -2.582   1.078   3.598  0.00  0.00    -0.315 N 
ATOM     24  C   UNL     1      -2.688   0.619   4.861  0.00  0.00    +0.218 C 
ATOM     25  O   UNL     1      -2.732  -0.575   5.071  0.00  0.00    -0.275 OA
ATOM     26  H   UNL     1      -2.547   2.032   3.431  0.00  0.00    +0.149 HD
BRANCH  23  27
ATOM     27  C   UNL     1      -2.520   0.135   2.479  0.00  0.00    +0.109 C 
BRANCH  27  28
ATOM     28  C   UNL     1      -2.403   0.910   1.165  0.00  0.00    +0.054 C 
BRANCH  28  35
ATOM     29  C   UNL     1      -4.841  -0.129   0.014  0.00  0.00    +0.044 C 
ATOM     30  C   UNL     1      -3.505  -0.557  -0.537  0.00  0.00    -0.047 A 
ATOM     31  C   UNL     1      -3.447  -1.442  -1.597  0.00  0.00    +0.003 A 
ATOM     32  C   UNL     1      -2.222  -1.835  -2.103  0.00  0.00    +0.000 A 
ATOM     33  C   UNL     1      -1.055  -1.343  -1.548  0.00  0.00    +0.000 A 
ATOM     34  C   UNL     1      -1.114  -0.457  -0.489  0.00  0.00    +0.004 A 
ATOM     35  C   UNL     1      -2.339  -0.060   0.013  0.00  0.00    -0.043 A 
ENDBRANCH  28  35
ENDBRANCH  27  28
ENDBRANCH  23  27
ENDBRANCH   1  24
TORSDOF 5
