REMARK  Name = ZINC32126203
REMARK  5 active torsions:
REMARK  status: ('A' for Active; 'I' for Inactive)
REMARK    1  A    between atoms: C_1  and  C_2
REMARK    2  A    between atoms: N_4  and  C_5
REMARK    3  A    between atoms: C_15  and  C_17
REMARK    4  A    between atoms: C_22  and  O_23
REMARK    5  A    between atoms: O_23  and  C_24
REMARK                            x       y       z     vdW  Elec       q    Type
REMARK                         _______ _______ _______ _____ _____    ______ ____
ROOT
ATOM      1  C   UNL     1       1.197  -0.731   0.079  0.00  0.00    +0.037 A 
ATOM      2  C   UNL     1       2.413  -0.058   0.171  0.00  0.00    +0.025 A 
ATOM      3  C   UNL     1       3.593  -0.762   0.248  0.00  0.00    +0.033 A 
ATOM      4  C   UNL     1       3.571  -2.158   0.234  0.00  0.00    +0.111 A 
ATOM      5  C   UNL     1       2.345  -2.835   0.142  0.00  0.00    +0.159 A 
ATOM      6  C   UNL     1       1.163  -2.116   0.070  0.00  0.00    +0.071 A 
ATOM      7  O   UNL     1       2.638  -4.155   0.150  0.00  0.00    -0.424 OA
ATOM      8  C   UNL     1       3.973  -4.289   0.243  0.00  0.00    +0.295 A 
ATOM      9  N   UNL     1       4.540  -3.113   0.294  0.00  0.00    -0.195 NA
ATOM     10  N   UNL     1       4.647  -5.495   0.279  0.00  0.00    -0.235 N 
ATOM     11  C   UNL     1       5.991  -5.513   0.374  0.00  0.00    +0.255 C 
ATOM     12  O   UNL     1       6.611  -4.468   0.428  0.00  0.00    -0.270 OA
ATOM     13  H   UNL     1       4.086  -6.440   0.231  0.00  0.00    +0.160 HD
ENDROOT
BRANCH  11  14
ATOM     14  C   UNL     1       6.710  -6.800   0.413  0.00  0.00    +0.081 A 
ATOM     15  C   UNL     1       6.002  -8.003   0.351  0.00  0.00    +0.032 A 
ATOM     16  C   UNL     1       6.680  -9.203   0.388  0.00  0.00    +0.020 A 
ATOM     17  C   UNL     1       8.063  -9.222   0.486  0.00  0.00    +0.034 A 
ATOM     18  C   UNL     1       8.775  -8.040   0.548  0.00  0.00    +0.061 A 
ATOM     19  C   UNL     1       8.108  -6.823   0.506  0.00  0.00    +0.146 A 
ATOM     20 BR   UNL     1      10.661  -8.079   0.682  0.00  0.00    -0.046 Br
ATOM     21 BR   UNL     1       5.720 -10.830   0.305  0.00  0.00    -0.050 Br
BRANCH  19  22
ATOM     22  O   UNL     1       8.807  -5.661   0.561  0.00  0.00    -0.493 OA
ATOM     23  C   UNL     1       9.056  -5.115   1.857  0.00  0.00    +0.277 C 
ENDBRANCH  19  22
ENDBRANCH  11  14
BRANCH   1  27
ATOM     24  C   UNL     1      -2.357   0.235  -0.701  0.00  0.00    +0.109 C 
ATOM     25  C   UNL     1      -1.032  -0.482  -0.719  0.00  0.00    +0.214 C 
ATOM     26  O   UNL     1      -0.897  -1.491  -1.377  0.00  0.00    -0.276 OA
ATOM     27  N   UNL     1       0.002  -0.004   0.002  0.00  0.00    -0.286 N 
ATOM     28  H   UNL     1      -0.092   0.957   0.529  0.00  0.00    +0.155 HD
ENDBRANCH   1  27
TORSDOF 3
