REMARK  Name = ZINC01499308
REMARK  5 active torsions:
REMARK  status: ('A' for Active; 'I' for Inactive)
REMARK    1  A    between atoms: C_1  and  C_2
REMARK    2  A    between atoms: C_5  and  O_9
REMARK    3  A    between atoms: O_9  and  C_10
REMARK    4  A    between atoms: C_10  and  C_11
REMARK    5  A    between atoms: N_13  and  N_14
REMARK                            x       y       z     vdW  Elec       q    Type
REMARK                         _______ _______ _______ _____ _____    ______ ____
ROOT
ATOM      1  C   UNL     1       1.176  -6.258   0.095  0.00  0.00    +0.270 C 
ATOM      2  O   UNL     1       0.092  -6.733   0.357  0.00  0.00    -0.270 OA
ATOM      3  N   UNL     1       2.231  -7.067  -0.127  0.00  0.00    -0.203 N 
ATOM      4  H   UNL     1       3.098  -6.687  -0.336  0.00  0.00    +0.177 HD
ENDROOT
BRANCH   3   5
ATOM      5  N   UNL     1       2.074  -8.457  -0.055  0.00  0.00    -0.174 NA
ATOM      6  C   UNL     1       3.119  -9.241  -0.163  0.00  0.00    +0.153 C 
ATOM      7  C   UNL     1       4.546  -8.845  -0.179  0.00  0.00    +0.031 A 
ATOM      8  C   UNL     1       5.194  -7.617  -0.093  0.00  0.00    +0.050 A 
ATOM      9  C   UNL     1       6.575  -7.567  -0.139  0.00  0.00    +0.124 A 
ATOM     10  C   UNL     1       7.308  -8.736  -0.270  0.00  0.00    +0.040 A 
ATOM     11  C   UNL     1       6.672  -9.958  -0.356  0.00  0.00    +0.027 A 
ATOM     12  C   UNL     1       5.284 -10.028  -0.312  0.00  0.00    +0.043 A 
ATOM     13  N   UNL     1       4.411 -11.110  -0.377  0.00  0.00    -0.280 N 
ATOM     14  C   UNL     1       3.130 -10.713  -0.289  0.00  0.00    +0.269 C 
ATOM     15  O   UNL     1       2.152 -11.437  -0.313  0.00  0.00    -0.268 OA
ATOM     16  F   UNL     1       7.210  -6.377  -0.056  0.00  0.00    -0.205 F 
ATOM     17  H   UNL     1       4.691 -12.034  -0.470  0.00  0.00    +0.155 HD
ENDBRANCH   3   5
BRANCH   1  18
ATOM     18  C   UNL     1       1.345  -4.762   0.018  0.00  0.00    +0.326 C 
BRANCH  18  19
ATOM     19  O   UNL     1       0.094  -4.127   0.289  0.00  0.00    -0.480 OA
BRANCH  19  24
ATOM     20  C   UNL     1       0.002   1.505   0.165  0.00  0.00    +0.044 C 
ATOM     21  C   UNL     1       0.027  -0.002   0.198  0.00  0.00    -0.048 A 
ATOM     22  C   UNL     1      -0.230  -0.722  -0.954  0.00  0.00    +0.022 A 
ATOM     23  C   UNL     1      -0.208  -2.103  -0.926  0.00  0.00    +0.061 A 
ATOM     24  C   UNL     1       0.072  -2.768   0.259  0.00  0.00    +0.149 A 
ATOM     25  C   UNL     1       0.330  -2.043   1.414  0.00  0.00    +0.061 A 
ATOM     26  C   UNL     1       0.312  -0.661   1.379  0.00  0.00    +0.022 A 
ATOM     27 BR   UNL     1       0.713  -2.944   3.032  0.00  0.00    -0.046 Br
ATOM     28 BR   UNL     1      -0.561  -3.087  -2.502  0.00  0.00    -0.046 Br
ENDBRANCH  19  24
ENDBRANCH  18  19
ENDBRANCH   1  18
TORSDOF 4
