REMARK  Name = ZINC20321023
REMARK  2 active torsions:
REMARK  status: ('A' for Active; 'I' for Inactive)
REMARK    1  A    between atoms: C_1  and  C_2
REMARK    2  A    between atoms: C_3  and  C_12
REMARK                            x       y       z     vdW  Elec       q    Type
REMARK                         _______ _______ _______ _____ _____    ______ ____
ROOT
ATOM      1  C   UNL     1      -0.096  -0.013  -1.362  0.00  0.00    +0.052 C 
ATOM      2  C   UNL     1      -0.096   1.468  -1.083  0.00  0.00    -0.003 A 
ATOM      3  C   UNL     1       0.966   2.294  -0.940  0.00  0.00    +0.005 A 
ATOM      4  C   UNL     1       0.725   3.708  -0.671  0.00  0.00    +0.055 A 
ATOM      5  C   UNL     1       1.655   4.766  -0.484  0.00  0.00    +0.128 A 
ATOM      6  N   UNL     1       1.204   5.988  -0.248  0.00  0.00    -0.220 NA
ATOM      7  C   UNL     1      -0.087   6.259  -0.181  0.00  0.00    +0.224 A 
ATOM      8  N   UNL     1      -0.997   5.319  -0.347  0.00  0.00    -0.228 NA
ATOM      9  C   UNL     1      -0.634   4.074  -0.586  0.00  0.00    +0.114 A 
ATOM     10  S   UNL     1      -1.496   2.551  -0.869  0.00  0.00    -0.073 S 
ATOM     11  N   UNL     1       3.015   4.522  -0.546  0.00  0.00    -0.343 N 
ATOM     12  H   UNL     1       3.729   5.346  -0.400  0.00  0.00    +0.144 HD
ATOM     13  H   UNL     1       3.383   3.504  -0.741  0.00  0.00    +0.144 HD
ENDROOT
BRANCH   3  14
ATOM     14  C   UNL     1       2.349   1.773  -1.055  0.00  0.00    -0.016 A 
ATOM     15  C   UNL     1       3.155   1.674   0.079  0.00  0.00    +0.009 A 
ATOM     16  C   UNL     1       4.440   1.182  -0.033  0.00  0.00    +0.016 A 
ATOM     17  C   UNL     1       4.932   0.798  -1.268  0.00  0.00    +0.018 A 
ATOM     18  C   UNL     1       4.138   0.899  -2.397  0.00  0.00    +0.016 A 
ATOM     19  C   UNL     1       2.850   1.384  -2.297  0.00  0.00    +0.009 A 
ATOM     20 BR   UNL     1       6.696   0.132  -1.414  0.00  0.00    -0.050 Br
ENDBRANCH   3  14
TORSDOF 1
