REMARK  Name = ZINC28387870
REMARK  8 active torsions:
REMARK  status: ('A' for Active; 'I' for Inactive)
REMARK    1  A    between atoms: C_1  and  C_2
REMARK    2  A    between atoms: C_5  and  C_8
REMARK    3  A    between atoms: C_11  and  S_14
REMARK    4  A    between atoms: N_12  and  N_13
REMARK    5  A    between atoms: S_14  and  C_15
REMARK    6  A    between atoms: C_15  and  C_17
REMARK    7  A    between atoms: C_15  and  C_18
REMARK    8  A    between atoms: N_20  and  C_21
REMARK                            x       y       z     vdW  Elec       q    Type
REMARK                         _______ _______ _______ _____ _____    ______ ____
ROOT
ATOM      1  S   UNL     1      -2.692  -2.874  -0.378  0.00  0.00    -0.072 S 
ENDROOT
BRANCH   1   5
ATOM      2  C   UNL     1      -2.472  -6.775  -0.395  0.00  0.00    +0.182 A 
ATOM      3  N   UNL     1      -1.288  -6.422   0.050  0.00  0.00    -0.127 NA
ATOM      4  N   UNL     1      -1.208  -5.141   0.112  0.00  0.00    -0.121 NA
ATOM      5  C   UNL     1      -2.335  -4.597  -0.290  0.00  0.00    +0.209 A 
ATOM      6  N   UNL     1      -3.181  -5.617  -0.620  0.00  0.00    -0.224 N 
BRANCH   2  11
ATOM      7  C   UNL     1      -4.351 -12.151  -1.219  0.00  0.00    +0.044 C 
ATOM      8  C   UNL     1      -3.859 -10.743  -1.004  0.00  0.00    -0.050 A 
ATOM      9  C   UNL     1      -2.721 -10.520  -0.249  0.00  0.00    +0.004 A 
ATOM     10  C   UNL     1      -2.265  -9.233  -0.047  0.00  0.00    +0.012 A 
ATOM     11  C   UNL     1      -2.954  -8.156  -0.607  0.00  0.00    +0.021 A 
ATOM     12  C   UNL     1      -4.105  -8.388  -1.363  0.00  0.00    +0.012 A 
ATOM     13  C   UNL     1      -4.547  -9.680  -1.561  0.00  0.00    +0.004 A 
ENDBRANCH   2  11
BRANCH   6  14
ATOM     14  N   UNL     1      -4.462  -5.511  -1.081  0.00  0.00    -0.295 N 
ATOM     15  H   UNL     1      -4.916  -4.519  -1.219  0.00  0.00    +0.163 HD
ATOM     16  H   UNL     1      -5.040  -6.417  -1.314  0.00  0.00    +0.163 HD
ENDBRANCH   6  14
ENDBRANCH   1   5
BRANCH   1  17
ATOM     17  C   UNL     1      -1.121  -2.197   0.216  0.00  0.00    +0.137 C 
ATOM     18  C   UNL     1      -0.912  -2.602   1.677  0.00  0.00    +0.029 C 
BRANCH  17  19
ATOM     19  C   UNL     1      -1.150  -0.694   0.111  0.00  0.00    +0.230 C 
ATOM     20  O   UNL     1      -2.211  -0.106   0.124  0.00  0.00    -0.274 OA
ATOM     21  N   UNL     1       0.002  -0.004   0.002  0.00  0.00    -0.283 N 
ATOM     22  H   UNL     1       0.957  -0.541  -0.102  0.00  0.00    +0.155 HD
BRANCH  21  23
ATOM     23  C   UNL     1      -0.016   1.396   0.021  0.00  0.00    +0.053 A 
ATOM     24  C   UNL     1      -1.058   2.070   0.642  0.00  0.00    +0.046 A 
ATOM     25  C   UNL     1      -1.071   3.452   0.665  0.00  0.00    +0.061 A 
ATOM     26  C   UNL     1      -0.050   4.164   0.058  0.00  0.00    +0.061 A 
ATOM     27  C   UNL     1       0.987   3.495  -0.568  0.00  0.00    +0.043 A 
ATOM     28  C   UNL     1       1.007   2.113  -0.588  0.00  0.00    +0.064 A 
ATOM     29 CL   UNL     1       2.309   1.274  -1.372  0.00  0.00    -0.082 Cl
ATOM     30 CL   UNL     1      -0.072   5.900   0.081  0.00  0.00    -0.082 Cl
ATOM     31 CL   UNL     1      -2.370   4.295   1.448  0.00  0.00    -0.082 Cl
ENDBRANCH  21  23
ENDBRANCH  17  19
ENDBRANCH   1  17
TORSDOF 6
