REMARK  Name = ZINC20181690
REMARK  8 active torsions:
REMARK  status: ('A' for Active; 'I' for Inactive)
REMARK    1  A    between atoms: C_1  and  C_2
REMARK    2  A    between atoms: C_6  and  C_8
REMARK    3  A    between atoms: C_8  and  S_9
REMARK    4  A    between atoms: S_9  and  C_10
REMARK    5  A    between atoms: C_15  and  C_30
REMARK    6  A    between atoms: C_17  and  C_21
REMARK    7  A    between atoms: C_18  and  C_20
REMARK    8  A    between atoms: N_23  and  C_24
REMARK                            x       y       z     vdW  Elec       q    Type
REMARK                         _______ _______ _______ _____ _____    ______ ____
ROOT
ATOM      1  C   UNL     1      -3.287   3.320   1.557  0.00  0.00    +0.211 A 
ATOM      2  N   UNL     1      -3.875   3.611   0.388  0.00  0.00    -0.187 NA
ATOM      3  C   UNL     1      -5.005   4.226   0.609  0.00  0.00    +0.219 A 
ATOM      4  N   UNL     1      -5.164   4.346   1.950  0.00  0.00    -0.220 N 
ATOM      5  N   UNL     1      -4.050   3.749   2.539  0.00  0.00    -0.141 NA
ATOM      6  C   UNL     1      -6.316   4.992   2.573  0.00  0.00    +0.180 C 
ATOM      7  C   UNL     1      -7.388   5.210   1.539  0.00  0.00    +0.060 C 
ATOM      8  C   UNL     1      -7.174   5.072   0.222  0.00  0.00    +0.018 C 
ATOM      9  N   UNL     1      -5.951   4.706  -0.286  0.00  0.00    -0.287 N 
ATOM     10  C   UNL     1      -8.313   5.325  -0.731  0.00  0.00    +0.061 C 
ATOM     11  H   UNL     1      -5.708   4.781  -1.356  0.00  0.00    +0.155 HD
ENDROOT
BRANCH   6  12
ATOM     12  C   UNL     1      -5.896   6.320   3.149  0.00  0.00    +0.017 A 
ATOM     13  C   UNL     1      -5.371   7.297   2.324  0.00  0.00    +0.009 A 
ATOM     14  C   UNL     1      -4.986   8.515   2.853  0.00  0.00    +0.001 A 
ATOM     15  C   UNL     1      -5.127   8.758   4.207  0.00  0.00    +0.003 A 
ATOM     16  C   UNL     1      -5.651   7.783   5.033  0.00  0.00    +0.039 A 
ATOM     17  C   UNL     1      -6.042   6.564   4.504  0.00  0.00    +0.129 A 
ATOM     18  F   UNL     1      -6.560   5.612   5.311  0.00  0.00    -0.205 F 
ENDBRANCH   6  12
BRANCH   7  19
ATOM     19  C   UNL     1      -8.682   5.579   1.976  0.00  0.00    +0.248 C 
ATOM     20  O   UNL     1      -9.540   5.869   1.163  0.00  0.00    -0.270 OA
ATOM     21  N   UNL     1      -8.965   5.608   3.294  0.00  0.00    -0.282 N 
ATOM     22  H   UNL     1      -8.171   5.416   4.031  0.00  0.00    +0.155 HD
BRANCH  21  23
ATOM     23  C   UNL     1     -10.267   5.884   3.724  0.00  0.00    +0.034 A 
ATOM     24  C   UNL     1     -11.055   6.787   3.022  0.00  0.00    +0.023 A 
ATOM     25  C   UNL     1     -12.342   7.053   3.446  0.00  0.00    +0.002 A 
ATOM     26  C   UNL     1     -12.842   6.429   4.574  0.00  0.00    +0.000 A 
ATOM     27  C   UNL     1     -12.059   5.533   5.278  0.00  0.00    +0.002 A 
ATOM     28  C   UNL     1     -10.773   5.259   4.856  0.00  0.00    +0.023 A 
ENDBRANCH  21  23
ENDBRANCH   7  19
BRANCH   1  29
ATOM     29  S   UNL     1      -1.745   2.489   1.748  0.00  0.00    -0.080 S 
BRANCH  29  30
ATOM     30  C   UNL     1      -1.210   2.161   0.046  0.00  0.00    +0.112 C 
BRANCH  30  36
ATOM     31  C   UNL     1       1.411  -2.102   0.147  0.00  0.00    +0.044 C 
ATOM     32  C   UNL     1       1.369  -0.596   0.111  0.00  0.00    -0.050 A 
ATOM     33  C   UNL     1       2.547   0.128   0.089  0.00  0.00    +0.003 A 
ATOM     34  C   UNL     1       2.509   1.509   0.056  0.00  0.00    +0.001 A 
ATOM     35  C   UNL     1       1.293   2.167   0.045  0.00  0.00    +0.004 A 
ATOM     36  C   UNL     1       0.116   1.444   0.066  0.00  0.00    -0.037 A 
ATOM     37  C   UNL     1       0.154   0.062   0.099  0.00  0.00    +0.007 A 
ENDBRANCH  30  36
ENDBRANCH  29  30
ENDBRANCH   1  29
TORSDOF 6
