REMARK  Name = ZINC33821696
REMARK  10 active torsions:
REMARK  status: ('A' for Active; 'I' for Inactive)
REMARK    1  A    between atoms: C_1  and  C_2
REMARK    2  A    between atoms: C_2  and  C_3
REMARK    3  A    between atoms: C_3  and  C_5
REMARK    4  A    between atoms: C_3  and  C_27
REMARK    5  A    between atoms: C_7  and  C_15
REMARK    6  A    between atoms: C_12  and  C_13
REMARK    7  A    between atoms: C_12  and  C_14
REMARK    8  A    between atoms: N_17  and  N_18
REMARK    9  A    between atoms: C_19  and  C_21
REMARK   10  A    between atoms: C_27  and  C_29
REMARK                            x       y       z     vdW  Elec       q    Type
REMARK                         _______ _______ _______ _____ _____    ______ ____
ROOT
ATOM      1  C   UNL     1       4.883   0.997   0.571  0.00  0.00    +0.066 C 
ATOM      2  C   UNL     1       6.200   1.799   0.663  0.00  0.00    +0.192 C 
ATOM      3  C   UNL     1       6.516   1.846   2.144  0.00  0.00    +0.320 C 
ATOM      4  O   UNL     1       7.243   2.641   2.689  0.00  0.00    -0.250 OA
ATOM      5  O   UNL     1       5.845   0.847   2.747  0.00  0.00    -0.458 OA
ATOM      6  C   UNL     1       4.578   0.648   2.043  0.00  0.00    +0.113 C 
ATOM      7  C   UNL     1       3.507   1.588   2.601  0.00  0.00    +0.056 C 
ATOM      8  C   UNL     1       4.123  -0.808   2.161  0.00  0.00    +0.056 C 
ENDROOT
BRANCH   2   9
ATOM      9  C   UNL     1       7.299   1.093  -0.089  0.00  0.00    +0.243 C 
ATOM     10  O   UNL     1       7.071   0.044  -0.653  0.00  0.00    -0.273 OA
ATOM     11  N   UNL     1       8.536   1.627  -0.133  0.00  0.00    -0.233 N 
ATOM     12  H   UNL     1       8.743   2.578   0.379  0.00  0.00    +0.173 HD
BRANCH  11  13
ATOM     13  N   UNL     1       9.557   0.971  -0.832  0.00  0.00    -0.230 N 
ATOM     14  C   UNL     1      10.794   1.505  -0.877  0.00  0.00    +0.260 C 
ATOM     15  O   UNL     1      11.023   2.556  -0.311  0.00  0.00    -0.269 OA
ATOM     16  H   UNL     1       9.350   0.020  -1.345  0.00  0.00    +0.173 HD
BRANCH  14  17
ATOM     17  C   UNL     1      11.872   0.813  -1.615  0.00  0.00    +0.038 A 
ATOM     18  C   UNL     1      11.614  -0.397  -2.261  0.00  0.00    +0.013 A 
ATOM     19  C   UNL     1      12.623  -1.035  -2.953  0.00  0.00    +0.001 A 
ATOM     20  C   UNL     1      13.891  -0.484  -2.997  0.00  0.00    +0.000 A 
ATOM     21  C   UNL     1      14.155   0.713  -2.353  0.00  0.00    +0.001 A 
ATOM     22  C   UNL     1      13.153   1.364  -1.663  0.00  0.00    +0.013 A 
ENDBRANCH  14  17
ENDBRANCH  11  13
ENDBRANCH   2   9
BRANCH   1  23
ATOM     23  C   UNL     1       3.767   1.857  -0.024  0.00  0.00    +0.068 C 
BRANCH  23  25
ATOM     24  C   UNL     1       3.071   3.197  -2.015  0.00  0.00    +0.004 C 
ATOM     25  C   UNL     1       4.125   2.236  -1.462  0.00  0.00    +0.008 C 
ENDBRANCH  23  25
BRANCH  23  26
ATOM     26  C   UNL     1       2.475   1.081  -0.016  0.00  0.00    +0.167 C 
ATOM     27  O   UNL     1       2.497  -0.132  -0.022  0.00  0.00    -0.292 OA
BRANCH  26  28
ATOM     28  C   UNL     1       1.188   1.793   0.000  0.00  0.00    +0.018 A 
ATOM     29  C   UNL     1      -0.013   1.076   0.008  0.00  0.00    +0.012 A 
ATOM     30  C   UNL     1      -1.214   1.750   0.017  0.00  0.00    +0.016 A 
ATOM     31  C   UNL     1      -1.235   3.135   0.030  0.00  0.00    +0.018 A 
ATOM     32  C   UNL     1      -0.050   3.853   0.022  0.00  0.00    +0.016 A 
ATOM     33  C   UNL     1       1.159   3.192   0.008  0.00  0.00    +0.012 A 
ATOM     34 BR   UNL     1      -2.889   4.052   0.050  0.00  0.00    -0.050 Br
ENDBRANCH  26  28
ENDBRANCH  23  26
ENDBRANCH   1  23
TORSDOF 7
