REMARK  Name = ZINC36290584
REMARK  3 active torsions:
REMARK  status: ('A' for Active; 'I' for Inactive)
REMARK    1  A    between atoms: C_1  and  C_2
REMARK    2  A    between atoms: C_11  and  N_20
REMARK    3  A    between atoms: C_12  and  C_14
REMARK                            x       y       z     vdW  Elec       q    Type
REMARK                         _______ _______ _______ _____ _____    ______ ____
ROOT
ATOM      1  C   UNL     1      -0.019   1.526   0.010  0.00  0.00    +0.008 C 
ATOM      2  C   UNL     1       0.002  -0.004   0.002  0.00  0.00    -0.009 C 
ATOM      3  C   UNL     1      -1.433  -0.538   0.022  0.00  0.00    +0.010 C 
ATOM      4  C   UNL     1      -1.430  -2.047  -0.223  0.00  0.00    +0.055 C 
ATOM      5  C   UNL     1      -0.472  -2.707   0.766  0.00  0.00    +0.037 A 
ATOM      6  C   UNL     1       0.463  -1.982   1.389  0.00  0.00    +0.013 A 
ATOM      7  S   UNL     1       1.309  -3.159   2.411  0.00  0.00    -0.054 S 
ATOM      8  C   UNL     1       0.354  -4.587   1.948  0.00  0.00    +0.180 A 
ATOM      9  N   UNL     1      -0.542  -4.070   1.048  0.00  0.00    -0.278 N 
ATOM     10  C   UNL     1      -1.322  -5.148   0.647  0.00  0.00    +0.129 A 
ATOM     11  C   UNL     1      -0.871  -6.250   1.311  0.00  0.00    +0.112 A 
ATOM     12  N   UNL     1       0.165  -5.862   2.104  0.00  0.00    -0.219 NA
ATOM     13  C   UNL     1       0.736  -0.517   1.250  0.00  0.00    +0.047 C 
ENDROOT
BRANCH  11  14
ATOM     14  C   UNL     1      -1.410  -7.621   1.190  0.00  0.00    +0.007 A 
ATOM     15  C   UNL     1      -2.778  -7.841   0.988  0.00  0.00    +0.030 A 
ATOM     16  C   UNL     1      -3.238  -9.136   0.880  0.00  0.00    +0.111 A 
ATOM     17  N   UNL     1      -2.409 -10.159   0.967  0.00  0.00    -0.263 NA
ATOM     18  C   UNL     1      -1.112  -9.996   1.157  0.00  0.00    +0.111 A 
ATOM     19  C   UNL     1      -0.566  -8.736   1.270  0.00  0.00    +0.030 A 
ENDBRANCH  11  14
BRANCH  10  20
ATOM     20  N   UNL     1      -2.374  -5.109  -0.267  0.00  0.00    -0.342 N 
ATOM     21  H   UNL     1      -2.620  -4.271  -0.688  0.00  0.00    +0.144 HD
ATOM     22  H   UNL     1      -2.860  -5.921  -0.481  0.00  0.00    +0.144 HD
ENDBRANCH  10  20
TORSDOF 2
