REMARK  Name = ZINC40752195
REMARK  5 active torsions:
REMARK  status: ('A' for Active; 'I' for Inactive)
REMARK    1  A    between atoms: C_9  and  O_11
REMARK    2  A    between atoms: O_11  and  C_12
REMARK    3  A    between atoms: C_13  and  N_27
REMARK    4  A    between atoms: C_14  and  N_18
REMARK    5  A    between atoms: N_18  and  C_19
REMARK                            x       y       z     vdW  Elec       q    Type
REMARK                         _______ _______ _______ _____ _____    ______ ____
ROOT
ATOM      1  C   UNL     1       0.006  -2.696   0.053  0.00  0.00    +0.246 A 
ATOM      2  C   UNL     1      -0.043  -4.085   0.169  0.00  0.00    +0.128 A 
ATOM      3  C   UNL     1      -1.294  -4.693   0.304  0.00  0.00    +0.151 A 
ATOM      4  N   UNL     1      -2.383  -3.928   0.316  0.00  0.00    -0.218 NA
ATOM      5  C   UNL     1      -2.291  -2.619   0.203  0.00  0.00    +0.227 A 
ATOM      6  N   UNL     1      -1.131  -2.007   0.080  0.00  0.00    -0.199 NA
ENDROOT
BRANCH   2   7
ATOM      7  N   UNL     1       1.133  -4.852   0.151  0.00  0.00    -0.351 N 
ATOM      8  H   UNL     1       1.994  -4.416   0.057  0.00  0.00    +0.143 HD
ATOM      9  H   UNL     1       1.084  -5.817   0.233  0.00  0.00    +0.143 HD
ENDBRANCH   2   7
BRANCH   3  10
ATOM     10  N   UNL     1      -1.399  -6.074   0.422  0.00  0.00    -0.296 N 
ATOM     11  H   UNL     1      -0.599  -6.616   0.500  0.00  0.00    +0.154 HD
BRANCH  10  12
ATOM     12  C   UNL     1      -2.659  -6.681   0.430  0.00  0.00    +0.068 A 
ATOM     13  C   UNL     1      -3.740  -6.048  -0.168  0.00  0.00    +0.027 A 
ATOM     14  C   UNL     1      -4.984  -6.650  -0.160  0.00  0.00    +0.017 A 
ATOM     15  C   UNL     1      -5.154  -7.883   0.444  0.00  0.00    +0.021 A 
ATOM     16  C   UNL     1      -4.079  -8.518   1.042  0.00  0.00    +0.055 A 
ATOM     17  C   UNL     1      -2.831  -7.923   1.032  0.00  0.00    +0.145 A 
ATOM     18  F   UNL     1      -1.780  -8.545   1.610  0.00  0.00    -0.204 F 
ATOM     19 BR   UNL     1      -6.858  -8.702   0.454  0.00  0.00    -0.050 Br
ENDBRANCH  10  12
ENDBRANCH   3  10
BRANCH   1  20
ATOM     20  O   UNL     1       1.196  -2.058  -0.079  0.00  0.00    -0.434 OA
BRANCH  20  29
ATOM     21  C   UNL     1       1.265   1.385  -1.281  0.00  0.00    +0.004 A 
ATOM     22  C   UNL     1       1.192   2.098  -0.123  0.00  0.00    +0.010 A 
ATOM     23  C   UNL     1       1.117   1.427   1.108  0.00  0.00    +0.004 A 
ATOM     24  C   UNL     1       1.040   2.134   2.323  0.00  0.00    +0.011 A 
ATOM     25  C   UNL     1       0.968   1.417   3.483  0.00  0.00    +0.020 A 
ATOM     26  C   UNL     1       0.973   0.024   3.440  0.00  0.00    +0.111 A 
ATOM     27  N   UNL     1       1.045  -0.631   2.307  0.00  0.00    -0.251 NA
ATOM     28  C   UNL     1       1.117   0.011   1.137  0.00  0.00    +0.113 A 
ATOM     29  C   UNL     1       1.194  -0.700  -0.079  0.00  0.00    +0.156 A 
ATOM     30  C   UNL     1       1.266  -0.007  -1.266  0.00  0.00    +0.048 A 
ENDBRANCH  20  29
ENDBRANCH   1  20
TORSDOF 5
