REMARK  Name = ZINC09135431
REMARK  10 active torsions:
REMARK  status: ('A' for Active; 'I' for Inactive)
REMARK    1  A    between atoms: C_1  and  N_2
REMARK    2  A    between atoms: C_10  and  C_12
REMARK    3  A    between atoms: C_12  and  C_14
REMARK    4  A    between atoms: C_12  and  N_59
REMARK    5  A    between atoms: C_14  and  N_15
REMARK    6  A    between atoms: C_16  and  C_18
REMARK    7  A    between atoms: N_20  and  C_21
REMARK    8  A    between atoms: C_26  and  C_27
REMARK    9  A    between atoms: C_31  and  N_59
REMARK   10  A    between atoms: C_32  and  N_59
REMARK                            x       y       z     vdW  Elec       q    Type
REMARK                         _______ _______ _______ _____ _____    ______ ____
ROOT
ATOM      1  N   UNL     1       5.632  -1.667   3.426  0.00  0.00    -0.309 N 
ATOM      2  C   UNL     1       6.894  -2.105   3.243  0.00  0.00    +0.299 C 
ATOM      3  O   UNL     1       7.170  -3.267   3.461  0.00  0.00    -0.265 OA
ATOM      4  H   UNL     1       5.412  -0.739   3.252  0.00  0.00    +0.149 HD
ENDROOT
BRANCH   2   5
ATOM      5  C   UNL     1       7.952  -1.161   2.774  0.00  0.00    +0.303 C 
ATOM      6  O   UNL     1       7.675   0.001   2.557  0.00  0.00    -0.265 OA
ATOM      7  N   UNL     1       9.213  -1.599   2.592  0.00  0.00    -0.277 N 
ATOM      8  H   UNL     1       9.419  -2.541   2.696  0.00  0.00    +0.155 HD
BRANCH   7   9
ATOM      9  C   UNL     1      10.224  -0.697   2.252  0.00  0.00    +0.045 A 
ATOM     10  C   UNL     1      10.185   0.606   2.733  0.00  0.00    +0.024 A 
ATOM     11  C   UNL     1      11.188   1.495   2.399  0.00  0.00    +0.002 A 
ATOM     12  C   UNL     1      12.226   1.092   1.579  0.00  0.00    +0.001 A 
ATOM     13  C   UNL     1      12.265  -0.203   1.094  0.00  0.00    +0.014 A 
ATOM     14  C   UNL     1      11.268  -1.098   1.428  0.00  0.00    +0.076 A 
BRANCH  14  15
ATOM     15  C   UNL     1      11.311  -2.508   0.898  0.00  0.00    +0.419 C 
ATOM     16  F   UNL     1      12.447  -2.671   0.098  0.00  0.00    -0.166 F 
ATOM     17  F   UNL     1      11.362  -3.407   1.969  0.00  0.00    -0.166 F 
ATOM     18  F   UNL     1      10.165  -2.756   0.136  0.00  0.00    -0.166 F 
ENDBRANCH  14  15
ENDBRANCH   7   9
ENDBRANCH   2   5
BRANCH   1  19
ATOM     19  C   UNL     1       4.595  -2.593   3.886  0.00  0.00    +0.094 C 
BRANCH  19  20
ATOM     20  C   UNL     1       3.295  -1.823   4.128  0.00  0.00    -0.021 C 
BRANCH  20  30
ATOM     21  C   UNL     1       0.218  -0.293  -1.173  0.00  0.00    +0.129 C 
ATOM     22  N   UNL     1       1.477   0.357  -0.787  0.00  0.00    -0.333 N 
ATOM     23  C   UNL     1       1.344   1.815  -0.811  0.00  0.00    +0.105 C 
ATOM     24  C   UNL     1       2.677   2.437  -0.374  0.00  0.00    +0.024 C 
ATOM     25  C   UNL     1       2.882   2.118   1.108  0.00  0.00    +0.038 C 
ATOM     26  C   UNL     1       2.610   0.655   1.355  0.00  0.00    -0.026 A 
ATOM     27  C   UNL     1       1.937  -0.131   0.435  0.00  0.00    +0.033 A 
ATOM     28  C   UNL     1       1.701  -1.475   0.727  0.00  0.00    +0.023 A 
ATOM     29  C   UNL     1       2.137  -2.019   1.916  0.00  0.00    +0.004 A 
ATOM     30  C   UNL     1       2.813  -1.230   2.828  0.00  0.00    -0.059 A 
ATOM     31  C   UNL     1       3.048   0.101   2.547  0.00  0.00    +0.007 A 
ENDBRANCH  20  30
BRANCH  20  34
ATOM     32  C   UNL     1       2.671  -3.269   5.967  0.00  0.00    -0.096 C 
ATOM     33  C   UNL     1       0.963  -2.080   4.729  0.00  0.00    -0.096 C 
ATOM     34  N   UNL     1       2.272  -2.761   4.638  0.00  0.00    +0.382 N 
ATOM     35  H   UNL     1       2.192  -3.552   3.988  0.00  0.00    -0.082 HD
ENDBRANCH  20  34
ENDBRANCH  19  20
ENDBRANCH   1  19
TORSDOF 7
