REMARK  Name = ZINC04127928
REMARK  7 active torsions:
REMARK  status: ('A' for Active; 'I' for Inactive)
REMARK    1  A    between atoms: C_1  and  C_2
REMARK    2  A    between atoms: C_7  and  N_12
REMARK    3  A    between atoms: C_9  and  C_11
REMARK    4  A    between atoms: C_13  and  C_15
REMARK    5  A    between atoms: C_23  and  C_33
REMARK    6  A    between atoms: N_29  and  C_30
REMARK    7  A    between atoms: N_35  and  C_36
REMARK                            x       y       z     vdW  Elec       q    Type
REMARK                         _______ _______ _______ _____ _____    ______ ____
ROOT
ATOM      1  C   UNL     1      -2.812   1.317  -3.165  0.00  0.00    +0.199 C 
ATOM      2  C   UNL     1      -4.128   0.610  -3.130  0.00  0.00    +0.127 C 
ATOM      3  C   UNL     1      -5.256   1.498  -2.638  0.00  0.00    +0.009 C 
ATOM      4  C   UNL     1      -6.346   0.746  -2.671  0.00  0.00    +0.004 C 
ATOM      5  C   UNL     1      -5.863  -0.634  -3.132  0.00  0.00    +0.155 C 
ATOM      6  O   UNL     1      -4.748  -0.263  -4.045  0.00  0.00    -0.358 OA
ATOM      7  C   UNL     1      -5.088  -1.156  -1.860  0.00  0.00    +0.123 C 
ATOM      8  C   UNL     1      -3.773  -0.432  -1.995  0.00  0.00    +0.128 C 
ATOM      9  C   UNL     1      -3.146   0.462  -1.004  0.00  0.00    +0.224 C 
ATOM     10  O   UNL     1      -3.203   0.356   0.202  0.00  0.00    -0.275 OA
ATOM     11  N   UNL     1      -2.485   1.439  -1.709  0.00  0.00    -0.283 N 
ENDROOT
BRANCH   1  13
ATOM     12  N   UNL     1      -2.866   2.804  -5.141  0.00  0.00    -0.311 N 
ATOM     13  C   UNL     1      -2.947   2.676  -3.802  0.00  0.00    +0.237 C 
ATOM     14  O   UNL     1      -3.128   3.655  -3.109  0.00  0.00    -0.274 OA
ATOM     15  H   UNL     1      -2.721   2.021  -5.695  0.00  0.00    +0.149 HD
BRANCH  12  21
ATOM     16  C   UNL     1      -4.114   5.188  -9.288  0.00  0.00    +0.008 C 
ATOM     17  C   UNL     1      -3.624   5.347  -7.848  0.00  0.00    -0.009 C 
ATOM     18  C   UNL     1      -2.264   6.048  -7.846  0.00  0.00    +0.003 C 
ATOM     19  C   UNL     1      -1.774   6.206  -6.405  0.00  0.00    +0.002 C 
ATOM     20  C   UNL     1      -1.637   4.826  -5.758  0.00  0.00    +0.022 C 
ATOM     21  C   UNL     1      -2.997   4.125  -5.760  0.00  0.00    +0.076 C 
ATOM     22  C   UNL     1      -3.487   3.967  -7.201  0.00  0.00    +0.009 C 
ATOM     23  C   UNL     1      -2.480   3.130  -7.993  0.00  0.00    +0.009 C 
ENDBRANCH  12  21
ENDBRANCH   1  13
BRANCH   7  24
ATOM     24  C   UNL     1      -5.798  -0.757  -0.592  0.00  0.00    +0.224 C 
ATOM     25  O   UNL     1      -5.293   0.051   0.158  0.00  0.00    -0.275 OA
ATOM     26  N   UNL     1      -6.995  -1.299  -0.291  0.00  0.00    -0.285 N 
ATOM     27  H   UNL     1      -7.435  -1.886  -0.926  0.00  0.00    +0.155 HD
BRANCH  26  28
ATOM     28  C   UNL     1      -7.604  -1.013   0.936  0.00  0.00    +0.033 A 
ATOM     29  C   UNL     1      -6.825  -0.810   2.068  0.00  0.00    +0.025 A 
ATOM     30  C   UNL     1      -7.428  -0.524   3.277  0.00  0.00    +0.022 A 
ATOM     31  C   UNL     1      -8.807  -0.450   3.364  0.00  0.00    +0.041 A 
ATOM     32  C   UNL     1      -9.586  -0.657   2.239  0.00  0.00    +0.022 A 
ATOM     33  C   UNL     1      -8.988  -0.938   1.026  0.00  0.00    +0.025 A 
ATOM     34 CL   UNL     1      -9.562  -0.098   4.887  0.00  0.00    -0.084 Cl
ENDBRANCH  26  28
ENDBRANCH   7  24
BRANCH  11  35
ATOM     35  C   UNL     1      -1.599   2.449  -1.124  0.00  0.00    +0.077 C 
ATOM     36  C   UNL     1      -0.366   1.954  -0.367  0.00  0.00    +0.024 C 
ATOM     37  C   UNL     1      -1.548   2.546   0.402  0.00  0.00    +0.024 C 
ENDBRANCH  11  35
TORSDOF 5
