REMARK  Name = ZINC09135601
REMARK  7 active torsions:
REMARK  status: ('A' for Active; 'I' for Inactive)
REMARK    1  A    between atoms: C_1  and  N_2
REMARK    2  A    between atoms: C_10  and  C_12
REMARK    3  A    between atoms: C_12  and  C_14
REMARK    4  A    between atoms: C_12  and  N_60
REMARK    5  A    between atoms: C_14  and  N_15
REMARK    6  A    between atoms: C_16  and  C_18
REMARK    7  A    between atoms: N_20  and  C_21
REMARK                            x       y       z     vdW  Elec       q    Type
REMARK                         _______ _______ _______ _____ _____    ______ ____
ROOT
ATOM      1  C   UNL     1       3.756  -2.316   4.120  0.00  0.00    -0.020 C 
ENDROOT
BRANCH   1  11
ATOM      2  C   UNL     1      -1.209  -1.361   0.332  0.00  0.00    +0.129 C 
ATOM      3  N   UNL     1       0.117  -0.801   0.037  0.00  0.00    -0.333 N 
ATOM      4  C   UNL     1       0.033   0.638  -0.222  0.00  0.00    +0.105 C 
ATOM      5  C   UNL     1       1.445   1.171  -0.496  0.00  0.00    +0.024 C 
ATOM      6  C   UNL     1       2.243   1.084   0.807  0.00  0.00    +0.038 C 
ATOM      7  C   UNL     1       2.052  -0.277   1.429  0.00  0.00    -0.026 A 
ATOM      8  C   UNL     1       1.031  -1.125   1.038  0.00  0.00    +0.033 A 
ATOM      9  C   UNL     1       0.895  -2.366   1.662  0.00  0.00    +0.023 A 
ATOM     10  C   UNL     1       1.772  -2.748   2.655  0.00  0.00    +0.004 A 
ATOM     11  C   UNL     1       2.794  -1.899   3.037  0.00  0.00    -0.059 A 
ATOM     12  C   UNL     1       2.931  -0.669   2.425  0.00  0.00    +0.007 A 
ENDBRANCH   1  11
BRANCH   1  17
ATOM     13  C   UNL     1       4.717  -3.993   2.640  0.00  0.00    -0.078 C 
ATOM     14  C   UNL     1       5.450  -5.342   2.851  0.00  0.00    -0.020 C 
ATOM     15  C   UNL     1       5.974  -5.227   4.301  0.00  0.00    -0.020 C 
ATOM     16  C   UNL     1       5.078  -4.168   4.970  0.00  0.00    -0.078 C 
ATOM     17  N   UNL     1       4.104  -3.759   3.957  0.00  0.00    +0.385 N 
ATOM     18  H   UNL     1       3.251  -4.324   4.047  0.00  0.00    -0.081 HD
ENDBRANCH   1  17
BRANCH   1  19
ATOM     19  C   UNL     1       3.111  -2.092   5.489  0.00  0.00    +0.094 C 
BRANCH  19  20
ATOM     20  N   UNL     1       2.889  -0.659   5.696  0.00  0.00    -0.309 N 
ATOM     21  C   UNL     1       2.232  -0.231   6.793  0.00  0.00    +0.299 C 
ATOM     22  O   UNL     1       1.825  -1.032   7.608  0.00  0.00    -0.265 OA
ATOM     23  H   UNL     1       3.214  -0.019   5.045  0.00  0.00    +0.149 HD
BRANCH  21  24
ATOM     24  C   UNL     1       2.006   1.230   7.004  0.00  0.00    +0.303 C 
ATOM     25  O   UNL     1       2.413   2.032   6.189  0.00  0.00    -0.265 OA
ATOM     26  N   UNL     1       1.349   1.658   8.101  0.00  0.00    -0.278 N 
ATOM     27  H   UNL     1       1.089   1.026   8.788  0.00  0.00    +0.155 HD
BRANCH  26  28
ATOM     28  C   UNL     1       1.044   3.015   8.247  0.00  0.00    +0.037 A 
ATOM     29  C   UNL     1       1.024   3.591   9.512  0.00  0.00    +0.026 A 
ATOM     30  C   UNL     1       0.728   4.932   9.655  0.00  0.00    +0.043 A 
ATOM     31  C   UNL     1       0.440   5.701   8.541  0.00  0.00    +0.159 A 
ATOM     32  C   UNL     1       0.454   5.129   7.278  0.00  0.00    +0.160 A 
ATOM     33  C   UNL     1       0.755   3.787   7.130  0.00  0.00    +0.064 A 
ATOM     34  F   UNL     1       0.173   5.881   6.192  0.00  0.00    -0.202 F 
ATOM     35  F   UNL     1       0.145   7.012   8.684  0.00  0.00    -0.202 F 
ENDBRANCH  26  28
ENDBRANCH  21  24
ENDBRANCH  19  20
ENDBRANCH   1  19
TORSDOF 6
