REMARK  Name = ZINC52010982
REMARK  4 active torsions:
REMARK  status: ('A' for Active; 'I' for Inactive)
REMARK    1  A    between atoms: C_6  and  S_7
REMARK    2  A    between atoms: S_7  and  N_10
REMARK    3  A    between atoms: N_10  and  C_11
REMARK    4  A    between atoms: C_17  and  O_19
REMARK                            x       y       z     vdW  Elec       q    Type
REMARK                         _______ _______ _______ _____ _____    ______ ____
ROOT
ATOM      1  S   UNL     1      -1.513  -0.904   0.009  0.00  0.00    +0.059 S 
ATOM      2  O   UNL     1      -1.222  -2.185   0.551  0.00  0.00    -0.153 OA
ATOM      3  O   UNL     1      -2.494  -0.043   0.572  0.00  0.00    -0.153 OA
ENDROOT
BRANCH   1   9
ATOM      4  C   UNL     1      -0.017   1.378   0.010  0.00  0.00    +0.030 A 
ATOM      5  C   UNL     1       1.171   2.083   0.002  0.00  0.00    +0.025 A 
ATOM      6  C   UNL     1       2.383   1.403  -0.012  0.00  0.00    +0.030 A 
ATOM      7  C   UNL     1       2.401   0.017  -0.017  0.00  0.00    -0.025 A 
ATOM      8  C   UNL     1       1.206  -0.682  -0.011  0.00  0.00    +0.034 A 
ATOM      9  C   UNL     1       0.002  -0.004   0.002  0.00  0.00    +0.106 A 
ATOM     10  C   UNL     1       3.696  -0.753  -0.021  0.00  0.00    +0.038 C 
ATOM     11  C   UNL     1       4.839   0.126  -0.526  0.00  0.00    +0.023 C 
ATOM     12  C   UNL     1       4.838   1.442   0.261  0.00  0.00    +0.102 C 
ATOM     13  N   UNL     1       3.575   2.136  -0.025  0.00  0.00    -0.344 N 
ATOM     14  H   UNL     1       3.568   3.086  -0.219  0.00  0.00    +0.146 HD
ENDBRANCH   1   9
BRANCH   1  15
ATOM     15  N   UNL     1      -1.946  -1.145  -1.571  0.00  0.00    -0.184 NA
ATOM     16  H   UNL     1      -2.753  -0.735  -1.921  0.00  0.00    +0.148 HD
BRANCH  15  17
ATOM     17  C   UNL     1      -1.112  -1.978  -2.440  0.00  0.00    +0.105 C 
ATOM     18  C   UNL     1      -0.144  -1.089  -3.223  0.00  0.00    +0.023 C 
ATOM     19  C   UNL     1       0.727  -1.959  -4.131  0.00  0.00    +0.002 C 
ATOM     20  C   UNL     1      -0.164  -2.727  -5.109  0.00  0.00    +0.003 C 
ATOM     21  C   UNL     1      -1.132  -3.617  -4.326  0.00  0.00    +0.033 C 
ATOM     22  C   UNL     1      -2.003  -2.747  -3.418  0.00  0.00    +0.133 C 
BRANCH  22  23
ATOM     23  O   UNL     1      -2.907  -3.578  -2.687  0.00  0.00    -0.390 OA
ATOM     24  H   UNL     1      -3.504  -4.095  -3.244  0.00  0.00    +0.210 HD
ENDBRANCH  22  23
ENDBRANCH  15  17
ENDBRANCH   1  15
TORSDOF 4
