REMARK  Name = ZINC20570345
REMARK  8 active torsions:
REMARK  status: ('A' for Active; 'I' for Inactive)
REMARK    1  A    between atoms: C_1  and  O_2
REMARK    2  A    between atoms: O_2  and  C_3
REMARK    3  A    between atoms: C_3  and  C_5
REMARK    4  A    between atoms: C_9  and  N_10
REMARK    5  A    between atoms: C_11  and  C_13
REMARK    6  A    between atoms: C_17  and  N_19
REMARK    7  A    between atoms: N_19  and  S_20
REMARK    8  A    between atoms: S_20  and  C_23
REMARK                            x       y       z     vdW  Elec       q    Type
REMARK                         _______ _______ _______ _____ _____    ______ ____
ROOT
ATOM      1  N   UNL     1      -4.111  -4.156  -0.130  0.00  0.00    -0.275 N 
ATOM      2  C   UNL     1      -2.946  -3.561  -0.455  0.00  0.00    +0.249 C 
ATOM      3  O   UNL     1      -2.212  -4.072  -1.280  0.00  0.00    -0.270 OA
ATOM      4  H   UNL     1      -4.774  -3.695   0.616  0.00  0.00    +0.156 HD
ENDROOT
BRANCH   1   9
ATOM      5  C   UNL     1      -5.615  -6.107  -0.531  0.00  0.00    +0.091 A 
ATOM      6  C   UNL     1      -5.762  -7.332  -1.307  0.00  0.00    -0.021 A 
ATOM      7  C   UNL     1      -4.737  -7.603  -2.143  0.00  0.00    -0.004 A 
ATOM      8  S   UNL     1      -3.603  -6.259  -1.925  0.00  0.00    -0.077 S 
ATOM      9  C   UNL     1      -4.472  -5.348  -0.735  0.00  0.00    +0.087 A 
ATOM     10  C   UNL     1      -4.582  -8.786  -3.046  0.00  0.00    +0.043 C 
ATOM     11  C   UNL     1      -5.875  -8.986  -3.847  0.00  0.00    +0.005 C 
ATOM     12  C   UNL     1      -6.799  -9.901  -3.050  0.00  0.00    +0.001 C 
ATOM     13  C   UNL     1      -6.606  -9.668  -1.553  0.00  0.00    +0.005 C 
ATOM     14  C   UNL     1      -6.981  -8.237  -1.184  0.00  0.00    +0.037 C 
BRANCH   5  15
ATOM     15  C   UNL     1      -6.640  -5.690   0.428  0.00  0.00    +0.342 C 
ATOM     16  O   UNL     1      -7.559  -4.980   0.066  0.00  0.00    -0.245 OA
BRANCH  15  18
ATOM     17  C   UNL     1      -7.616  -5.642   2.608  0.00  0.00    +0.280 C 
ATOM     18  O   UNL     1      -6.566  -6.094   1.713  0.00  0.00    -0.464 OA
ENDBRANCH  15  18
ENDBRANCH   5  15
ENDBRANCH   1   9
BRANCH   2  19
ATOM     19  C   UNL     1      -2.560  -2.289   0.190  0.00  0.00    +0.039 A 
ATOM     20  C   UNL     1      -3.401  -1.701   1.137  0.00  0.00    +0.013 A 
ATOM     21  C   UNL     1      -3.039  -0.513   1.739  0.00  0.00    +0.003 A 
ATOM     22  C   UNL     1      -1.842   0.097   1.411  0.00  0.00    +0.024 A 
ATOM     23  C   UNL     1      -1.000  -0.478   0.465  0.00  0.00    +0.049 A 
ATOM     24  C   UNL     1      -1.355  -1.671  -0.144  0.00  0.00    +0.037 A 
BRANCH  23  25
ATOM     25  N   UNL     1       0.206   0.145   0.134  0.00  0.00    -0.216 N 
ATOM     26  H   UNL     1       1.057   0.101   0.829  0.00  0.00    +0.174 HD
BRANCH  25  27
ATOM     27  S   UNL     1       0.353   0.950  -1.306  0.00  0.00    +0.072 S 
ATOM     28  O   UNL     1       1.658   1.513  -1.325  0.00  0.00    -0.150 OA
ATOM     29  O   UNL     1      -0.108   0.063  -2.316  0.00  0.00    -0.150 OA
BRANCH  27  30
ATOM     30  C   UNL     1      -0.778   2.300  -1.267  0.00  0.00    +0.108 A 
ATOM     31  C   UNL     1      -2.033   2.167  -1.830  0.00  0.00    +0.029 A 
ATOM     32  C   UNL     1      -2.922   3.225  -1.794  0.00  0.00    +0.002 A 
ATOM     33  C   UNL     1      -2.552   4.419  -1.205  0.00  0.00    +0.000 A 
ATOM     34  C   UNL     1      -1.295   4.554  -0.646  0.00  0.00    +0.002 A 
ATOM     35  C   UNL     1      -0.408   3.494  -0.677  0.00  0.00    +0.029 A 
ENDBRANCH  27  30
ENDBRANCH  25  27
ENDBRANCH  23  25
ENDBRANCH   2  19
TORSDOF 7
