REMARK  Name = ZINC04038051
REMARK  6 active torsions:
REMARK  status: ('A' for Active; 'I' for Inactive)
REMARK    1  A    between atoms: C_1  and  C_2
REMARK    2  A    between atoms: C_3  and  C_23
REMARK    3  A    between atoms: N_4  and  C_17
REMARK    4  A    between atoms: C_5  and  N_16
REMARK    5  A    between atoms: C_6  and  S_7
REMARK    6  A    between atoms: S_7  and  C_10
REMARK                            x       y       z     vdW  Elec       q    Type
REMARK                         _______ _______ _______ _____ _____    ______ ____
ROOT
ATOM      1  C   UNL     1      -3.422   4.615   0.043  0.00  0.00    +0.047 C 
ATOM      2  C   UNL     1      -2.773   3.255   0.033  0.00  0.00    -0.003 A 
ATOM      3  C   UNL     1      -3.410   2.068   0.029  0.00  0.00    +0.022 A 
ATOM      4  N   UNL     1      -2.467   1.074   0.020  0.00  0.00    -0.329 N 
ATOM      5  C   UNL     1      -1.229   1.647   0.017  0.00  0.00    +0.123 A 
ATOM      6  C   UNL     1      -1.387   2.993   0.031  0.00  0.00    +0.136 A 
ATOM      7  C   UNL     1      -4.904   1.869   0.036  0.00  0.00    +0.064 C 
ENDROOT
BRANCH   4   8
ATOM      8  C   UNL     1      -2.743  -0.365   0.013  0.00  0.00    +0.089 C 
ATOM      9  C   UNL     1      -2.125  -1.009   1.256  0.00  0.00    +0.025 C 
ATOM     10  C   UNL     1      -2.413  -2.511   1.248  0.00  0.00    +0.002 C 
ATOM     11  C   UNL     1      -1.806  -3.141  -0.007  0.00  0.00    +0.000 C 
ATOM     12  C   UNL     1      -2.425  -2.497  -1.250  0.00  0.00    +0.002 C 
ATOM     13  C   UNL     1      -2.136  -0.995  -1.243  0.00  0.00    +0.025 C 
ENDBRANCH   4   8
BRANCH   6  14
ATOM     14  S   UNL     1      -0.099   4.195   0.040  0.00  0.00    +0.029 S 
ATOM     15  O   UNL     1      -0.650   5.377   0.605  0.00  0.00    -0.164 OA
ATOM     16  O   UNL     1       1.049   3.556   0.582  0.00  0.00    -0.164 OA
BRANCH  14  17
ATOM     17  C   UNL     1       0.278   4.568  -1.640  0.00  0.00    +0.094 A 
ATOM     18  C   UNL     1       1.246   3.843  -2.308  0.00  0.00    +0.027 A 
ATOM     19  C   UNL     1       1.539   4.132  -3.628  0.00  0.00    +0.002 A 
ATOM     20  C   UNL     1       0.870   5.154  -4.276  0.00  0.00    +0.000 A 
ATOM     21  C   UNL     1      -0.095   5.883  -3.606  0.00  0.00    +0.002 A 
ATOM     22  C   UNL     1      -0.391   5.590  -2.288  0.00  0.00    +0.027 A 
ENDBRANCH  14  17
ENDBRANCH   6  14
BRANCH   5  23
ATOM     23  N   UNL     1      -0.011   0.966   0.007  0.00  0.00    -0.343 N 
ATOM     24  H   UNL     1       0.002  -0.004   0.002  0.00  0.00    +0.144 HD
ATOM     25  H   UNL     1       0.822   1.462   0.002  0.00  0.00    +0.144 HD
ENDBRANCH   5  23
TORSDOF 4
