REMARK  Name = ZINC65920996
REMARK  3 active torsions:
REMARK  status: ('A' for Active; 'I' for Inactive)
REMARK    1  A    between atoms: C_2  and  C_10
REMARK    2  A    between atoms: N_12  and  N_13
REMARK    3  A    between atoms: N_16  and  C_17
REMARK                            x       y       z     vdW  Elec       q    Type
REMARK                         _______ _______ _______ _____ _____    ______ ____
ROOT
ATOM      1  C   UNL     1       1.172   3.564   0.009  0.00  0.00    +0.262 C 
ATOM      2  O   UNL     1       2.219   4.181   0.003  0.00  0.00    -0.269 OA
ATOM      3  N   UNL     1      -0.001   4.227   0.024  0.00  0.00    -0.229 N 
ATOM      4  H   UNL     1      -0.837   3.735   0.029  0.00  0.00    +0.173 HD
ENDROOT
BRANCH   1   6
ATOM      5  C   UNL     1      -0.017   1.375   0.010  0.00  0.00    +0.055 A 
ATOM      6  C   UNL     1       1.185   2.088   0.002  0.00  0.00    +0.059 A 
ATOM      7  C   UNL     1       2.400   1.397  -0.013  0.00  0.00    +0.056 A 
ATOM      8  C   UNL     1       2.407   0.017  -0.021  0.00  0.00    +0.062 A 
ATOM      9  C   UNL     1       1.213  -0.684  -0.013  0.00  0.00    +0.160 A 
ATOM     10  C   UNL     1       0.002  -0.004   0.002  0.00  0.00    +0.159 A 
ATOM     11  F   UNL     1      -1.159  -0.694   0.010  0.00  0.00    -0.202 F 
ATOM     12  F   UNL     1       1.226  -2.035  -0.021  0.00  0.00    -0.202 F 
ATOM     13 CL   UNL     1       3.898   2.275  -0.024  0.00  0.00    -0.083 Cl
ENDBRANCH   1   6
BRANCH   3  14
ATOM     14  N   UNL     1      -0.014   5.628   0.031  0.00  0.00    -0.218 N 
ATOM     15  C   UNL     1      -1.187   6.291   0.045  0.00  0.00    +0.316 C 
ATOM     16  O   UNL     1      -1.198   7.507   0.052  0.00  0.00    -0.251 OA
ATOM     17  N   UNL     1      -2.348   5.607   0.053  0.00  0.00    -0.295 N 
ATOM     18  H   UNL     1       0.821   6.121   0.026  0.00  0.00    +0.174 HD
ATOM     19  H   UNL     1      -2.340   4.637   0.048  0.00  0.00    +0.151 HD
BRANCH  17  20
ATOM     20  C   UNL     1      -3.624   6.328   0.068  0.00  0.00    +0.074 C 
ATOM     21  C   UNL     1      -4.043   6.628   1.522  0.00  0.00    +0.022 C 
ATOM     22  C   UNL     1      -5.582   6.456   1.517  0.00  0.00    +0.002 C 
ATOM     23  C   UNL     1      -5.788   5.247   0.571  0.00  0.00    +0.002 C 
ATOM     24  C   UNL     1      -4.733   5.449  -0.537  0.00  0.00    +0.022 C 
ENDBRANCH  17  20
ENDBRANCH   3  14
TORSDOF 3
