REMARK  Name = ZINC40415847
REMARK  3 active torsions:
REMARK  status: ('A' for Active; 'I' for Inactive)
REMARK    1  A    between atoms: C_4  and  C_7
REMARK    2  A    between atoms: C_19  and  N_22
REMARK    3  A    between atoms: N_25  and  C_26
REMARK                            x       y       z     vdW  Elec       q    Type
REMARK                         _______ _______ _______ _____ _____    ______ ____
ROOT
ATOM      1  C   UNL     1       3.614  -0.658  -0.097  0.00  0.00    +0.247 C 
ATOM      2  O   UNL     1       2.551  -0.102   0.098  0.00  0.00    -0.270 OA
ATOM      3  N   UNL     1       3.660  -2.000  -0.216  0.00  0.00    -0.296 N 
ATOM      4  C   UNL     1       4.976  -2.630  -0.318  0.00  0.00    +0.109 C 
ATOM      5  C   UNL     1       5.365  -3.128   1.059  0.00  0.00    +0.038 C 
ATOM      6  C   UNL     1       4.803  -4.532   1.296  0.00  0.00    +0.108 C 
ATOM      7  N   UNL     1       3.431  -4.684   0.790  0.00  0.00    -0.315 N 
ATOM      8  C   UNL     1       2.398  -3.680   0.975  0.00  0.00    +0.125 C 
ATOM      9  C   UNL     1       2.426  -2.706  -0.229  0.00  0.00    +0.127 C 
ATOM     10  C   UNL     1       3.105  -5.849   0.100  0.00  0.00    +0.099 A 
ATOM     11  C   UNL     1       1.859  -5.962  -0.508  0.00  0.00    +0.043 A 
ATOM     12  C   UNL     1       1.546  -7.123  -1.191  0.00  0.00    +0.028 A 
ATOM     13  C   UNL     1       2.498  -8.140  -1.243  0.00  0.00    +0.051 A 
ATOM     14  C   UNL     1       3.719  -7.957  -0.613  0.00  0.00    +0.107 A 
ATOM     15  N   UNL     1       3.986  -6.833   0.025  0.00  0.00    -0.348 N 
ATOM     16  H   UNL     1       4.850  -6.728   0.454  0.00  0.00    +0.167 HD
ENDROOT
BRANCH   1  20
ATOM     17  C   UNL     1       7.184   1.624  -0.398  0.00  0.00    +0.000 A 
ATOM     18  C   UNL     1       6.080   1.969  -1.157  0.00  0.00    +0.001 A 
ATOM     19  C   UNL     1       4.918   1.231  -1.064  0.00  0.00    +0.013 A 
ATOM     20  C   UNL     1       4.857   0.136  -0.202  0.00  0.00    +0.037 A 
ATOM     21  C   UNL     1       5.974  -0.206   0.562  0.00  0.00    +0.013 A 
ATOM     22  C   UNL     1       7.130   0.540   0.460  0.00  0.00    +0.001 A 
ENDBRANCH   1  20
BRANCH  13  23
ATOM     23  N   UNL     1       2.223  -9.335  -1.924  0.00  0.00    -0.268 N 
ATOM     24  C   UNL     1       1.369  -9.335  -2.968  0.00  0.00    +0.308 C 
ATOM     25  O   UNL     1       0.909  -8.286  -3.376  0.00  0.00    -0.252 OA
ATOM     26  N   UNL     1       1.027 -10.497  -3.558  0.00  0.00    -0.269 N 
ATOM     27  H   UNL     1       2.647 -10.161  -1.645  0.00  0.00    +0.156 HD
ATOM     28  H   UNL     1       1.337 -11.338  -3.189  0.00  0.00    +0.156 HD
BRANCH  26  29
ATOM     29  C   UNL     1       0.222 -10.489  -4.704  0.00  0.00    +0.038 A 
ATOM     30  C   UNL     1      -0.692 -11.512  -4.919  0.00  0.00    +0.026 A 
ATOM     31  C   UNL     1      -1.485 -11.504  -6.049  0.00  0.00    +0.043 A 
ATOM     32  C   UNL     1      -1.370 -10.477  -6.970  0.00  0.00    +0.159 A 
ATOM     33  C   UNL     1      -0.457  -9.454  -6.759  0.00  0.00    +0.160 A 
ATOM     34  C   UNL     1       0.334  -9.456  -5.625  0.00  0.00    +0.064 A 
ATOM     35  F   UNL     1      -0.346  -8.452  -7.659  0.00  0.00    -0.202 F 
ATOM     36  F   UNL     1      -2.147 -10.470  -8.075  0.00  0.00    -0.202 F 
ENDBRANCH  26  29
ENDBRANCH  13  23
TORSDOF 3
