REMARK  Name = ZINC09311000
REMARK  7 active torsions:
REMARK  status: ('A' for Active; 'I' for Inactive)
REMARK    1  A    between atoms: C_4  and  C_7
REMARK    2  A    between atoms: C_7  and  N_9
REMARK    3  A    between atoms: C_10  and  C_11
REMARK    4  A    between atoms: C_12  and  C_24
REMARK    5  A    between atoms: N_15  and  C_18
REMARK    6  A    between atoms: C_24  and  S_25
REMARK    7  A    between atoms: S_25  and  C_26
REMARK                            x       y       z     vdW  Elec       q    Type
REMARK                         _______ _______ _______ _____ _____    ______ ____
ROOT
ATOM      1  C   UNL     1       4.958  -3.944   0.311  0.00  0.00    +0.100 A 
ATOM      2  C   UNL     1       6.047  -4.797   0.280  0.00  0.00    +0.059 A 
ATOM      3  N   UNL     1       5.596  -6.065   0.274  0.00  0.00    -0.293 N 
ATOM      4  H   UNL     1       6.158  -6.855   0.254  0.00  0.00    +0.187 HD
ATOM      5  N   UNL     1       4.198  -6.075   0.300  0.00  0.00    -0.219 N 
ATOM      6  C   UNL     1       3.759  -4.799   0.329  0.00  0.00    +0.282 A 
ATOM      7  O   UNL     1       2.601  -4.428   0.361  0.00  0.00    -0.265 OA
ENDROOT
BRANCH   5   8
ATOM      8  C   UNL     1       3.390  -7.216   0.302  0.00  0.00    +0.067 A 
ATOM      9  C   UNL     1       3.969  -8.479   0.281  0.00  0.00    +0.028 A 
ATOM     10  C   UNL     1       3.168  -9.604   0.283  0.00  0.00    +0.002 A 
ATOM     11  C   UNL     1       1.791  -9.474   0.305  0.00  0.00    +0.000 A 
ATOM     12  C   UNL     1       1.212  -8.219   0.325  0.00  0.00    +0.002 A 
ATOM     13  C   UNL     1       2.007  -7.090   0.330  0.00  0.00    +0.028 A 
ENDBRANCH   5   8
BRANCH   1  15
ATOM     14  N   UNL     1       6.148  -1.840   0.213  0.00  0.00    -0.161 NA
ATOM     15  C   UNL     1       4.991  -2.479   0.328  0.00  0.00    +0.123 C 
ATOM     16  N   UNL     1       3.828  -1.770   0.464  0.00  0.00    -0.344 N 
ATOM     17  H   UNL     1       3.016  -2.085   0.038  0.00  0.00    +0.144 HD
ATOM     18  H   UNL     1       3.817  -0.953   0.986  0.00  0.00    +0.144 HD
BRANCH  14  19
ATOM     19  C   UNL     1       6.167  -0.509   0.074  0.00  0.00    +0.269 C 
ATOM     20  O   UNL     1       5.122   0.106  -0.040  0.00  0.00    -0.268 OA
BRANCH  19  24
ATOM     21  C   UNL     1       9.872   1.572   0.031  0.00  0.00    +0.000 A 
ATOM     22  C   UNL     1       8.687   2.273  -0.099  0.00  0.00    +0.001 A 
ATOM     23  C   UNL     1       7.481   1.603  -0.086  0.00  0.00    +0.013 A 
ATOM     24  C   UNL     1       7.458   0.216   0.058  0.00  0.00    +0.039 A 
ATOM     25  C   UNL     1       8.657  -0.485   0.189  0.00  0.00    +0.013 A 
ATOM     26  C   UNL     1       9.857   0.196   0.175  0.00  0.00    +0.001 A 
ENDBRANCH  19  24
ENDBRANCH  14  19
ENDBRANCH   1  15
BRANCH   2  27
ATOM     27  C   UNL     1       7.494  -4.377   0.257  0.00  0.00    +0.130 C 
BRANCH  27  28
ATOM     28  S   UNL     1       8.218  -4.610   1.904  0.00  0.00    -0.119 S 
BRANCH  28  29
ATOM     29  C   UNL     1       9.888  -4.082   1.715  0.00  0.00    +0.008 A 
ATOM     30  C   UNL     1      10.336  -3.618   0.484  0.00  0.00    +0.016 A 
ATOM     31  C   UNL     1      11.645  -3.204   0.339  0.00  0.00    +0.021 A 
ATOM     32  C   UNL     1      12.511  -3.252   1.417  0.00  0.00    +0.041 A 
ATOM     33  C   UNL     1      12.068  -3.713   2.644  0.00  0.00    +0.021 A 
ATOM     34  C   UNL     1      10.758  -4.123   2.797  0.00  0.00    +0.016 A 
ATOM     35 CL   UNL     1      14.157  -2.731   1.230  0.00  0.00    -0.084 Cl
ENDBRANCH  28  29
ENDBRANCH  27  28
ENDBRANCH   2  27
TORSDOF 7
