REMARK  Name = ZINC16572328
REMARK  9 active torsions:
REMARK  status: ('A' for Active; 'I' for Inactive)
REMARK    1  A    between atoms: C_1  and  C_2
REMARK    2  A    between atoms: C_2  and  C_3
REMARK    3  A    between atoms: C_3  and  C_5
REMARK    4  A    between atoms: C_3  and  C_6
REMARK    5  A    between atoms: C_6  and  C_8
REMARK    6  A    between atoms: C_6  and  N_23
REMARK    7  A    between atoms: C_14  and  C_16
REMARK    8  A    between atoms: N_26  and  C_27
REMARK    9  A    between atoms: C_31  and  C_33
REMARK                            x       y       z     vdW  Elec       q    Type
REMARK                         _______ _______ _______ _____ _____    ______ ____
ROOT
ATOM      1  C   UNL     1       2.640   8.000   0.310  0.00  0.00    +0.163 C 
ENDROOT
BRANCH   1   2
ATOM      2  C   UNL     1       2.173   9.279  -0.336  0.00  0.00    +0.239 C 
ATOM      3  O   UNL     1       1.041   9.365  -0.762  0.00  0.00    -0.273 OA
ATOM      4  N   UNL     1       3.013  10.328  -0.439  0.00  0.00    -0.262 N 
ATOM      5  C   UNL     1       2.553  11.540  -0.939  0.00  0.00    +0.188 A 
ATOM      6  N   UNL     1       1.346  11.880  -1.372  0.00  0.00    -0.125 NA
ATOM      7  N   UNL     1       1.093  13.041  -1.795  0.00  0.00    -0.140 NA
ATOM      8  C   UNL     1       2.022  13.988  -1.843  0.00  0.00    +0.134 A 
ATOM      9  S   UNL     1       3.423  13.085  -1.190  0.00  0.00    -0.030 S 
ATOM     10  H   UNL     1       3.939  10.236  -0.165  0.00  0.00    +0.157 HD
BRANCH   8  11
ATOM     11  C   UNL     1       1.927  15.389  -2.305  0.00  0.00    +0.009 A 
ATOM     12  C   UNL     1       3.048  16.220  -2.260  0.00  0.00    +0.012 A 
ATOM     13  C   UNL     1       2.954  17.524  -2.697  0.00  0.00    +0.016 A 
ATOM     14  C   UNL     1       1.749  18.014  -3.170  0.00  0.00    +0.018 A 
ATOM     15  C   UNL     1       0.632  17.197  -3.212  0.00  0.00    +0.016 A 
ATOM     16  C   UNL     1       0.714  15.889  -2.783  0.00  0.00    +0.012 A 
ATOM     17 BR   UNL     1       1.628  19.806  -3.761  0.00  0.00    -0.050 Br
ENDBRANCH   8  11
ENDBRANCH   1   2
BRANCH   1  18
ATOM     18  N   UNL     1       1.541   7.031   0.325  0.00  0.00    -0.288 N 
ATOM     19  C   UNL     1       1.794   5.723   0.120  0.00  0.00    +0.304 C 
ATOM     20  O   UNL     1       2.941   5.336   0.005  0.00  0.00    -0.252 OA
ATOM     21  N   UNL     1       0.775   4.844   0.042  0.00  0.00    -0.269 N 
ATOM     22  H   UNL     1       0.632   7.331   0.483  0.00  0.00    +0.151 HD
ATOM     23  H   UNL     1      -0.142   5.161   0.066  0.00  0.00    +0.156 HD
BRANCH  21  24
ATOM     24  C   UNL     1       1.039   3.475  -0.073  0.00  0.00    +0.035 A 
ATOM     25  C   UNL     1       2.132   3.037  -0.809  0.00  0.00    +0.023 A 
ATOM     26  C   UNL     1       2.390   1.685  -0.921  0.00  0.00    +0.002 A 
ATOM     27  C   UNL     1       1.561   0.767  -0.302  0.00  0.00    +0.003 A 
ATOM     28  C   UNL     1       0.469   1.200   0.426  0.00  0.00    -0.049 A 
ATOM     29  C   UNL     1       0.208   2.551   0.547  0.00  0.00    +0.026 A 
ATOM     30  C   UNL     1      -0.436   0.197   1.095  0.00  0.00    +0.044 C 
ENDBRANCH  21  24
ENDBRANCH   1  18
BRANCH   1  31
ATOM     31  C   UNL     1       3.086   8.287   1.745  0.00  0.00    +0.015 C 
ATOM     32  C   UNL     1       3.719   7.029   2.344  0.00  0.00    +0.010 C 
BRANCH  31  34
ATOM     33  C   UNL     1       1.345  10.046   2.091  0.00  0.00    +0.004 C 
ATOM     34  C   UNL     1       1.874   8.697   2.584  0.00  0.00    +0.002 C 
ENDBRANCH  31  34
ENDBRANCH   1  31
TORSDOF 6
