REMARK  Name = ZINC01062035
REMARK  10 active torsions:
REMARK  status: ('A' for Active; 'I' for Inactive)
REMARK    1  A    between atoms: C_1  and  O_2
REMARK    2  A    between atoms: O_2  and  C_3
REMARK    3  A    between atoms: C_5  and  C_13
REMARK    4  A    between atoms: C_7  and  O_11
REMARK    5  A    between atoms: C_8  and  O_9
REMARK    6  A    between atoms: O_9  and  C_10
REMARK    7  A    between atoms: O_11  and  C_12
REMARK    8  A    between atoms: C_16  and  C_27
REMARK    9  A    between atoms: C_22  and  N_26
REMARK   10  A    between atoms: C_23  and  C_24
REMARK                            x       y       z     vdW  Elec       q    Type
REMARK                         _______ _______ _______ _____ _____    ______ ____
ROOT
ATOM      1  C   UNL     1       2.462   0.340   4.203  0.00  0.00    +0.102 C 
ATOM      2  C   UNL     1       1.831  -0.007   5.527  0.00  0.00    +0.058 A 
ATOM      3  C   UNL     1       0.564   0.300   6.004  0.00  0.00    +0.173 A 
ATOM      4  N   UNL     1       0.448  -0.209   7.208  0.00  0.00    -0.167 NA
ATOM      5  N   UNL     1       1.648  -0.860   7.532  0.00  0.00    -0.246 N 
ATOM      6  H   UNL     1       1.839  -1.325   8.361  0.00  0.00    +0.192 HD
ATOM      7  C   UNL     1       2.483  -0.725   6.490  0.00  0.00    +0.223 A 
ATOM      8  O   UNL     1       3.752  -1.178   6.332  0.00  0.00    -0.423 OA
ATOM      9  C   UNL     1       4.471  -0.676   5.307  0.00  0.00    +0.200 C 
ATOM     10  C   UNL     1       3.937   0.037   4.290  0.00  0.00    +0.098 C 
ENDROOT
BRANCH   1  13
ATOM     11  C   UNL     1       0.626  -0.619   1.042  0.00  0.00    +0.165 A 
ATOM     12  C   UNL     1       1.202   0.138   2.051  0.00  0.00    +0.054 A 
ATOM     13  C   UNL     1       1.837  -0.486   3.109  0.00  0.00    -0.027 A 
ATOM     14  C   UNL     1       1.900  -1.866   3.166  0.00  0.00    +0.054 A 
ATOM     15  C   UNL     1       1.327  -2.630   2.160  0.00  0.00    +0.165 A 
ATOM     16  C   UNL     1       0.683  -2.006   1.098  0.00  0.00    +0.204 A 
BRANCH  11  18
ATOM     17  C   UNL     1      -0.017   1.425   0.010  0.00  0.00    +0.277 C 
ATOM     18  O   UNL     1       0.002  -0.004   0.002  0.00  0.00    -0.491 OA
ENDBRANCH  11  18
BRANCH  16  19
ATOM     19  O   UNL     1       0.114  -2.753   0.113  0.00  0.00    -0.488 OA
ATOM     20  C   UNL     1       0.939  -3.090  -1.004  0.00  0.00    +0.277 C 
ENDBRANCH  16  19
BRANCH  15  21
ATOM     21  O   UNL     1       1.390  -3.987   2.217  0.00  0.00    -0.491 OA
ATOM     22  C   UNL     1       2.062  -4.559   3.340  0.00  0.00    +0.277 C 
ENDBRANCH  15  21
ENDBRANCH   1  13
BRANCH   3  23
ATOM     23  C   UNL     1      -0.493   1.083   5.269  0.00  0.00    +0.436 C 
ATOM     24  F   UNL     1      -1.288   0.207   4.522  0.00  0.00    -0.164 F 
ATOM     25  F   UNL     1      -1.293   1.768   6.190  0.00  0.00    -0.164 F 
ATOM     26  F   UNL     1       0.120   2.003   4.411  0.00  0.00    -0.164 F 
ENDBRANCH   3  23
BRANCH   9  27
ATOM     27  N   UNL     1       5.825  -0.903   5.296  0.00  0.00    -0.328 N 
ATOM     28  H   UNL     1       6.238  -1.412   6.011  0.00  0.00    +0.145 HD
ATOM     29  H   UNL     1       6.369  -0.555   4.572  0.00  0.00    +0.145 HD
ENDBRANCH   9  27
BRANCH  10  30
ATOM     30  C   UNL     1       4.803   0.524   3.259  0.00  0.00    +0.101 C 
ATOM     31  N   UNL     1       5.490   0.910   2.440  0.00  0.00    -0.191 NA
ENDBRANCH  10  30
TORSDOF 7
