REMARK  Name = ZINC19352324
REMARK  13 active torsions:
REMARK  status: ('A' for Active; 'I' for Inactive)
REMARK    1  A    between atoms: C_1  and  C_2
REMARK    2  A    between atoms: C_2  and  O_3
REMARK    3  A    between atoms: O_3  and  C_4
REMARK    4  A    between atoms: C_7  and  C_10
REMARK    5  A    between atoms: C_13  and  S_16
REMARK    6  A    between atoms: N_14  and  N_15
REMARK    7  A    between atoms: S_16  and  C_17
REMARK    8  A    between atoms: C_17  and  C_18
REMARK    9  A    between atoms: N_20  and  C_21
REMARK   10  A    between atoms: C_21  and  C_23
REMARK   11  A    between atoms: C_21  and  C_34
REMARK   12  A    between atoms: C_34  and  C_35
REMARK   13  A    between atoms: C_34  and  C_36
REMARK                            x       y       z     vdW  Elec       q    Type
REMARK                         _______ _______ _______ _____ _____    ______ ____
ROOT
ATOM      1  C   UNL     1       2.082   1.831   0.635  0.00  0.00    +0.173 C 
ENDROOT
BRANCH   1   2
ATOM      2  C   UNL     1       2.466   3.267   0.881  0.00  0.00    +0.224 C 
ATOM      3  O   UNL     1       1.611   4.126   0.918  0.00  0.00    -0.275 OA
ATOM      4  N   UNL     1       3.761   3.598   1.061  0.00  0.00    -0.308 N 
ATOM      5  H   UNL     1       4.537   2.819   1.027  0.00  0.00    +0.149 HD
BRANCH   4   6
ATOM      6  C   UNL     1       4.134   4.994   1.301  0.00  0.00    +0.106 C 
BRANCH   6   7
ATOM      7  C   UNL     1       5.440   5.043   2.050  0.00  0.00    -0.023 A 
ATOM      8  C   UNL     1       6.454   4.160   1.727  0.00  0.00    +0.009 A 
ATOM      9  C   UNL     1       7.656   4.199   2.411  0.00  0.00    +0.050 A 
ATOM     10  C   UNL     1       7.840   5.126   3.423  0.00  0.00    +0.162 A 
ATOM     11  C   UNL     1       6.823   6.012   3.747  0.00  0.00    +0.162 A 
ATOM     12  C   UNL     1       5.623   5.975   3.056  0.00  0.00    +0.055 A 
ATOM     13  O   UNL     1       7.014   6.923   4.745  0.00  0.00    -0.488 OA
ATOM     14  C   UNL     1       7.969   7.952   4.478  0.00  0.00    +0.232 C 
ATOM     15  C   UNL     1       9.378   7.476   4.794  0.00  0.00    +0.082 C 
ATOM     16  C   UNL     1       9.821   6.338   3.888  0.00  0.00    +0.232 C 
ATOM     17  O   UNL     1       9.020   5.175   4.107  0.00  0.00    -0.488 OA
ENDBRANCH   6   7
BRANCH   6  18
ATOM     18  C   UNL     1       4.287   5.718  -0.038  0.00  0.00    +0.008 C 
ATOM     19  C   UNL     1       2.961   5.668  -0.800  0.00  0.00    +0.009 C 
ATOM     20  C   UNL     1       4.677   7.176   0.212  0.00  0.00    +0.009 C 
ENDBRANCH   6  18
ENDBRANCH   4   6
ENDBRANCH   1   2
BRANCH   1  21
ATOM     21  S   UNL     1       0.287   1.712   0.435  0.00  0.00    -0.075 S 
BRANCH  21  25
ATOM     22  C   UNL     1      -0.679  -2.019  -0.204  0.00  0.00    +0.182 A 
ATOM     23  N   UNL     1       0.627  -2.077  -0.079  0.00  0.00    -0.127 NA
ATOM     24  N   UNL     1       1.099  -0.901   0.134  0.00  0.00    -0.121 NA
ATOM     25  C   UNL     1       0.123  -0.021   0.168  0.00  0.00    +0.209 A 
ATOM     26  N   UNL     1      -1.042  -0.702  -0.049  0.00  0.00    -0.224 N 
BRANCH  22  30
ATOM     27  C   UNL     1      -3.291  -5.288  -0.944  0.00  0.00    +0.121 A 
ATOM     28  C   UNL     1      -3.730  -3.989  -1.159  0.00  0.00    +0.046 A 
ATOM     29  C   UNL     1      -2.886  -2.925  -0.920  0.00  0.00    +0.015 A 
ATOM     30  C   UNL     1      -1.587  -3.157  -0.461  0.00  0.00    +0.021 A 
ATOM     31  C   UNL     1      -1.148  -4.465  -0.251  0.00  0.00    +0.015 A 
ATOM     32  C   UNL     1      -2.000  -5.523  -0.487  0.00  0.00    +0.046 A 
BRANCH  27  33
ATOM     33  O   UNL     1      -4.125  -6.334  -1.181  0.00  0.00    -0.492 OA
BRANCH  33  35
ATOM     34  C   UNL     1      -4.686  -8.683  -1.260  0.00  0.00    +0.048 C 
ATOM     35  C   UNL     1      -3.609  -7.644  -0.939  0.00  0.00    +0.225 C 
ENDBRANCH  33  35
ENDBRANCH  27  33
ENDBRANCH  22  30
BRANCH  26  36
ATOM     36  N   UNL     1      -2.304  -0.181  -0.101  0.00  0.00    -0.295 N 
ATOM     37  H   UNL     1      -2.460   0.898   0.039  0.00  0.00    +0.163 HD
ATOM     38  H   UNL     1      -3.164  -0.842  -0.284  0.00  0.00    +0.163 HD
ENDBRANCH  26  36
ENDBRANCH  21  25
ENDBRANCH   1  21
TORSDOF 10
