REMARK  Name = ZINC12698024
REMARK  7 active torsions:
REMARK  status: ('A' for Active; 'I' for Inactive)
REMARK    1  A    between atoms: C_1  and  C_2
REMARK    2  A    between atoms: C_2  and  C_4
REMARK    3  A    between atoms: C_2  and  N_16
REMARK    4  A    between atoms: N_9  and  C_10
REMARK    5  A    between atoms: N_19  and  S_22
REMARK    6  A    between atoms: S_22  and  C_25
REMARK    7  A    between atoms: C_28  and  C_31
REMARK                            x       y       z     vdW  Elec       q    Type
REMARK                         _______ _______ _______ _____ _____    ______ ____
ROOT
ATOM      1  N   UNL     1       0.690  -0.478  -1.207  0.00  0.00    -0.289 NA
ATOM      2  C   UNL     1       2.069   0.026  -1.259  0.00  0.00    +0.102 C 
ATOM      3  C   UNL     1       2.805  -0.632  -2.431  0.00  0.00    +0.125 C 
ATOM      4  N   UNL     1       2.018  -0.420  -3.656  0.00  0.00    -0.174 NA
ATOM      5  C   UNL     1       0.590  -0.774  -3.635  0.00  0.00    +0.125 C 
ATOM      6  C   UNL     1      -0.059  -0.110  -2.416  0.00  0.00    +0.102 C 
ENDROOT
BRANCH   4   7
ATOM      7  S   UNL     1       2.720   0.201  -5.021  0.00  0.00    +0.061 S 
ATOM      8  O   UNL     1       1.677   0.793  -5.782  0.00  0.00    -0.153 OA
ATOM      9  O   UNL     1       3.861   0.932  -4.594  0.00  0.00    -0.153 OA
BRANCH   7  10
ATOM     10  C   UNL     1       3.320  -1.162  -5.963  0.00  0.00    +0.106 A 
ATOM     11  C   UNL     1       4.603  -1.633  -5.758  0.00  0.00    +0.029 A 
ATOM     12  C   UNL     1       5.074  -2.702  -6.498  0.00  0.00    +0.014 A 
ATOM     13  C   UNL     1       4.261  -3.300  -7.442  0.00  0.00    +0.055 A 
ATOM     14  C   UNL     1       2.977  -2.830  -7.647  0.00  0.00    +0.014 A 
ATOM     15  C   UNL     1       2.505  -1.763  -6.904  0.00  0.00    +0.029 A 
BRANCH  13  16
ATOM     16  C   UNL     1       4.774  -4.465  -8.249  0.00  0.00    +0.417 C 
ATOM     17  F   UNL     1       4.481  -5.659  -7.582  0.00  0.00    -0.166 F 
ATOM     18  F   UNL     1       4.158  -4.469  -9.505  0.00  0.00    -0.166 F 
ATOM     19  F   UNL     1       6.158  -4.347  -8.409  0.00  0.00    -0.166 F 
ENDBRANCH  13  16
ENDBRANCH   7  10
ENDBRANCH   4   7
BRANCH   1  21
ATOM     20  C   UNL     1      -0.019   1.526   0.010  0.00  0.00    +0.034 C 
ATOM     21  C   UNL     1       0.002  -0.004   0.002  0.00  0.00    +0.140 C 
BRANCH  21  22
ATOM     22  C   UNL     1       0.731  -0.503   1.223  0.00  0.00    +0.237 C 
ATOM     23  O   UNL     1       1.725  -1.186   1.099  0.00  0.00    -0.274 OA
ATOM     24  N   UNL     1       0.278  -0.191   2.453  0.00  0.00    -0.239 N 
ATOM     25  C   UNL     1       0.930  -0.637   3.545  0.00  0.00    +0.306 C 
ATOM     26  O   UNL     1       1.926  -1.322   3.420  0.00  0.00    -0.252 OA
ATOM     27  N   UNL     1       0.476  -0.324   4.775  0.00  0.00    -0.296 N 
ATOM     28  H   UNL     1      -0.517   0.356   2.553  0.00  0.00    +0.159 HD
ATOM     29  H   UNL     1      -0.319   0.222   4.875  0.00  0.00    +0.151 HD
BRANCH  27  30
ATOM     30  C   UNL     1       1.185  -0.810   5.962  0.00  0.00    +0.074 C 
ATOM     31  C   UNL     1       0.702  -2.221   6.303  0.00  0.00    +0.022 C 
ATOM     32  C   UNL     1       1.442  -2.728   7.542  0.00  0.00    +0.002 C 
ATOM     33  C   UNL     1       1.161  -1.794   8.721  0.00  0.00    +0.000 C 
ATOM     34  C   UNL     1       1.644  -0.383   8.380  0.00  0.00    +0.002 C 
ATOM     35  C   UNL     1       0.904   0.124   7.141  0.00  0.00    +0.022 C 
ENDBRANCH  27  30
ENDBRANCH  21  22
ENDBRANCH   1  21
TORSDOF 6
