REMARK  Name = ZINC02661624
REMARK  6 active torsions:
REMARK  status: ('A' for Active; 'I' for Inactive)
REMARK    1  A    between atoms: C_6  and  C_7
REMARK    2  A    between atoms: C_7  and  N_55
REMARK    3  A    between atoms: C_8  and  C_9
REMARK    4  A    between atoms: C_8  and  N_55
REMARK    5  A    between atoms: N_22  and  C_23
REMARK    6  A    between atoms: C_23  and  C_24
REMARK                            x       y       z     vdW  Elec       q    Type
REMARK                         _______ _______ _______ _____ _____    ______ ____
ROOT
ATOM      1  C   UNL     1       0.015   0.012   0.221  0.00  0.00    +0.116 A 
ATOM      2  N   UNL     1       1.151  -0.663   0.200  0.00  0.00    -0.219 NA
ATOM      3  C   UNL     1       2.316  -0.075  -0.020  0.00  0.00    +0.131 A 
ATOM      4  C   UNL     1       2.351   1.330  -0.241  0.00  0.00    +0.051 A 
ATOM      5  C   UNL     1       3.508   2.188  -0.502  0.00  0.00    -0.025 A 
ATOM      6  C   UNL     1       3.268   3.503  -0.678  0.00  0.00    -0.004 A 
ATOM      7  S   UNL     1       1.512   3.679  -0.509  0.00  0.00    -0.073 S 
ATOM      8  C   UNL     1       1.101   1.980  -0.203  0.00  0.00    +0.114 A 
ATOM      9  N   UNL     1      -0.015   1.316   0.024  0.00  0.00    -0.227 NA
ATOM     10  C   UNL     1       4.272   4.580  -0.956  0.00  0.00    +0.043 C 
ATOM     11  C   UNL     1       5.671   4.029  -0.648  0.00  0.00    +0.005 C 
ATOM     12  C   UNL     1       5.814   2.653  -1.304  0.00  0.00    +0.005 C 
ATOM     13  C   UNL     1       4.930   1.638  -0.578  0.00  0.00    +0.037 C 
ATOM     14  N   UNL     1       3.483  -0.816  -0.035  0.00  0.00    -0.324 N 
ATOM     15  H   UNL     1       4.340  -0.369  -0.115  0.00  0.00    +0.148 HD
ENDROOT
BRANCH   1  16
ATOM     16  C   UNL     1      -1.274  -0.724   0.478  0.00  0.00    -0.005 C 
BRANCH  16  17
ATOM     17  N   UNL     1      -1.840  -1.171  -0.809  0.00  0.00    +0.386 N 
ATOM     18  H   UNL     1      -2.018  -0.353  -1.404  0.00  0.00    -0.085 HD
ATOM     19  H   UNL     1      -1.170  -1.794  -1.276  0.00  0.00    -0.085 HD
BRANCH  17  20
ATOM     20  C   UNL     1      -3.105  -1.897  -0.588  0.00  0.00    -0.046 C 
BRANCH  20  26
ATOM     21  C   UNL     1      -4.523  -1.517  -2.616  0.00  0.00    +0.004 A 
ATOM     22  C   UNL     1      -5.027  -1.921  -3.837  0.00  0.00    +0.038 A 
ATOM     23  C   UNL     1      -4.676  -3.155  -4.357  0.00  0.00    +0.123 A 
ATOM     24  C   UNL     1      -3.814  -3.981  -3.655  0.00  0.00    +0.038 A 
ATOM     25  C   UNL     1      -3.307  -3.573  -2.436  0.00  0.00    +0.004 A 
ATOM     26  C   UNL     1      -3.659  -2.340  -1.918  0.00  0.00    -0.064 A 
ATOM     27  F   UNL     1      -5.172  -3.553  -5.549  0.00  0.00    -0.205 F 
ENDBRANCH  20  26
ENDBRANCH  17  20
ENDBRANCH  16  17
ENDBRANCH   1  16
BRANCH  14  28
ATOM     28  C   UNL     1       3.425  -2.276   0.069  0.00  0.00    +0.138 C 
BRANCH  28  29
ATOM     29  C   UNL     1       4.822  -2.839   0.028  0.00  0.00    -0.030 A 
ATOM     30  C   UNL     1       5.393  -3.184  -1.183  0.00  0.00    +0.008 A 
ATOM     31  C   UNL     1       6.677  -3.696  -1.221  0.00  0.00    +0.038 A 
ATOM     32  C   UNL     1       7.387  -3.872  -0.046  0.00  0.00    +0.123 A 
ATOM     33  C   UNL     1       6.812  -3.531   1.167  0.00  0.00    +0.038 A 
ATOM     34  C   UNL     1       5.530  -3.015   1.202  0.00  0.00    +0.008 A 
ATOM     35  F   UNL     1       8.639  -4.377  -0.082  0.00  0.00    -0.205 F 
ENDBRANCH  28  29
ENDBRANCH  14  28
TORSDOF 6
