REMARK  Name = ZINC09182676
REMARK  9 active torsions:
REMARK  status: ('A' for Active; 'I' for Inactive)
REMARK    1  A    between atoms: C_1  and  C_2
REMARK    2  A    between atoms: C_2  and  C_4
REMARK    3  A    between atoms: C_2  and  O_17
REMARK    4  A    between atoms: N_6  and  C_7
REMARK    5  A    between atoms: C_10  and  S_13
REMARK    6  A    between atoms: S_13  and  N_16
REMARK    7  A    between atoms: O_17  and  C_18
REMARK    8  A    between atoms: C_18  and  C_20
REMARK    9  A    between atoms: C_27  and  C_29
REMARK                            x       y       z     vdW  Elec       q    Type
REMARK                         _______ _______ _______ _____ _____    ______ ____
ROOT
ATOM      1  C   UNL     1      -0.181   1.416  -0.278  0.00  0.00    +0.062 C 
ATOM      2  C   UNL     1       0.063  -0.094  -0.273  0.00  0.00    +0.259 C 
ENDROOT
BRANCH   2   3
ATOM      3  C   UNL     1       0.930  -0.467  -1.448  0.00  0.00    +0.258 C 
ATOM      4  O   UNL     1       2.042  -0.916  -1.263  0.00  0.00    -0.271 OA
ATOM      5  N   UNL     1       0.471  -0.301  -2.704  0.00  0.00    -0.282 N 
ATOM      6  H   UNL     1      -0.387   0.127  -2.855  0.00  0.00    +0.155 HD
BRANCH   5   7
ATOM      7  C   UNL     1       1.231  -0.746  -3.792  0.00  0.00    +0.034 A 
ATOM      8  C   UNL     1       1.092  -0.139  -5.033  0.00  0.00    +0.025 A 
ATOM      9  C   UNL     1       1.848  -0.577  -6.102  0.00  0.00    +0.030 A 
ATOM     10  C   UNL     1       2.734  -1.627  -5.941  0.00  0.00    +0.105 A 
ATOM     11  C   UNL     1       2.869  -2.238  -4.708  0.00  0.00    +0.030 A 
ATOM     12  C   UNL     1       2.121  -1.800  -3.633  0.00  0.00    +0.025 A 
BRANCH  10  13
ATOM     13  S   UNL     1       3.691  -2.187  -7.310  0.00  0.00    +0.056 S 
ATOM     14  O   UNL     1       3.780  -1.097  -8.217  0.00  0.00    -0.153 OA
ATOM     15  O   UNL     1       4.841  -2.823  -6.769  0.00  0.00    -0.153 OA
BRANCH  13  16
ATOM     16  N   UNL     1       2.813  -3.366  -8.072  0.00  0.00    -0.204 NA
ATOM     17  H   UNL     1       2.910  -3.502  -9.027  0.00  0.00    +0.144 HD
ATOM     18  H   UNL     1       2.201  -3.921  -7.563  0.00  0.00    +0.144 HD
ENDBRANCH  13  16
ENDBRANCH  10  13
ENDBRANCH   5   7
ENDBRANCH   2   3
BRANCH   2  19
ATOM     19  O   UNL     1       0.729  -0.473   0.960  0.00  0.00    -0.452 OA
BRANCH  19  20
ATOM     20  C   UNL     1      -0.054  -0.802   1.999  0.00  0.00    +0.312 C 
ATOM     21  O   UNL     1      -1.256  -0.774   1.883  0.00  0.00    -0.250 OA
BRANCH  20  22
ATOM     22  C   UNL     1       0.567  -1.206   3.312  0.00  0.00    +0.115 C 
ATOM     23  C   UNL     1      -0.537  -1.524   4.322  0.00  0.00    +0.018 C 
ATOM     24  C   UNL     1       0.092  -1.966   5.646  0.00  0.00    +0.020 C 
ATOM     25  C   UNL     1       0.947  -0.826   6.207  0.00  0.00    +0.108 C 
ATOM     26  N   UNL     1       1.918  -0.416   5.183  0.00  0.00    -0.297 N 
ATOM     27  C   UNL     1       1.427  -0.057   3.846  0.00  0.00    +0.122 C 
ATOM     28  C   UNL     1       3.235  -0.370   5.466  0.00  0.00    +0.247 C 
ATOM     29  O   UNL     1       4.038  -0.123   4.587  0.00  0.00    -0.270 OA
BRANCH  28  30
ATOM     30  C   UNL     1       3.704  -0.619   6.846  0.00  0.00    +0.037 A 
ATOM     31  C   UNL     1       2.922  -0.225   7.933  0.00  0.00    +0.014 A 
ATOM     32  C   UNL     1       3.362  -0.464   9.218  0.00  0.00    +0.021 A 
ATOM     33  C   UNL     1       4.582  -1.085   9.431  0.00  0.00    +0.041 A 
ATOM     34  C   UNL     1       5.364  -1.474   8.356  0.00  0.00    +0.021 A 
ATOM     35  C   UNL     1       4.932  -1.245   7.066  0.00  0.00    +0.014 A 
ATOM     36 CL   UNL     1       5.132  -1.377  11.051  0.00  0.00    -0.084 Cl
ENDBRANCH  28  30
ENDBRANCH  20  22
ENDBRANCH  19  20
ENDBRANCH   2  19
TORSDOF 8
