REMARK  Name = ZINC36029066
REMARK  9 active torsions:
REMARK  status: ('A' for Active; 'I' for Inactive)
REMARK    1  A    between atoms: C_1  and  C_2
REMARK    2  A    between atoms: C_2  and  C_3
REMARK    3  A    between atoms: C_2  and  C_4
REMARK    4  A    between atoms: C_4  and  C_5
REMARK    5  A    between atoms: N_9  and  C_27
REMARK    6  A    between atoms: N_14  and  C_17
REMARK    7  A    between atoms: C_17  and  N_19
REMARK    8  A    between atoms: N_19  and  C_20
REMARK    9  A    between atoms: C_27  and  C_28
REMARK                            x       y       z     vdW  Elec       q    Type
REMARK                         _______ _______ _______ _____ _____    ______ ____
ROOT
ATOM      1  C   UNL     1      -2.167   0.175  -1.290  0.00  0.00    +0.019 C 
ATOM      2  C   UNL     1      -3.653  -0.100  -1.205  0.00  0.00    +0.201 C 
ATOM      3  O   UNL     1      -4.405   0.327  -0.354  0.00  0.00    -0.277 OA
ATOM      4  N   UNL     1      -4.001  -0.899  -2.235  0.00  0.00    -0.309 N 
ATOM      5  C   UNL     1      -2.817  -1.193  -3.047  0.00  0.00    +0.006 C 
ATOM      6  N   UNL     1      -1.641  -0.862  -2.211  0.00  0.00    +0.401 N 
ATOM      7  C   UNL     1      -2.812  -0.328  -4.306  0.00  0.00    +0.025 C 
ATOM      8  C   UNL     1      -4.053  -0.648  -5.146  0.00  0.00    +0.107 C 
ATOM      9  N   UNL     1      -4.094  -2.095  -5.397  0.00  0.00    -0.312 N 
ATOM     10  C   UNL     1      -4.027  -3.014  -4.252  0.00  0.00    +0.107 C 
ATOM     11  C   UNL     1      -2.786  -2.674  -3.419  0.00  0.00    +0.025 C 
ATOM     12  H   UNL     1      -0.893  -0.489  -2.777  0.00  0.00    -0.082 HD
ATOM     13  H   UNL     1      -1.331  -1.672  -1.696  0.00  0.00    -0.082 HD
ENDROOT
BRANCH   9  14
ATOM     14  C   UNL     1      -4.191  -2.572  -6.654  0.00  0.00    +0.137 C 
ATOM     15  S   UNL     1      -4.136  -1.495  -7.984  0.00  0.00    -0.018 S 
BRANCH  14  16
ATOM     16  N   UNL     1      -4.331  -3.896  -6.864  0.00  0.00    -0.297 N 
ATOM     17  H   UNL     1      -3.565  -4.429  -7.126  0.00  0.00    +0.154 HD
BRANCH  16  18
ATOM     18  C   UNL     1      -5.584  -4.500  -6.704  0.00  0.00    +0.033 A 
ATOM     19  C   UNL     1      -6.660  -3.758  -6.237  0.00  0.00    +0.026 A 
ATOM     20  C   UNL     1      -7.895  -4.357  -6.080  0.00  0.00    +0.040 A 
ATOM     21  C   UNL     1      -8.060  -5.697  -6.388  0.00  0.00    +0.124 A 
ATOM     22  C   UNL     1      -6.988  -6.439  -6.853  0.00  0.00    +0.040 A 
ATOM     23  C   UNL     1      -5.753  -5.843  -7.018  0.00  0.00    +0.026 A 
ATOM     24  F   UNL     1      -9.268  -6.281  -6.233  0.00  0.00    -0.205 F 
ENDBRANCH  16  18
ENDBRANCH  14  16
ENDBRANCH   9  14
BRANCH   1  25
ATOM     25  C   UNL     1      -1.520   0.039   0.090  0.00  0.00    -0.004 C 
BRANCH  25  27
ATOM     26  C   UNL     1       0.141   1.841  -0.396  0.00  0.00    +0.007 C 
ATOM     27  C   UNL     1      -0.030   0.369  -0.011  0.00  0.00    -0.018 C 
ATOM     28  C   UNL     1       0.642   0.114   1.339  0.00  0.00    +0.007 C 
ENDBRANCH  25  27
ENDBRANCH   1  25
BRANCH   4  29
ATOM     29  C   UNL     1      -5.353  -1.395  -2.501  0.00  0.00    +0.141 C 
BRANCH  29  30
ATOM     30  C   UNL     1      -5.659  -2.542  -1.571  0.00  0.00    -0.030 A 
ATOM     31  C   UNL     1      -5.171  -3.805  -1.848  0.00  0.00    +0.005 A 
ATOM     32  C   UNL     1      -5.451  -4.857  -0.996  0.00  0.00    +0.000 A 
ATOM     33  C   UNL     1      -6.219  -4.644   0.134  0.00  0.00    +0.000 A 
ATOM     34  C   UNL     1      -6.706  -3.381   0.412  0.00  0.00    +0.000 A 
ATOM     35  C   UNL     1      -6.422  -2.329  -0.439  0.00  0.00    +0.005 A 
ENDBRANCH  29  30
ENDBRANCH   4  29
TORSDOF 7
