REMARK  Name = ZINC04545463
REMARK  4 active torsions:
REMARK  status: ('A' for Active; 'I' for Inactive)
REMARK    1  A    between atoms: C_1  and  C_2
REMARK    2  A    between atoms: C_2  and  C_3
REMARK    3  A    between atoms: C_12  and  O_24
REMARK    4  A    between atoms: C_14  and  C_17
REMARK                            x       y       z     vdW  Elec       q    Type
REMARK                         _______ _______ _______ _____ _____    ______ ____
ROOT
ATOM      1  C   UNL     1      -1.433  -0.534   0.013  0.00  0.00    -0.006 C 
ATOM      2  C   UNL     1      -1.418  -2.060  -0.115  0.00  0.00    +0.008 C 
ATOM      3  C   UNL     1      -2.838  -2.576  -0.353  0.00  0.00    +0.037 C 
ATOM      4  C   UNL     1      -3.752  -2.008   0.724  0.00  0.00    -0.023 A 
ATOM      5  C   UNL     1      -3.387  -0.928   1.452  0.00  0.00    -0.004 A 
ATOM      6  S   UNL     1      -4.746  -0.646   2.555  0.00  0.00    -0.078 S 
ATOM      7  C   UNL     1      -5.744  -1.882   2.081  0.00  0.00    +0.080 A 
ATOM      8  C   UNL     1      -5.055  -2.551   1.063  0.00  0.00    +0.068 A 
ATOM      9  C   UNL     1      -5.715  -3.732   0.450  0.00  0.00    +0.220 C 
ATOM     10  N   UNL     1      -6.980  -3.924   0.713  0.00  0.00    -0.223 NA
ATOM     11  C   UNL     1      -7.803  -3.025   1.512  0.00  0.00    +0.224 C 
ATOM     12  N   UNL     1      -6.996  -2.280   2.495  0.00  0.00    -0.313 N 
ATOM     13  C   UNL     1      -2.113  -0.150   1.336  0.00  0.00    +0.046 C 
ATOM     14  H   UNL     1      -7.328  -2.080   3.385  0.00  0.00    +0.149 HD
ENDROOT
BRANCH  11  15
ATOM     15  C   UNL     1      -8.492  -2.045   0.599  0.00  0.00    -0.005 A 
ATOM     16  C   UNL     1      -8.795  -0.774   1.051  0.00  0.00    +0.010 A 
ATOM     17  C   UNL     1      -9.426   0.126   0.214  0.00  0.00    +0.039 A 
ATOM     18  C   UNL     1      -9.755  -0.246  -1.079  0.00  0.00    +0.123 A 
ATOM     19  C   UNL     1      -9.451  -1.518  -1.531  0.00  0.00    +0.039 A 
ATOM     20  C   UNL     1      -8.815  -2.415  -0.694  0.00  0.00    +0.010 A 
ATOM     21  F   UNL     1     -10.373   0.633  -1.898  0.00  0.00    -0.205 F 
ENDBRANCH  11  15
BRANCH   1  23
ATOM     22  C   UNL     1      -0.019   1.526   0.010  0.00  0.00    +0.004 C 
ATOM     23  C   UNL     1       0.002  -0.004   0.002  0.00  0.00    +0.000 C 
ENDBRANCH   1  23
BRANCH   9  24
ATOM     24  O   UNL     1      -5.031  -4.580  -0.353  0.00  0.00    -0.492 OA
ATOM     25  H   UNL     1      -5.561  -5.312  -0.695  0.00  0.00    +0.294 HD
ENDBRANCH   9  24
TORSDOF 3
