REMARK  Name = ZINC66354559
REMARK  7 active torsions:
REMARK  status: ('A' for Active; 'I' for Inactive)
REMARK    1  A    between atoms: C_1  and  C_2
REMARK    2  A    between atoms: C_2  and  C_3
REMARK    3  A    between atoms: C_3  and  C_31
REMARK    4  A    between atoms: C_16  and  S_18
REMARK    5  A    between atoms: S_18  and  C_19
REMARK    6  A    between atoms: C_19  and  C_20
REMARK    7  A    between atoms: N_22  and  C_23
REMARK                            x       y       z     vdW  Elec       q    Type
REMARK                         _______ _______ _______ _____ _____    ______ ____
ROOT
ATOM      1  C   UNL     1       0.864  -0.988  -0.485  0.00  0.00    +0.071 C 
ATOM      2  C   UNL     1       0.628  -2.438  -0.919  0.00  0.00    +0.067 C 
ATOM      3  C   UNL     1       1.597  -2.766  -2.047  0.00  0.00    -0.042 C 
ATOM      4  C   UNL     1       2.661  -1.968  -2.266  0.00  0.00    +0.013 C 
ATOM      5  C   UNL     1       3.045  -0.775  -1.450  0.00  0.00    +0.202 C 
ATOM      6  O   UNL     1       2.260  -0.776  -0.248  0.00  0.00    -0.368 OA
ATOM      7  S   UNL     1       3.472  -2.579  -3.735  0.00  0.00    -0.099 S 
ATOM      8  C   UNL     1       2.065  -3.582  -4.354  0.00  0.00    +0.184 C 
ATOM      9  C   UNL     1       1.522  -3.946  -2.932  0.00  0.00    +0.114 C 
ATOM     10  C   UNL     1       0.290  -4.745  -3.127  0.00  0.00    +0.105 C 
ATOM     11  N   UNL     1       0.392  -5.667  -4.082  0.00  0.00    -0.211 NA
ATOM     12  C   UNL     1       1.567  -5.844  -4.746  0.00  0.00    +0.187 C 
ATOM     13  N   UNL     1       2.437  -4.852  -4.955  0.00  0.00    -0.244 NA
ATOM     14  N   UNL     1      -0.842  -4.553  -2.398  0.00  0.00    -0.346 N 
ATOM     15  C   UNL     1       0.386  -0.043  -1.589  0.00  0.00    +0.042 C 
ATOM     16  H   UNL     1      -1.695  -4.870  -2.734  0.00  0.00    +0.143 HD
ATOM     17  H   UNL     1      -0.797  -4.099  -1.542  0.00  0.00    +0.143 HD
ENDROOT
BRANCH   1  19
ATOM     18  C   UNL     1       0.210   0.773   1.162  0.00  0.00    +0.007 C 
ATOM     19  C   UNL     1       0.082  -0.708   0.799  0.00  0.00    +0.032 C 
ENDBRANCH   1  19
BRANCH  12  20
ATOM     20  S   UNL     1       1.947  -7.443  -5.381  0.00  0.00    -0.077 S 
BRANCH  20  21
ATOM     21  C   UNL     1       3.566  -7.228  -6.171  0.00  0.00    +0.173 C 
BRANCH  21  22
ATOM     22  C   UNL     1       4.014  -8.539  -6.764  0.00  0.00    +0.227 C 
ATOM     23  O   UNL     1       3.311  -9.522  -6.663  0.00  0.00    -0.275 OA
ATOM     24  N   UNL     1       5.197  -8.619  -7.405  0.00  0.00    -0.285 N 
ATOM     25  H   UNL     1       5.793  -7.854  -7.422  0.00  0.00    +0.155 HD
BRANCH  24  26
ATOM     26  C   UNL     1       5.565  -9.806  -8.049  0.00  0.00    +0.033 A 
ATOM     27  C   UNL     1       6.899 -10.188  -8.095  0.00  0.00    +0.025 A 
ATOM     28  C   UNL     1       7.260 -11.360  -8.731  0.00  0.00    +0.022 A 
ATOM     29  C   UNL     1       6.292 -12.154  -9.321  0.00  0.00    +0.041 A 
ATOM     30  C   UNL     1       4.962 -11.776  -9.276  0.00  0.00    +0.022 A 
ATOM     31  C   UNL     1       4.595 -10.608  -8.637  0.00  0.00    +0.025 A 
ATOM     32 CL   UNL     1       6.748 -13.626 -10.119  0.00  0.00    -0.084 Cl
ENDBRANCH  24  26
ENDBRANCH  21  22
ENDBRANCH  20  21
ENDBRANCH  12  20
TORSDOF 5
