REMARK  Name = ZINC04316750
REMARK  5 active torsions:
REMARK  status: ('A' for Active; 'I' for Inactive)
REMARK    1  A    between atoms: C_4  and  N_11
REMARK    2  A    between atoms: C_5  and  C_7
REMARK    3  A    between atoms: C_12  and  N_27
REMARK    4  A    between atoms: C_13  and  C_16
REMARK    5  A    between atoms: C_18  and  C_21
REMARK                            x       y       z     vdW  Elec       q    Type
REMARK                         _______ _______ _______ _____ _____    ______ ____
ROOT
ATOM      1  N   UNL     1       1.163   3.488  -0.009  0.00  0.00    -0.198 N 
ATOM      2  C   UNL     1       0.062   4.290  -0.072  0.00  0.00    +0.153 A 
ATOM      3  C   UNL     1       0.527   5.595  -0.008  0.00  0.00    +0.191 A 
ATOM      4  N   UNL     1       1.868   5.558   0.089  0.00  0.00    -0.122 NA
ATOM      5  N   UNL     1       2.273   4.337   0.097  0.00  0.00    -0.058 NA
ENDROOT
BRANCH   1   9
ATOM      6  C   UNL     1       1.216  -0.679  -0.097  0.00  0.00    +0.001 A 
ATOM      7  C   UNL     1       0.534   0.023  -1.074  0.00  0.00    +0.002 A 
ATOM      8  C   UNL     1       0.515   1.403  -1.048  0.00  0.00    +0.028 A 
ATOM      9  C   UNL     1       1.180   2.087  -0.038  0.00  0.00    +0.081 A 
ATOM     10  C   UNL     1       1.862   1.379   0.942  0.00  0.00    +0.080 A 
ATOM     11  C   UNL     1       1.879  -0.002   0.910  0.00  0.00    +0.014 A 
BRANCH  10  12
ATOM     12  C   UNL     1       2.584   2.116   2.040  0.00  0.00    +0.419 C 
ATOM     13  F   UNL     1       3.191   1.195   2.900  0.00  0.00    -0.166 F 
ATOM     14  F   UNL     1       3.562   2.946   1.481  0.00  0.00    -0.166 F 
ATOM     15  F   UNL     1       1.669   2.893   2.760  0.00  0.00    -0.166 F 
ENDBRANCH  10  12
ENDBRANCH   1   9
BRANCH   3  16
ATOM     16  C   UNL     1      -0.302   6.810  -0.042  0.00  0.00    +0.282 A 
ATOM     17  N   UNL     1       0.127   8.060   0.017  0.00  0.00    -0.186 NA
ATOM     18  C   UNL     1      -0.983   8.825  -0.047  0.00  0.00    +0.203 A 
ATOM     19  N   UNL     1      -2.009   8.019  -0.141  0.00  0.00    -0.056 NA
ATOM     20  O   UNL     1      -1.641   6.864  -0.145  0.00  0.00    -0.331 OA
BRANCH  18  21
ATOM     21  C   UNL     1      -1.030  10.309  -0.017  0.00  0.00    +0.025 A 
ATOM     22  C   UNL     1       0.141  11.062   0.092  0.00  0.00    +0.031 A 
ATOM     23  C   UNL     1       0.052  12.440   0.112  0.00  0.00    +0.111 A 
ATOM     24  N   UNL     1      -1.118  13.043   0.039  0.00  0.00    -0.263 NA
ATOM     25  C   UNL     1      -2.247  12.369  -0.060  0.00  0.00    +0.111 A 
ATOM     26  C   UNL     1      -2.248  10.989  -0.091  0.00  0.00    +0.031 A 
ENDBRANCH  18  21
ENDBRANCH   3  16
BRANCH   2  27
ATOM     27  N   UNL     1      -1.255   3.883  -0.177  0.00  0.00    -0.341 N 
ATOM     28  H   UNL     1      -1.477   2.940  -0.127  0.00  0.00    +0.144 HD
ATOM     29  H   UNL     1      -1.958   4.540  -0.302  0.00  0.00    +0.144 HD
ENDBRANCH   2  27
TORSDOF 5
