REMARK  Name = ZINC54982236
REMARK  2 active torsions:
REMARK  status: ('A' for Active; 'I' for Inactive)
REMARK    1  A    between atoms: N_9  and  C_10
REMARK    2  A    between atoms: N_19  and  C_21
REMARK                            x       y       z     vdW  Elec       q    Type
REMARK                         _______ _______ _______ _____ _____    ______ ____
ROOT
ATOM      1  C   UNL     1      -0.019   4.203   0.024  0.00  0.00    +0.074 C 
ATOM      2  C   UNL     1      -0.537   4.411  -1.401  0.00  0.00    -0.007 C 
ATOM      3  C   UNL     1       0.512   5.126  -2.241  0.00  0.00    +0.003 C 
ATOM      4  C   UNL     1       0.968   6.440  -1.629  0.00  0.00    +0.001 C 
ATOM      5  C   UNL     1       1.273   6.340  -0.144  0.00  0.00    +0.003 C 
ATOM      6  C   UNL     1       0.202   5.589   0.635  0.00  0.00    -0.007 C 
ATOM      7  C   UNL     1      -1.116   6.352   0.657  0.00  0.00    -0.073 C 
ATOM      8  N   UNL     1      -1.734   6.463  -0.660  0.00  0.00    +0.382 N 
ATOM      9  C   UNL     1      -1.847   5.187  -1.359  0.00  0.00    -0.073 C 
ATOM     10  H   UNL     1      -1.234   7.130  -1.227  0.00  0.00    -0.081 HD
ENDROOT
BRANCH   1  19
ATOM     11  C   UNL     1      -0.017   1.379   0.010  0.00  0.00    +0.083 A 
ATOM     12  C   UNL     1       1.201   2.061   0.002  0.00  0.00    +0.125 A 
ATOM     13  N   UNL     1       2.332   1.362  -0.013  0.00  0.00    -0.200 NA
ATOM     14  C   UNL     1       2.308   0.038  -0.020  0.00  0.00    +0.216 A 
ATOM     15  N   UNL     1       1.168  -0.636  -0.013  0.00  0.00    -0.203 NA
ATOM     16  C   UNL     1       0.002  -0.004   0.002  0.00  0.00    +0.136 A 
ATOM     17 CL   UNL     1      -1.484  -0.902   0.012  0.00  0.00    -0.062 Cl
ATOM     18  N   UNL     1       3.504  -0.658  -0.035  0.00  0.00    -0.327 N 
ATOM     19  N   UNL     1       1.231   3.446   0.008  0.00  0.00    -0.326 N 
ATOM     20  H   UNL     1       4.345  -0.177  -0.041  0.00  0.00    +0.145 HD
ATOM     21  H   UNL     1       3.500  -1.629  -0.041  0.00  0.00    +0.145 HD
ATOM     22  H   UNL     1       2.081   3.913   0.003  0.00  0.00    +0.148 HD
ENDBRANCH   1  19
BRANCH   8  23
ATOM     23  C   UNL     1      -3.088   7.005  -0.482  0.00  0.00    -0.069 C 
ATOM     24  C   UNL     1      -3.482   8.216  -1.330  0.00  0.00    -0.017 C 
ATOM     25  C   UNL     1      -3.217   8.384   0.168  0.00  0.00    -0.017 C 
ENDBRANCH   8  23
TORSDOF 2
