REMARK  Name = ZINC06768560
REMARK  5 active torsions:
REMARK  status: ('A' for Active; 'I' for Inactive)
REMARK    1  A    between atoms: C_1  and  C_2
REMARK    2  A    between atoms: C_5  and  N_8
REMARK    3  A    between atoms: N_8  and  C_9
REMARK    4  A    between atoms: C_10  and  C_20
REMARK    5  A    between atoms: C_17  and  C_18
REMARK                            x       y       z     vdW  Elec       q    Type
REMARK                         _______ _______ _______ _____ _____    ______ ____
ROOT
ATOM      1  C   UNL     1       1.708   4.408   0.010  0.00  0.00    +0.147 A 
ATOM      2  C   UNL     1       2.839   3.665  -0.005  0.00  0.00    +0.088 A 
ATOM      3  N   UNL     1       2.463   2.322  -0.009  0.00  0.00    -0.336 N 
ATOM      4  H   UNL     1       3.063   1.559  -0.019  0.00  0.00    +0.167 HD
ATOM      5  C   UNL     1       1.094   2.275   0.004  0.00  0.00    +0.154 A 
ATOM      6  N   UNL     1       0.625   3.549   0.015  0.00  0.00    -0.199 N 
ATOM      7  N   UNL     1      -0.774   3.498   0.028  0.00  0.00    -0.170 NA
ATOM      8  C   UNL     1      -1.163   2.252   0.019  0.00  0.00    +0.156 A 
ATOM      9  C   UNL     1      -0.017   1.428   0.010  0.00  0.00    +0.114 A 
ENDROOT
BRANCH   2  10
ATOM     10  C   UNL     1       4.221   4.183  -0.015  0.00  0.00    +0.002 A 
ATOM     11  C   UNL     1       4.585   5.228   0.837  0.00  0.00    +0.011 A 
ATOM     12  C   UNL     1       5.880   5.704   0.825  0.00  0.00    +0.016 A 
ATOM     13  C   UNL     1       6.815   5.155  -0.035  0.00  0.00    +0.018 A 
ATOM     14  C   UNL     1       6.460   4.122  -0.886  0.00  0.00    +0.016 A 
ATOM     15  C   UNL     1       5.170   3.634  -0.881  0.00  0.00    +0.011 A 
ATOM     16 BR   UNL     1       8.586   5.819  -0.049  0.00  0.00    -0.050 Br
ENDBRANCH   2  10
BRANCH   1  17
ATOM     17  N   UNL     1       1.646   5.800   0.018  0.00  0.00    -0.324 N 
ATOM     18  H   UNL     1       2.163   6.181   0.796  0.00  0.00    +0.148 HD
BRANCH  17  23
ATOM     19  C   UNL     1      -0.950   9.161  -1.595  0.00  0.00    +0.007 C 
ATOM     20  C   UNL     1      -1.800   8.197  -0.765  0.00  0.00    -0.014 C 
ATOM     21  C   UNL     1      -1.263   8.147   0.667  0.00  0.00    +0.005 C 
ATOM     22  C   UNL     1       0.188   7.663   0.651  0.00  0.00    +0.022 C 
ATOM     23  C   UNL     1       0.253   6.265   0.033  0.00  0.00    +0.072 C 
ATOM     24  C   UNL     1      -0.284   6.314  -1.399  0.00  0.00    +0.022 C 
ATOM     25  C   UNL     1      -1.736   6.798  -1.382  0.00  0.00    +0.005 C 
ENDBRANCH  17  23
ENDBRANCH   1  17
BRANCH   9  26
ATOM     26  C   UNL     1       0.002  -0.004   0.002  0.00  0.00    +0.104 C 
ATOM     27  N   UNL     1       0.018  -1.140  -0.004  0.00  0.00    -0.191 NA
ENDBRANCH   9  26
TORSDOF 4
