REMARK  Name = ZINC47147459
REMARK  5 active torsions:
REMARK  status: ('A' for Active; 'I' for Inactive)
REMARK    1  A    between atoms: C_4  and  C_7
REMARK    2  A    between atoms: C_7  and  O_8
REMARK    3  A    between atoms: O_8  and  C_9
REMARK    4  A    between atoms: C_14  and  C_15
REMARK    5  A    between atoms: N_30  and  C_33
REMARK                            x       y       z     vdW  Elec       q    Type
REMARK                         _______ _______ _______ _____ _____    ______ ____
ROOT
ATOM      1  C   UNL     1       5.008  -1.430   3.949  0.00  0.00    +0.075 C 
ATOM      2  C   UNL     1       4.601  -2.635   4.697  0.00  0.00    +0.035 A 
ATOM      3  C   UNL     1       4.547  -2.846   6.041  0.00  0.00    +0.113 A 
ATOM      4  N   UNL     1       4.070  -4.033   6.412  0.00  0.00    -0.196 NA
ATOM      5  C   UNL     1       3.725  -4.945   5.533  0.00  0.00    +0.311 A 
ATOM      6  O   UNL     1       3.236  -6.189   5.758  0.00  0.00    -0.258 OA
ATOM      7  S   UNL     1       4.037  -4.196   4.058  0.00  0.00    -0.028 S 
ATOM      8  S   UNL     1       5.123  -1.593   7.159  0.00  0.00    -0.091 S 
ATOM      9  C   UNL     1       5.318  -0.143   6.133  0.00  0.00    +0.152 C 
ATOM     10  C   UNL     1       5.850  -0.416   4.721  0.00  0.00    +0.110 C 
ATOM     11  C   UNL     1       5.443   0.935   4.092  0.00  0.00    +0.232 C 
ATOM     12  O   UNL     1       6.010   1.514   3.190  0.00  0.00    -0.274 OA
ATOM     13  N   UNL     1       4.333   1.346   4.740  0.00  0.00    -0.209 N 
ATOM     14  C   UNL     1       4.078   0.656   5.870  0.00  0.00    +0.240 C 
ATOM     15  O   UNL     1       3.067   0.687   6.538  0.00  0.00    -0.274 OA
ENDROOT
BRANCH  13  16
ATOM     16  C   UNL     1       3.512   2.383   4.272  0.00  0.00    +0.044 A 
ATOM     17  C   UNL     1       3.824   3.036   3.087  0.00  0.00    +0.027 A 
ATOM     18  C   UNL     1       3.014   4.056   2.629  0.00  0.00    +0.040 A 
ATOM     19  C   UNL     1       1.892   4.429   3.350  0.00  0.00    +0.124 A 
ATOM     20  C   UNL     1       1.579   3.779   4.532  0.00  0.00    +0.040 A 
ATOM     21  C   UNL     1       2.383   2.753   4.991  0.00  0.00    +0.027 A 
ATOM     22  F   UNL     1       1.102   5.428   2.900  0.00  0.00    -0.205 F 
ENDBRANCH  13  16
BRANCH   1  28
ATOM     23  C   UNL     1       5.319  -1.605   1.466  0.00  0.00    +0.125 A 
ATOM     24  C   UNL     1       6.048  -2.007   0.357  0.00  0.00    +0.046 A 
ATOM     25  C   UNL     1       7.245  -2.676   0.525  0.00  0.00    +0.004 A 
ATOM     26  C   UNL     1       7.716  -2.945   1.797  0.00  0.00    +0.001 A 
ATOM     27  C   UNL     1       6.991  -2.545   2.904  0.00  0.00    +0.008 A 
ATOM     28  C   UNL     1       5.796  -1.871   2.742  0.00  0.00    +0.003 A 
BRANCH  23  29
ATOM     29  O   UNL     1       4.141  -0.946   1.304  0.00  0.00    -0.487 OA
BRANCH  29  30
ATOM     30  C   UNL     1       3.711  -0.707  -0.038  0.00  0.00    +0.264 C 
BRANCH  30  34
ATOM     31  C   UNL     1      -0.017   1.378   0.010  0.00  0.00    +0.000 A 
ATOM     32  C   UNL     1       1.171   2.086   0.002  0.00  0.00    +0.000 A 
ATOM     33  C   UNL     1       2.377   1.411  -0.013  0.00  0.00    +0.007 A 
ATOM     34  C   UNL     1       2.396   0.029  -0.020  0.00  0.00    -0.010 A 
ATOM     35  C   UNL     1       1.208  -0.679  -0.012  0.00  0.00    +0.007 A 
ATOM     36  C   UNL     1       0.002  -0.004   0.002  0.00  0.00    +0.000 A 
ENDBRANCH  30  34
ENDBRANCH  29  30
ENDBRANCH  23  29
ENDBRANCH   1  28
TORSDOF 5
