REMARK  Name = ZINC35023247
REMARK  7 active torsions:
REMARK  status: ('A' for Active; 'I' for Inactive)
REMARK    1  A    between atoms: C_1  and  O_2
REMARK    2  A    between atoms: O_2  and  C_3
REMARK    3  A    between atoms: C_6  and  C_9
REMARK    4  A    between atoms: C_9  and  C_11
REMARK    5  A    between atoms: C_13  and  C_25
REMARK    6  A    between atoms: C_19  and  C_20
REMARK    7  A    between atoms: C_19  and  O_24
REMARK                            x       y       z     vdW  Elec       q    Type
REMARK                         _______ _______ _______ _____ _____    ______ ____
ROOT
ATOM      1  C   UNL     1       2.498  -4.235  -4.276  0.00  0.00    +0.144 C 
ATOM      2  C   UNL     1       2.746  -4.759  -5.694  0.00  0.00    +0.117 C 
ATOM      3  N   UNL     1       3.216  -6.143  -5.620  0.00  0.00    -0.319 N 
ATOM      4  C   UNL     1       3.906  -6.590  -4.560  0.00  0.00    +0.133 C 
ATOM      5  S   UNL     1       4.436  -8.217  -4.551  0.00  0.00    -0.019 S 
ATOM      6  N   UNL     1       4.198  -5.811  -3.507  0.00  0.00    -0.291 N 
ATOM      7  C   UNL     1       3.781  -4.408  -3.457  0.00  0.00    +0.241 C 
ATOM      8  H   UNL     1       3.024  -6.750  -6.352  0.00  0.00    +0.148 HD
ATOM      9  H   UNL     1       4.693  -6.186  -2.762  0.00  0.00    +0.151 HD
ENDROOT
BRANCH   2  10
ATOM     10  C   UNL     1       1.463  -4.703  -6.483  0.00  0.00    -0.026 A 
ATOM     11  C   UNL     1       0.507  -5.688  -6.318  0.00  0.00    +0.008 A 
ATOM     12  C   UNL     1      -0.670  -5.638  -7.041  0.00  0.00    +0.038 A 
ATOM     13  C   UNL     1      -0.892  -4.600  -7.930  0.00  0.00    +0.123 A 
ATOM     14  C   UNL     1       0.066  -3.614  -8.095  0.00  0.00    +0.038 A 
ATOM     15  C   UNL     1       1.240  -3.663  -7.367  0.00  0.00    +0.008 A 
ATOM     16  F   UNL     1      -2.042  -4.550  -8.637  0.00  0.00    -0.205 F 
ENDBRANCH   2  10
BRANCH   7  17
ATOM     17  C   UNL     1       3.520  -4.000  -2.005  0.00  0.00    +0.436 C 
ATOM     18  F   UNL     1       2.426  -4.717  -1.509  0.00  0.00    -0.166 F 
ATOM     19  F   UNL     1       4.652  -4.280  -1.231  0.00  0.00    -0.166 F 
ATOM     20  F   UNL     1       3.244  -2.630  -1.949  0.00  0.00    -0.166 F 
ENDBRANCH   7  17
BRANCH   1  21
ATOM     21  C   UNL     1       2.127  -2.776  -4.333  0.00  0.00    +0.173 C 
ATOM     22  O   UNL     1       2.885  -1.976  -4.840  0.00  0.00    -0.292 OA
BRANCH  21  26
ATOM     23  C   UNL     1      -1.564  -1.464  -2.722  0.00  0.00    +0.120 A 
ATOM     24  C   UNL     1      -0.637  -0.533  -3.178  0.00  0.00    +0.046 A 
ATOM     25  C   UNL     1       0.560  -0.952  -3.700  0.00  0.00    +0.015 A 
ATOM     26  C   UNL     1       0.847  -2.321  -3.774  0.00  0.00    +0.018 A 
ATOM     27  C   UNL     1      -0.090  -3.254  -3.314  0.00  0.00    +0.015 A 
ATOM     28  C   UNL     1      -1.282  -2.825  -2.789  0.00  0.00    +0.046 A 
BRANCH  23  30
ATOM     29  C   UNL     1      -2.973   0.366  -2.167  0.00  0.00    +0.277 C 
ATOM     30  O   UNL     1      -2.747  -1.044  -2.206  0.00  0.00    -0.495 OA
ENDBRANCH  23  30
ENDBRANCH  21  26
ENDBRANCH   1  21
BRANCH   7  31
ATOM     31  O   UNL     1       4.813  -3.587  -4.007  0.00  0.00    -0.364 OA
ATOM     32  H   UNL     1       5.656  -3.647  -3.536  0.00  0.00    +0.212 HD
ENDBRANCH   7  31
TORSDOF 6
