REMARK  Name = ZINC39886749
REMARK  5 active torsions:
REMARK  status: ('A' for Active; 'I' for Inactive)
REMARK    1  A    between atoms: C_1  and  C_2
REMARK    2  A    between atoms: C_2  and  C_3
REMARK    3  A    between atoms: C_2  and  C_4
REMARK    4  A    between atoms: C_2  and  C_5
REMARK    5  A    between atoms: C_8  and  C_11
REMARK                            x       y       z     vdW  Elec       q    Type
REMARK                         _______ _______ _______ _____ _____    ______ ____
ROOT
ATOM      1  C   UNL     1       2.707  -1.868  -4.752  0.00  0.00    +0.072 C 
ATOM      2  C   UNL     1       3.173  -0.695  -5.562  0.00  0.00    +0.032 A 
ATOM      3  C   UNL     1       4.347  -0.514  -6.237  0.00  0.00    +0.110 A 
ATOM      4  N   UNL     1       4.470   0.664  -6.844  0.00  0.00    -0.225 NA
ATOM      5  C   UNL     1       3.514   1.569  -6.804  0.00  0.00    +0.147 A 
ATOM      6  S   UNL     1       3.492   3.169  -7.541  0.00  0.00    -0.023 SA
ATOM      7  S   UNL     1       2.319   0.827  -5.878  0.00  0.00    -0.063 S 
ATOM      8  S   UNL     1       5.584  -1.803  -6.282  0.00  0.00    -0.091 S 
ATOM      9  C   UNL     1       4.611  -3.198  -5.658  0.00  0.00    +0.152 C 
ATOM     10  C   UNL     1       3.913  -2.688  -4.362  0.00  0.00    +0.110 C 
ATOM     11  C   UNL     1       3.709  -3.979  -3.633  0.00  0.00    +0.235 C 
ATOM     12  O   UNL     1       2.818  -4.244  -2.861  0.00  0.00    -0.274 OA
ATOM     13  N   UNL     1       4.727  -4.793  -4.016  0.00  0.00    -0.162 N 
ATOM     14  C   UNL     1       5.427  -4.336  -5.107  0.00  0.00    +0.244 C 
ATOM     15  O   UNL     1       6.480  -4.746  -5.534  0.00  0.00    -0.273 OA
ATOM     16  C   UNL     1       5.017  -5.954  -3.396  0.00  0.00    +0.313 C 
ATOM     17  O   UNL     1       4.353  -6.317  -2.445  0.00  0.00    -0.252 OA
ATOM     18  N   UNL     1       6.043  -6.712  -3.830  0.00  0.00    -0.313 N 
ATOM     19  H   UNL     1       6.573  -6.422  -4.589  0.00  0.00    +0.147 HD
ATOM     20  H   UNL     1       6.251  -7.548  -3.384  0.00  0.00    +0.147 HD
ENDROOT
BRANCH   1  24
ATOM     21  C   UNL     1       0.707  -0.490  -1.238  0.00  0.00    -0.042 A 
ATOM     22  C   UNL     1       0.036  -1.284  -2.148  0.00  0.00    +0.004 A 
ATOM     23  C   UNL     1       0.683  -1.730  -3.286  0.00  0.00    +0.004 A 
ATOM     24  C   UNL     1       2.001  -1.381  -3.513  0.00  0.00    -0.039 A 
ATOM     25  C   UNL     1       2.672  -0.586  -2.603  0.00  0.00    +0.004 A 
ATOM     26  C   UNL     1       2.024  -0.137  -1.467  0.00  0.00    +0.004 A 
BRANCH  21  28
ATOM     27  C   UNL     1      -0.019   1.526   0.010  0.00  0.00    +0.015 C 
ATOM     28  C   UNL     1       0.002  -0.004   0.002  0.00  0.00    -0.013 C 
ATOM     29  C   UNL     1       0.742  -0.511   1.242  0.00  0.00    +0.015 C 
ATOM     30  C   UNL     1      -1.433  -0.534   0.013  0.00  0.00    +0.015 C 
ENDBRANCH  21  28
ENDBRANCH   1  24
TORSDOF 2
