REMARK  Name = ZINC35684478
REMARK  7 active torsions:
REMARK  status: ('A' for Active; 'I' for Inactive)
REMARK    1  A    between atoms: C_1  and  C_2
REMARK    2  A    between atoms: C_5  and  C_8
REMARK    3  A    between atoms: C_9  and  C_31
REMARK    4  A    between atoms: C_13  and  C_19
REMARK    5  A    between atoms: N_21  and  C_22
REMARK    6  A    between atoms: C_26  and  C_28
REMARK    7  A    between atoms: C_28  and  C_30
REMARK                            x       y       z     vdW  Elec       q    Type
REMARK                         _______ _______ _______ _____ _____    ______ ____
ROOT
ATOM      1  C   UNL     1       0.059  -4.257  -0.016  0.00  0.00    +0.098 A 
ATOM      2  C   UNL     1       0.732  -5.084   0.908  0.00  0.00    +0.017 A 
ATOM      3  C   UNL     1       0.506  -6.363   0.552  0.00  0.00    +0.128 A 
ATOM      4  N   UNL     1      -0.285  -6.356  -0.564  0.00  0.00    -0.237 N 
ATOM      5  N   UNL     1      -0.553  -5.031  -0.893  0.00  0.00    -0.169 NA
ATOM      6  C   UNL     1      -0.725  -7.586  -1.226  0.00  0.00    +0.204 C 
ATOM      7  C   UNL     1       0.335  -8.669  -1.006  0.00  0.00    +0.132 C 
ATOM      8  C   UNL     1       0.810  -8.690   0.419  0.00  0.00    +0.221 C 
ATOM      9  O   UNL     1       1.079  -9.753   0.937  0.00  0.00    -0.275 OA
ATOM     10  N   UNL     1       0.944  -7.552   1.138  0.00  0.00    -0.270 N 
ATOM     11  C   UNL     1       1.556  -4.619   2.081  0.00  0.00    +0.049 C 
ATOM     12  H   UNL     1       1.331  -7.562   2.027  0.00  0.00    +0.156 HD
ENDROOT
BRANCH   1  17
ATOM     13  C   UNL     1      -0.027   1.502   0.042  0.00  0.00    +0.044 C 
ATOM     14  C   UNL     1      -0.004  -0.005   0.027  0.00  0.00    -0.050 A 
ATOM     15  C   UNL     1      -0.007  -0.682  -1.179  0.00  0.00    +0.004 A 
ATOM     16  C   UNL     1       0.013  -2.062  -1.199  0.00  0.00    +0.010 A 
ATOM     17  C   UNL     1       0.037  -2.773  -0.001  0.00  0.00    +0.002 A 
ATOM     18  C   UNL     1       0.040  -2.086   1.211  0.00  0.00    +0.010 A 
ATOM     19  C   UNL     1       0.025  -0.706   1.219  0.00  0.00    +0.004 A 
ENDBRANCH   1  17
BRANCH   6  20
ATOM     20  C   UNL     1      -2.039  -8.034  -0.639  0.00  0.00    +0.242 C 
ATOM     21  O   UNL     1      -2.558  -7.389   0.247  0.00  0.00    -0.273 OA
ATOM     22  N   UNL     1      -2.636  -9.151  -1.099  0.00  0.00    -0.284 N 
ATOM     23  H   UNL     1      -2.256  -9.630  -1.852  0.00  0.00    +0.155 HD
BRANCH  22  24
ATOM     24  C   UNL     1      -3.805  -9.621  -0.490  0.00  0.00    +0.034 A 
ATOM     25  C   UNL     1      -4.032 -10.988  -0.383  0.00  0.00    +0.023 A 
ATOM     26  C   UNL     1      -5.185 -11.459   0.218  0.00  0.00    +0.002 A 
ATOM     27  C   UNL     1      -6.120 -10.575   0.716  0.00  0.00    +0.011 A 
ATOM     28  C   UNL     1      -5.902  -9.197   0.614  0.00  0.00    +0.019 A 
ATOM     29  C   UNL     1      -4.733  -8.723   0.012  0.00  0.00    +0.034 A 
BRANCH  28  30
ATOM     30  C   UNL     1      -6.897  -8.251   1.144  0.00  0.00    +0.160 C 
ATOM     31  O   UNL     1      -6.706  -7.056   1.054  0.00  0.00    -0.292 OA
ATOM     32  C   UNL     1      -8.153  -8.765   1.798  0.00  0.00    +0.091 C 
ENDBRANCH  28  30
ENDBRANCH  22  24
ENDBRANCH   6  20
TORSDOF 4
