REMARK  Name = ZINC12951079
REMARK  13 active torsions:
REMARK  status: ('A' for Active; 'I' for Inactive)
REMARK    1  A    between atoms: C_1  and  O_2
REMARK    2  A    between atoms: O_2  and  C_3
REMARK    3  A    between atoms: C_3  and  C_5
REMARK    4  A    between atoms: C_7  and  O_28
REMARK    5  A    between atoms: C_9  and  O_11
REMARK    6  A    between atoms: O_11  and  C_12
REMARK    7  A    between atoms: C_12  and  C_13
REMARK    8  A    between atoms: N_15  and  C_18
REMARK    9  A    between atoms: C_21  and  C_24
REMARK   10  A    between atoms: O_28  and  C_29
REMARK   11  A    between atoms: C_29  and  C_30
REMARK   12  A    between atoms: N_32  and  C_35
REMARK   13  A    between atoms: C_38  and  C_41
REMARK                            x       y       z     vdW  Elec       q    Type
REMARK                         _______ _______ _______ _____ _____    ______ ____
ROOT
ATOM      1  C   UNL     1      -2.488  -2.671   0.010  0.00  0.00    +0.066 A 
ATOM      2  C   UNL     1      -3.666  -1.922   0.025  0.00  0.00    +0.060 A 
ATOM      3  C   UNL     1      -3.604  -0.538   0.033  0.00  0.00    +0.125 A 
ATOM      4  C   UNL     1      -2.373   0.103   0.025  0.00  0.00    +0.091 A 
ATOM      5  C   UNL     1      -1.200  -0.637   0.010  0.00  0.00    +0.125 A 
ATOM      6  C   UNL     1      -1.253  -2.021  -0.003  0.00  0.00    +0.060 A 
ENDROOT
BRANCH   1   7
ATOM      7  C   UNL     1      -2.549  -4.147   0.002  0.00  0.00    +0.339 C 
ATOM      8  O   UNL     1      -3.626  -4.710   0.008  0.00  0.00    -0.245 OA
BRANCH   7  10
ATOM      9  C   UNL     1      -1.548  -6.314  -0.020  0.00  0.00    +0.280 C 
ATOM     10  O   UNL     1      -1.412  -4.868  -0.013  0.00  0.00    -0.464 OA
ENDBRANCH   7  10
ENDBRANCH   1   7
BRANCH   5  11
ATOM     11  O   UNL     1       0.002  -0.004   0.002  0.00  0.00    -0.486 OA
BRANCH  11  12
ATOM     12  C   UNL     1      -0.017   1.425   0.010  0.00  0.00    +0.287 C 
BRANCH  12  13
ATOM     13  C   UNL     1       1.397   1.946  -0.001  0.00  0.00    +0.120 A 
ATOM     14  C   UNL     1       2.531   1.209  -0.016  0.00  0.00    +0.143 A 
ATOM     15  N   UNL     1       3.560   2.100  -0.021  0.00  0.00    -0.220 N 
ATOM     16  N   UNL     1       3.061   3.287  -0.011  0.00  0.00    -0.060 NA
ATOM     17  N   UNL     1       1.776   3.229  -0.003  0.00  0.00    -0.131 NA
BRANCH  15  18
ATOM     18  C   UNL     1       4.926   1.782  -0.037  0.00  0.00    +0.067 A 
ATOM     19  C   UNL     1       5.330   0.454  -0.042  0.00  0.00    +0.028 A 
ATOM     20  C   UNL     1       6.676   0.143  -0.063  0.00  0.00    +0.014 A 
ATOM     21  C   UNL     1       7.620   1.154  -0.068  0.00  0.00    +0.055 A 
ATOM     22  C   UNL     1       7.220   2.478  -0.057  0.00  0.00    +0.014 A 
ATOM     23  C   UNL     1       5.876   2.794  -0.041  0.00  0.00    +0.028 A 
BRANCH  21  24
ATOM     24  C   UNL     1       9.087   0.812  -0.084  0.00  0.00    +0.417 C 
ATOM     25  F   UNL     1       9.554   0.699   1.230  0.00  0.00    -0.166 F 
ATOM     26  F   UNL     1       9.276  -0.403  -0.751  0.00  0.00    -0.166 F 
ATOM     27  F   UNL     1       9.794   1.822  -0.745  0.00  0.00    -0.166 F 
ENDBRANCH  21  24
ENDBRANCH  15  18
ENDBRANCH  12  13
ENDBRANCH  11  12
ENDBRANCH   5  11
BRANCH   3  28
ATOM     28  O   UNL     1      -4.750   0.193   0.047  0.00  0.00    -0.486 OA
BRANCH  28  29
ATOM     29  C   UNL     1      -4.612   1.615   0.054  0.00  0.00    +0.287 C 
BRANCH  29  30
ATOM     30  C   UNL     1      -5.978   2.251   0.070  0.00  0.00    +0.120 A 
ATOM     31  C   UNL     1      -7.170   1.610   0.077  0.00  0.00    +0.143 A 
ATOM     32  N   UNL     1      -8.121   2.584   0.092  0.00  0.00    -0.220 N 
ATOM     33  N   UNL     1      -7.526   3.725   0.093  0.00  0.00    -0.060 NA
ATOM     34  N   UNL     1      -6.250   3.561   0.086  0.00  0.00    -0.131 NA
BRANCH  32  35
ATOM     35  C   UNL     1      -9.508   2.379   0.104  0.00  0.00    +0.067 A 
ATOM     36  C   UNL     1     -10.021   1.089   0.095  0.00  0.00    +0.028 A 
ATOM     37  C   UNL     1     -11.388   0.891   0.113  0.00  0.00    +0.014 A 
ATOM     38  C   UNL     1     -12.245   1.976   0.127  0.00  0.00    +0.055 A 
ATOM     39  C   UNL     1     -11.738   3.262   0.130  0.00  0.00    +0.014 A 
ATOM     40  C   UNL     1     -10.372   3.466   0.118  0.00  0.00    +0.028 A 
BRANCH  38  41
ATOM     41  C   UNL     1     -13.736   1.756   0.140  0.00  0.00    +0.417 C 
ATOM     42  F   UNL     1     -14.210   1.695  -1.175  0.00  0.00    -0.166 F 
ATOM     43  F   UNL     1     -14.025   0.554   0.795  0.00  0.00    -0.166 F 
ATOM     44  F   UNL     1     -14.358   2.814   0.811  0.00  0.00    -0.166 F 
ENDBRANCH  38  41
ENDBRANCH  32  35
ENDBRANCH  29  30
ENDBRANCH  28  29
ENDBRANCH   3  28
TORSDOF 12
