REMARK  Name = ZINC09279777
REMARK  9 active torsions:
REMARK  status: ('A' for Active; 'I' for Inactive)
REMARK    1  A    between atoms: C_1  and  O_2
REMARK    2  A    between atoms: O_2  and  C_3
REMARK    3  A    between atoms: C_3  and  C_4
REMARK    4  A    between atoms: C_4  and  N_5
REMARK    5  A    between atoms: C_9  and  S_28
REMARK    6  A    between atoms: N_14  and  C_15
REMARK    7  A    between atoms: C_15  and  C_17
REMARK    8  A    between atoms: C_17  and  C_18
REMARK    9  A    between atoms: S_28  and  N_31
REMARK                            x       y       z     vdW  Elec       q    Type
REMARK                         _______ _______ _______ _____ _____    ______ ____
ROOT
ATOM      1  N   UNL     1       5.835  -4.341   3.280  0.00  0.00    -0.319 N 
ATOM      2  C   UNL     1       6.130  -4.418   4.628  0.00  0.00    +0.058 A 
ATOM      3  C   UNL     1       7.240  -5.016   5.245  0.00  0.00    +0.029 A 
ATOM      4  C   UNL     1       7.377  -5.001   6.613  0.00  0.00    +0.030 A 
ATOM      5  C   UNL     1       6.429  -4.399   7.423  0.00  0.00    +0.106 A 
ATOM      6  C   UNL     1       5.325  -3.801   6.841  0.00  0.00    +0.045 A 
ATOM      7  C   UNL     1       5.186  -3.816   5.474  0.00  0.00    +0.041 A 
ATOM      8  S   UNL     1       3.972  -3.185   4.344  0.00  0.00    -0.052 S 
ATOM      9  C   UNL     1       4.702  -3.717   2.864  0.00  0.00    +0.166 A 
ATOM     10  N   UNL     1       4.262  -3.549   1.619  0.00  0.00    -0.156 NA
ENDROOT
BRANCH   5  11
ATOM     11  S   UNL     1       6.627  -4.393   9.174  0.00  0.00    +0.056 S 
ATOM     12  O   UNL     1       5.327  -4.242   9.729  0.00  0.00    -0.153 OA
ATOM     13  O   UNL     1       7.467  -5.494   9.491  0.00  0.00    -0.153 OA
BRANCH  11  14
ATOM     14  N   UNL     1       7.471  -3.024   9.567  0.00  0.00    -0.204 NA
ATOM     15  H   UNL     1       7.328  -2.595  10.425  0.00  0.00    +0.144 HD
ATOM     16  H   UNL     1       8.109  -2.650   8.938  0.00  0.00    +0.144 HD
ENDBRANCH  11  14
ENDBRANCH   5  11
BRANCH  10  17
ATOM     17  C   UNL     1       3.121  -2.905   1.399  0.00  0.00    +0.243 C 
ATOM     18  O   UNL     1       2.478  -2.470   2.335  0.00  0.00    -0.273 OA
BRANCH  17  19
ATOM     19  C   UNL     1       2.622  -2.715  -0.011  0.00  0.00    +0.133 C 
BRANCH  19  20
ATOM     20  C   UNL     1       1.318  -1.961   0.015  0.00  0.00    -0.031 A 
ATOM     21  C   UNL     1       0.136  -2.637  -0.006  0.00  0.00    +0.005 A 
ATOM     22  C   UNL     1      -1.080  -1.957   0.018  0.00  0.00    +0.001 A 
ATOM     23  C   UNL     1      -1.121  -0.597   0.063  0.00  0.00    +0.008 A 
ATOM     24  C   UNL     1       0.077   0.135   0.086  0.00  0.00    -0.018 A 
ATOM     25  C   UNL     1       1.315  -0.557   0.061  0.00  0.00    -0.014 A 
ATOM     26  C   UNL     1       2.514   0.175   0.084  0.00  0.00    +0.009 A 
ATOM     27  C   UNL     1       2.472   1.535   0.128  0.00  0.00    +0.001 A 
ATOM     28  C   UNL     1       1.256   2.215   0.152  0.00  0.00    +0.001 A 
ATOM     29  C   UNL     1       0.074   1.540   0.132  0.00  0.00    +0.008 A 
ENDBRANCH  19  20
ENDBRANCH  17  19
ENDBRANCH  10  17
BRANCH   1  30
ATOM     30  C   UNL     1       6.747  -4.935   2.298  0.00  0.00    +0.152 C 
BRANCH  30  31
ATOM     31  C   UNL     1       5.935  -5.546   1.154  0.00  0.00    +0.181 C 
BRANCH  31  33
ATOM     32  C   UNL     1       6.152  -6.853  -0.844  0.00  0.00    +0.194 C 
ATOM     33  O   UNL     1       6.813  -6.241   0.266  0.00  0.00    -0.381 OA
ENDBRANCH  31  33
ENDBRANCH  30  31
ENDBRANCH   1  30
TORSDOF 8
