REMARK  Name = ZINC58131059
REMARK  9 active torsions:
REMARK  status: ('A' for Active; 'I' for Inactive)
REMARK    1  A    between atoms: C_1  and  C_2
REMARK    2  A    between atoms: C_2  and  C_3
REMARK    3  A    between atoms: C_3  and  N_4
REMARK    4  A    between atoms: C_5  and  C_7
REMARK    5  A    between atoms: C_7  and  N_8
REMARK    6  A    between atoms: C_11  and  N_14
REMARK    7  A    between atoms: C_15  and  C_17
REMARK    8  A    between atoms: C_17  and  N_23
REMARK    9  A    between atoms: C_24  and  C_26
REMARK                            x       y       z     vdW  Elec       q    Type
REMARK                         _______ _______ _______ _____ _____    ______ ____
ROOT
ATOM      1  N   UNL     1      -4.035  -4.505  -0.201  0.00  0.00    +0.385 N 
ATOM      2  C   UNL     1      -4.676  -4.249  -1.496  0.00  0.00    -0.076 C 
ATOM      3  C   UNL     1      -6.128  -4.730  -1.455  0.00  0.00    +0.003 C 
ATOM      4  C   UNL     1      -6.154  -6.233  -1.159  0.00  0.00    +0.069 C 
ATOM      5  C   UNL     1      -5.417  -6.497   0.157  0.00  0.00    +0.003 C 
ATOM      6  C   UNL     1      -3.991  -5.950   0.056  0.00  0.00    -0.076 C 
ATOM      7  H   UNL     1      -4.562  -4.050   0.529  0.00  0.00    -0.081 HD
ENDROOT
BRANCH   4   8
ATOM      8  N   UNL     1      -7.542  -6.686  -1.043  0.00  0.00    -0.311 N 
ATOM      9  C   UNL     1      -7.853  -7.974  -1.287  0.00  0.00    +0.237 C 
ATOM     10  O   UNL     1      -7.002  -8.738  -1.690  0.00  0.00    -0.273 OA
ATOM     11  H   UNL     1      -8.237  -6.058  -0.791  0.00  0.00    +0.149 HD
BRANCH   9  12
ATOM     12  C   UNL     1      -9.259  -8.466  -1.058  0.00  0.00    +0.111 C 
ATOM     13  C   UNL     1      -9.238  -9.976  -0.816  0.00  0.00    +0.035 C 
ATOM     14  C   UNL     1     -10.666 -10.476  -0.584  0.00  0.00    +0.003 C 
ATOM     15  C   UNL     1     -11.520 -10.168  -1.816  0.00  0.00    +0.000 C 
ATOM     16  C   UNL     1     -11.541  -8.658  -2.058  0.00  0.00    +0.003 C 
ATOM     17  C   UNL     1     -10.114  -8.159  -2.290  0.00  0.00    +0.035 C 
BRANCH  12  18
ATOM     18  N   UNL     1      -9.828  -7.792   0.111  0.00  0.00    -0.302 N 
ATOM     19  C   UNL     1      -9.188  -7.842   1.296  0.00  0.00    +0.211 C 
ATOM     20  O   UNL     1      -8.189  -8.518   1.417  0.00  0.00    -0.276 OA
ATOM     21  C   UNL     1      -9.713  -7.056   2.470  0.00  0.00    +0.109 C 
ATOM     22  H   UNL     1     -10.666  -7.309   0.033  0.00  0.00    +0.150 HD
ENDBRANCH  12  18
ENDBRANCH   9  12
ENDBRANCH   4   8
BRANCH   1  23
ATOM     23  C   UNL     1      -2.667  -3.971  -0.219  0.00  0.00    +0.019 C 
BRANCH  23  25
ATOM     24  N   UNL     1      -1.569  -1.762  -0.400  0.00  0.00    -0.317 N 
ATOM     25  C   UNL     1      -2.714  -2.472  -0.360  0.00  0.00    +0.196 C 
ATOM     26  O   UNL     1      -3.783  -1.904  -0.438  0.00  0.00    -0.278 OA
ATOM     27  H   UNL     1      -0.714  -2.216  -0.339  0.00  0.00    +0.149 HD
BRANCH  24  28
ATOM     28  C   UNL     1      -1.616  -0.304  -0.537  0.00  0.00    +0.104 C 
BRANCH  28  30
ATOM     29  C   UNL     1      -0.239   1.774  -0.700  0.00  0.00    +0.005 C 
ATOM     30  C   UNL     1      -0.190   0.252  -0.557  0.00  0.00    +0.015 C 
ENDBRANCH  28  30
ENDBRANCH  24  28
ENDBRANCH  23  25
ENDBRANCH   1  23
TORSDOF 7
