REMARK  Name = ZINC29414042
REMARK  8 active torsions:
REMARK  status: ('A' for Active; 'I' for Inactive)
REMARK    1  A    between atoms: C_1  and  C_2
REMARK    2  A    between atoms: C_5  and  C_37
REMARK    3  A    between atoms: C_10  and  C_12
REMARK    4  A    between atoms: C_17  and  N_18
REMARK    5  A    between atoms: C_19  and  C_21
REMARK    6  A    between atoms: C_24  and  N_27
REMARK    7  A    between atoms: N_27  and  S_28
REMARK    8  A    between atoms: S_28  and  C_31
REMARK                            x       y       z     vdW  Elec       q    Type
REMARK                         _______ _______ _______ _____ _____    ______ ____
ROOT
ATOM      1  N   UNL     1       1.029  -5.427  -2.038  0.00  0.00    -0.281 N 
ATOM      2  C   UNL     1       1.360  -5.009  -0.800  0.00  0.00    +0.248 C 
ATOM      3  O   UNL     1       1.269  -5.771   0.144  0.00  0.00    -0.270 OA
ATOM      4  H   UNL     1       1.192  -4.767  -2.903  0.00  0.00    +0.155 HD
ENDROOT
BRANCH   1  10
ATOM      5  C   UNL     1       0.551  -7.316  -3.477  0.00  0.00    +0.058 A 
ATOM      6  C   UNL     1      -0.003  -8.587  -3.648  0.00  0.00    +0.015 A 
ATOM      7  C   UNL     1      -0.613  -9.220  -2.586  0.00  0.00    +0.001 A 
ATOM      8  C   UNL     1      -0.679  -8.602  -1.347  0.00  0.00    +0.002 A 
ATOM      9  C   UNL     1      -0.132  -7.349  -1.162  0.00  0.00    +0.024 A 
ATOM     10  C   UNL     1       0.481  -6.693  -2.221  0.00  0.00    +0.046 A 
BRANCH   5  18
ATOM     11  C   UNL     1      -3.050  -6.468  -6.865  0.00  0.00    +0.009 C 
ATOM     12  C   UNL     1      -1.647  -5.934  -6.567  0.00  0.00    +0.004 C 
ATOM     13  C   UNL     1      -0.999  -5.449  -7.866  0.00  0.00    +0.009 C 
ATOM     14  C   UNL     1       0.391  -4.884  -7.565  0.00  0.00    +0.004 C 
ATOM     15  C   UNL     1       1.269  -5.989  -6.969  0.00  0.00    +0.111 C 
ATOM     16  N   UNL     1       0.583  -6.560  -5.802  0.00  0.00    -0.297 N 
ATOM     17  C   UNL     1      -0.790  -7.056  -5.962  0.00  0.00    +0.111 C 
ATOM     18  C   UNL     1       1.205  -6.633  -4.608  0.00  0.00    +0.248 C 
ATOM     19  O   UNL     1       2.305  -6.136  -4.465  0.00  0.00    -0.270 OA
ATOM     20  C   UNL     1       0.268  -3.734  -6.563  0.00  0.00    +0.009 C 
ENDBRANCH   5  18
ENDBRANCH   1  10
BRANCH   2  21
ATOM     21  C   UNL     1       1.834  -3.628  -0.590  0.00  0.00    +0.037 A 
ATOM     22  C   UNL     1       2.178  -3.193   0.694  0.00  0.00    +0.015 A 
ATOM     23  C   UNL     1       2.619  -1.904   0.887  0.00  0.00    +0.025 A 
ATOM     24  C   UNL     1       2.724  -1.034  -0.195  0.00  0.00    +0.048 A 
ATOM     25  C   UNL     1       2.377  -1.462  -1.473  0.00  0.00    +0.025 A 
ATOM     26  C   UNL     1       1.940  -2.751  -1.673  0.00  0.00    +0.015 A 
BRANCH  24  27
ATOM     27  N   UNL     1       3.171   0.268   0.003  0.00  0.00    -0.216 N 
ATOM     28  H   UNL     1       2.455   1.103  -0.015  0.00  0.00    +0.174 HD
BRANCH  27  29
ATOM     29  S   UNL     1       4.779   0.560   0.267  0.00  0.00    +0.072 S 
ATOM     30  O   UNL     1       4.921   1.969   0.390  0.00  0.00    -0.150 OA
ATOM     31  O   UNL     1       5.194  -0.339   1.286  0.00  0.00    -0.150 OA
BRANCH  29  32
ATOM     32  C   UNL     1       5.641   0.094  -1.198  0.00  0.00    +0.108 A 
ATOM     33  C   UNL     1       6.036  -1.218  -1.378  0.00  0.00    +0.029 A 
ATOM     34  C   UNL     1       6.707  -1.586  -2.530  0.00  0.00    +0.002 A 
ATOM     35  C   UNL     1       6.992  -0.639  -3.496  0.00  0.00    +0.000 A 
ATOM     36  C   UNL     1       6.601   0.674  -3.313  0.00  0.00    +0.002 A 
ATOM     37  C   UNL     1       5.925   1.040  -2.164  0.00  0.00    +0.029 A 
ENDBRANCH  29  32
ENDBRANCH  27  29
ENDBRANCH  24  27
ENDBRANCH   2  21
TORSDOF 6
