REMARK  Name = ZINC13372046
REMARK  4 active torsions:
REMARK  status: ('A' for Active; 'I' for Inactive)
REMARK    1  A    between atoms: C_6  and  C_7
REMARK    2  A    between atoms: C_13  and  C_18
REMARK    3  A    between atoms: C_13  and  O_27
REMARK    4  A    between atoms: C_14  and  O_17
REMARK                            x       y       z     vdW  Elec       q    Type
REMARK                         _______ _______ _______ _____ _____    ______ ____
ROOT
ATOM      1  C   UNL     1      -1.629  -0.154   0.115  0.00  0.00    +0.157 C 
ATOM      2  C   UNL     1      -2.097  -0.508   1.543  0.00  0.00    +0.088 C 
ATOM      3  C   UNL     1      -1.670  -1.958   1.859  0.00  0.00    +0.173 C 
ATOM      4  O   UNL     1      -2.734  -2.781   1.335  0.00  0.00    -0.342 OA
ATOM      5  C   UNL     1      -3.954  -2.086   1.672  0.00  0.00    +0.227 C 
ATOM      6  C   UNL     1      -3.647  -0.576   1.421  0.00  0.00    +0.154 C 
ATOM      7  C   UNL     1      -3.915  -0.253  -0.065  0.00  0.00    +0.201 C 
ATOM      8  O   UNL     1      -2.761   0.501  -0.497  0.00  0.00    -0.368 OA
ENDROOT
BRANCH   1  14
ATOM      9  C   UNL     1      -0.644   2.126   0.419  0.00  0.00    +0.010 A 
ATOM     10  C   UNL     1       0.436   2.987   0.468  0.00  0.00    +0.050 A 
ATOM     11  C   UNL     1       1.718   2.504   0.263  0.00  0.00    +0.166 A 
ATOM     12  C   UNL     1       1.915   1.149   0.009  0.00  0.00    +0.167 A 
ATOM     13  C   UNL     1       0.828   0.292  -0.038  0.00  0.00    +0.055 A 
ATOM     14  C   UNL     1      -0.449   0.781   0.167  0.00  0.00    -0.015 A 
ATOM     15  O   UNL     1       3.252   0.926  -0.156  0.00  0.00    -0.453 OA
ATOM     16  C   UNL     1       3.830   2.221  -0.405  0.00  0.00    +0.466 C 
ATOM     17  O   UNL     1       2.931   3.130   0.258  0.00  0.00    -0.453 OA
ENDBRANCH   1  14
BRANCH   5  18
ATOM     18  C   UNL     1      -5.082  -2.548   0.787  0.00  0.00    +0.018 A 
ATOM     19  C   UNL     1      -4.805  -3.144  -0.430  0.00  0.00    +0.013 A 
ATOM     20  C   UNL     1      -5.837  -3.569  -1.246  0.00  0.00    +0.050 A 
ATOM     21  C   UNL     1      -7.152  -3.398  -0.846  0.00  0.00    +0.166 A 
ATOM     22  C   UNL     1      -7.431  -2.798   0.380  0.00  0.00    +0.167 A 
ATOM     23  C   UNL     1      -6.392  -2.379   1.194  0.00  0.00    +0.058 A 
ATOM     24  O   UNL     1      -8.786  -2.746   0.541  0.00  0.00    -0.453 OA
ATOM     25  C   UNL     1      -9.338  -2.948  -0.773  0.00  0.00    +0.466 C 
ATOM     26  O   UNL     1      -8.332  -3.723  -1.452  0.00  0.00    -0.453 OA
ENDBRANCH   5  18
BRANCH   6  27
ATOM     27  O   UNL     1      -4.321   0.302   2.326  0.00  0.00    -0.380 OA
ATOM     28  H   UNL     1      -5.285   0.270   2.260  0.00  0.00    +0.211 HD
ENDBRANCH   6  27
BRANCH   5  29
ATOM     29  O   UNL     1      -4.282  -2.297   3.047  0.00  0.00    -0.359 OA
ATOM     30  H   UNL     1      -4.439  -3.224   3.276  0.00  0.00    +0.213 HD
ENDBRANCH   5  29
TORSDOF 4
