REMARK  Name = ZINC05010614
REMARK  4 active torsions:
REMARK  status: ('A' for Active; 'I' for Inactive)
REMARK    1  A    between atoms: C_8  and  C_10
REMARK    2  A    between atoms: C_11  and  O_21
REMARK    3  A    between atoms: N_13  and  C_16
REMARK    4  A    between atoms: C_14  and  N_15
REMARK                            x       y       z     vdW  Elec       q    Type
REMARK                         _______ _______ _______ _____ _____    ______ ____
ROOT
ATOM      1  C   UNL     1       2.991  -4.011  -0.048  0.00  0.00    +0.088 A 
ATOM      2  C   UNL     1       2.077  -5.161  -0.051  0.00  0.00    +0.146 A 
ATOM      3  C   UNL     1       2.847  -6.266  -0.061  0.00  0.00    +0.133 A 
ATOM      4  N   UNL     1       4.171  -5.893  -0.064  0.00  0.00    -0.329 N 
ATOM      5  C   UNL     1       4.273  -4.538  -0.063  0.00  0.00    +0.110 A 
ENDROOT
BRANCH   1  13
ATOM      6  C   UNL     1      -0.017   1.366   0.010  0.00  0.00    +0.002 A 
ATOM      7  C   UNL     1       1.156   2.107   0.002  0.00  0.00    +0.001 A 
ATOM      8  C   UNL     1       2.373   1.450  -0.013  0.00  0.00    +0.017 A 
ATOM      9  C   UNL     1       2.402   0.078  -0.021  0.00  0.00    +0.040 A 
ATOM     10  C   UNL     1       1.228  -0.710  -0.013  0.00  0.00    +0.079 A 
ATOM     11  C   UNL     1       0.002  -0.004   0.002  0.00  0.00    +0.029 A 
ATOM     12  N   UNL     1       1.419  -2.046  -0.022  0.00  0.00    -0.239 NA
ATOM     13  C   UNL     1       2.621  -2.587  -0.037  0.00  0.00    +0.116 A 
ATOM     14  S   UNL     1       3.685  -1.151  -0.039  0.00  0.00    -0.067 S 
ENDBRANCH   1  13
BRANCH   4  15
ATOM     15  C   UNL     1       5.305  -6.821  -0.075  0.00  0.00    +0.089 C 
ATOM     16  C   UNL     1       5.212  -7.756  -1.298  0.00  0.00    +0.025 C 
ATOM     17  C   UNL     1       5.722  -9.121  -0.773  0.00  0.00    +0.002 C 
ATOM     18  C   UNL     1       5.142  -9.173   0.662  0.00  0.00    +0.002 C 
ATOM     19  C   UNL     1       5.261  -7.721   1.172  0.00  0.00    +0.025 C 
ENDBRANCH   4  15
BRANCH   5  20
ATOM     20  N   UNL     1       5.452  -3.810  -0.071  0.00  0.00    -0.344 N 
ATOM     21  H   UNL     1       5.424  -2.840  -0.065  0.00  0.00    +0.144 HD
ATOM     22  H   UNL     1       6.306  -4.270  -0.082  0.00  0.00    +0.144 HD
ENDBRANCH   5  20
BRANCH   2  23
ATOM     23  O   UNL     1       0.716  -5.118  -0.044  0.00  0.00    -0.505 OA
ATOM     24  H   UNL     1       0.319  -5.100  -0.926  0.00  0.00    +0.292 HD
ENDBRANCH   2  23
TORSDOF 4
