REMARK  Name = ZINC62039579
REMARK  8 active torsions:
REMARK  status: ('A' for Active; 'I' for Inactive)
REMARK    1  A    between atoms: C_1  and  C_2
REMARK    2  A    between atoms: C_7  and  C_29
REMARK    3  A    between atoms: C_8  and  C_11
REMARK    4  A    between atoms: C_11  and  C_12
REMARK    5  A    between atoms: N_14  and  C_15
REMARK    6  A    between atoms: C_16  and  C_26
REMARK    7  A    between atoms: C_21  and  C_25
REMARK    8  A    between atoms: C_33  and  C_35
REMARK                            x       y       z     vdW  Elec       q    Type
REMARK                         _______ _______ _______ _____ _____    ______ ____
ROOT
ATOM      1  C   UNL     1       0.389  -2.662   3.653  0.00  0.00    +0.152 C 
ENDROOT
BRANCH   1   9
ATOM      2  C   UNL     1      -0.696   1.467   0.118  0.00  0.00    +0.045 C 
ATOM      3  C   UNL     1      -0.510  -0.028   0.080  0.00  0.00    -0.034 A 
ATOM      4  C   UNL     1      -0.614  -0.714  -1.142  0.00  0.00    +0.008 A 
ATOM      5  C   UNL     1      -0.445  -2.064  -1.173  0.00  0.00    +0.047 A 
ATOM      6  C   UNL     1      -0.168  -2.754   0.025  0.00  0.00    +0.138 A 
ATOM      7  N   UNL     1       0.037  -4.037   0.284  0.00  0.00    -0.228 NA
ATOM      8  C   UNL     1       0.263  -4.189   1.598  0.00  0.00    +0.093 A 
ATOM      9  C   UNL     1       0.198  -2.963   2.188  0.00  0.00    +0.060 A 
ATOM     10  N   UNL     1      -0.073  -2.056   1.202  0.00  0.00    -0.302 N 
ATOM     11  C   UNL     1      -0.239  -0.701   1.218  0.00  0.00    +0.096 A 
BRANCH   8  12
ATOM     12  C   UNL     1       0.536  -5.473   2.290  0.00  0.00    +0.003 A 
ATOM     13  C   UNL     1      -0.069  -5.749   3.515  0.00  0.00    +0.013 A 
ATOM     14  C   UNL     1       0.187  -6.944   4.155  0.00  0.00    +0.039 A 
ATOM     15  C   UNL     1       1.045  -7.869   3.582  0.00  0.00    +0.126 A 
ATOM     16  C   UNL     1       1.649  -7.598   2.365  0.00  0.00    -0.015 A 
ATOM     17  C   UNL     1       1.394  -6.408   1.715  0.00  0.00    +0.016 A 
ATOM     18  C   UNL     1       2.583  -8.608   1.747  0.00  0.00    +0.047 C 
ATOM     19  F   UNL     1       1.294  -9.038   4.212  0.00  0.00    -0.205 F 
ENDBRANCH   8  12
ENDBRANCH   1   9
BRANCH   1  20
ATOM     20  C   UNL     1      -0.954  -2.608   4.333  0.00  0.00    +0.223 C 
ATOM     21  O   UNL     1      -1.967  -2.795   3.693  0.00  0.00    -0.275 OA
ATOM     22  N   UNL     1      -1.031  -2.352   5.654  0.00  0.00    -0.279 N 
ATOM     23  H   UNL     1      -0.221  -2.203   6.167  0.00  0.00    +0.155 HD
BRANCH  22  24
ATOM     24  C   UNL     1      -2.267  -2.302   6.281  0.00  0.00    +0.084 A 
ATOM     25  C   UNL     1      -2.535  -2.049   7.617  0.00  0.00    +0.068 A 
ATOM     26  C   UNL     1      -3.929  -2.053   8.026  0.00  0.00    -0.023 A 
ATOM     27  C   UNL     1      -4.798  -2.309   7.025  0.00  0.00    -0.004 A 
ATOM     28  S   UNL     1      -3.782  -2.528   5.594  0.00  0.00    -0.077 S 
ATOM     29  C   UNL     1      -6.291  -2.379   7.125  0.00  0.00    +0.046 C 
ATOM     30  C   UNL     1      -6.715  -1.746   8.459  0.00  0.00    -0.009 C 
ATOM     31  C   UNL     1      -5.844  -2.320   9.579  0.00  0.00    +0.008 C 
ATOM     32  C   UNL     1      -4.412  -1.796   9.446  0.00  0.00    +0.037 C 
ATOM     33  C   UNL     1      -8.185  -2.066   8.733  0.00  0.00    +0.008 C 
BRANCH  25  34
ATOM     34  C   UNL     1      -1.458  -1.789   8.577  0.00  0.00    +0.244 C 
ATOM     35  O   UNL     1      -1.075  -0.649   8.767  0.00  0.00    -0.270 OA
ATOM     36  N   UNL     1      -0.892  -2.811   9.248  0.00  0.00    -0.325 N 
ATOM     37  H   UNL     1      -1.198  -3.719   9.096  0.00  0.00    +0.145 HD
ATOM     38  H   UNL     1      -0.179  -2.639   9.883  0.00  0.00    +0.145 HD
ENDBRANCH  25  34
ENDBRANCH  22  24
ENDBRANCH   1  20
TORSDOF 5
