REMARK  Name = ZINC02240365
REMARK  8 active torsions:
REMARK  status: ('A' for Active; 'I' for Inactive)
REMARK    1  A    between atoms: C_1  and  C_2
REMARK    2  A    between atoms: C_2  and  C_3
REMARK    3  A    between atoms: C_3  and  C_32
REMARK    4  A    between atoms: C_10  and  N_29
REMARK    5  A    between atoms: C_12  and  S_14
REMARK    6  A    between atoms: S_14  and  C_15
REMARK    7  A    between atoms: C_15  and  C_16
REMARK    8  A    between atoms: N_18  and  C_19
REMARK                            x       y       z     vdW  Elec       q    Type
REMARK                         _______ _______ _______ _____ _____    ______ ____
ROOT
ATOM      1  C   UNL     1      -0.636   1.796  -0.685  0.00  0.00    +0.071 C 
ATOM      2  C   UNL     1      -0.044   1.243  -1.985  0.00  0.00    +0.071 C 
ATOM      3  C   UNL     1      -0.669   2.004  -3.152  0.00  0.00    -0.020 A 
ATOM      4  C   UNL     1      -1.284   3.188  -2.921  0.00  0.00    +0.021 A 
ATOM      5  S   UNL     1      -1.864   3.730  -4.505  0.00  0.00    -0.071 S 
ATOM      6  C   UNL     1      -1.285   2.376  -5.476  0.00  0.00    +0.115 A 
ATOM      7  C   UNL     1      -0.651   1.534  -4.526  0.00  0.00    +0.051 A 
ATOM      8  C   UNL     1      -0.070   0.330  -5.018  0.00  0.00    +0.129 A 
ATOM      9  N   UNL     1      -0.184   0.118  -6.326  0.00  0.00    -0.207 NA
ATOM     10  C   UNL     1      -0.792   0.950  -7.159  0.00  0.00    +0.191 A 
ATOM     11  N   UNL     1      -1.356   2.093  -6.761  0.00  0.00    -0.214 NA
ATOM     12  C   UNL     1      -1.425   3.867  -1.595  0.00  0.00    +0.203 C 
ATOM     13  O   UNL     1      -0.537   3.222  -0.668  0.00  0.00    -0.368 OA
ATOM     14  C   UNL     1      -2.107   1.387  -0.586  0.00  0.00    +0.042 C 
ENDROOT
BRANCH   8  15
ATOM     15  N   UNL     1       0.575  -0.567  -4.184  0.00  0.00    -0.343 N 
ATOM     16  H   UNL     1       0.714  -0.346  -3.250  0.00  0.00    +0.144 HD
ATOM     17  H   UNL     1       0.887  -1.416  -4.534  0.00  0.00    +0.144 HD
ENDBRANCH   8  15
BRANCH   1  19
ATOM     18  C   UNL     1      -0.543   1.658   1.808  0.00  0.00    +0.007 C 
ATOM     19  C   UNL     1       0.132   1.220   0.507  0.00  0.00    +0.032 C 
ENDBRANCH   1  19
BRANCH  10  20
ATOM     20  S   UNL     1      -0.862   0.528  -8.868  0.00  0.00    -0.077 S 
BRANCH  20  21
ATOM     21  C   UNL     1       0.020  -1.053  -8.837  0.00  0.00    +0.173 C 
BRANCH  21  22
ATOM     22  C   UNL     1       0.086  -1.618 -10.232  0.00  0.00    +0.228 C 
ATOM     23  O   UNL     1      -0.414  -1.012 -11.156  0.00  0.00    -0.275 OA
ATOM     24  N   UNL     1       0.700  -2.798 -10.453  0.00  0.00    -0.284 N 
ATOM     25  H   UNL     1       1.026  -3.322  -9.705  0.00  0.00    +0.155 HD
BRANCH  24  26
ATOM     26  C   UNL     1       0.867  -3.264 -11.758  0.00  0.00    +0.041 A 
ATOM     27  C   UNL     1       1.085  -2.378 -12.791  0.00  0.00    +0.024 A 
ATOM     28  C   UNL     1       1.252  -2.833 -14.095  0.00  0.00    +0.002 A 
ATOM     29  C   UNL     1       1.206  -4.162 -14.388  0.00  0.00    +0.008 A 
ATOM     30  C   UNL     1       0.986  -5.098 -13.364  0.00  0.00    -0.016 A 
ATOM     31  C   UNL     1       0.819  -4.648 -12.031  0.00  0.00    +0.003 A 
ATOM     32  C   UNL     1       0.595  -5.584 -11.010  0.00  0.00    +0.010 A 
ATOM     33  C   UNL     1       0.550  -6.912 -11.310  0.00  0.00    +0.001 A 
ATOM     34  C   UNL     1       0.718  -7.356 -12.620  0.00  0.00    +0.001 A 
ATOM     35  C   UNL     1       0.933  -6.476 -13.636  0.00  0.00    +0.008 A 
ENDBRANCH  24  26
ENDBRANCH  21  22
ENDBRANCH  20  21
ENDBRANCH  10  20
TORSDOF 6
