REMARK  Name = ZINC49540763
REMARK  2 active torsions:
REMARK  status: ('A' for Active; 'I' for Inactive)
REMARK    1  A    between atoms: C_6  and  N_7
REMARK    2  A    between atoms: C_8  and  C_12
REMARK                            x       y       z     vdW  Elec       q    Type
REMARK                         _______ _______ _______ _____ _____    ______ ____
ROOT
ATOM      1  C   UNL     1      -0.017   1.397   0.010  0.00  0.00    +0.025 A 
ATOM      2  C   UNL     1       1.126   2.127   0.003  0.00  0.00    +0.032 A 
ATOM      3  C   UNL     1       2.375   1.472  -0.013  0.00  0.00    +0.093 A 
ATOM      4  C   UNL     1       2.398   0.001  -0.021  0.00  0.00    +0.034 A 
ATOM      5  C   UNL     1       1.190  -0.703  -0.013  0.00  0.00    +0.035 A 
ATOM      6  C   UNL     1       0.002  -0.004   0.002  0.00  0.00    +0.025 A 
ATOM      7  C   UNL     1       3.762  -0.327  -0.035  0.00  0.00    +0.128 A 
ATOM      8  N   UNL     1       4.439   0.858  -0.036  0.00  0.00    -0.271 N 
ATOM      9  N   UNL     1       3.638   1.861  -0.023  0.00  0.00    -0.173 NA
ATOM     10  H   UNL     1       5.406   0.933  -0.044  0.00  0.00    +0.189 HD
ENDROOT
BRANCH   7  11
ATOM     11  C   UNL     1       4.341  -1.668  -0.048  0.00  0.00    +0.268 C 
ATOM     12  O   UNL     1       3.614  -2.645  -0.046  0.00  0.00    -0.268 OA
ATOM     13  N   UNL     1       5.680  -1.824  -0.062  0.00  0.00    -0.259 N 
ATOM     14  C   UNL     1       6.230  -3.099  -0.074  0.00  0.00    +0.165 A 
ATOM     15  N   UNL     1       5.611  -4.254  -0.080  0.00  0.00    -0.229 NA
ATOM     16  C   UNL     1       6.277  -5.417  -0.092  0.00  0.00    +0.054 A 
ATOM     17  C   UNL     1       7.625  -5.299  -0.095  0.00  0.00    +0.014 A 
ATOM     18  S   UNL     1       7.855  -3.537  -0.092  0.00  0.00    -0.057 S 
ATOM     19  C   UNL     1       8.309  -6.632  -0.102  0.00  0.00    +0.045 C 
ATOM     20  C   UNL     1       7.214  -7.636   0.325  0.00  0.00    +0.011 C 
ATOM     21  C   UNL     1       5.927  -6.904  -0.107  0.00  0.00    +0.056 C 
ATOM     22  H   UNL     1       6.259  -1.046  -0.063  0.00  0.00    +0.157 HD
ENDBRANCH   7  11
BRANCH   6  23
ATOM     23  N   UNL     1      -1.204  -0.705   0.010  0.00  0.00    -0.358 N 
ATOM     24  H   UNL     1      -2.045  -0.222   0.021  0.00  0.00    +0.142 HD
ATOM     25  H   UNL     1      -1.201  -1.675   0.005  0.00  0.00    +0.142 HD
ENDBRANCH   6  23
TORSDOF 2
