REMARK  Name = ZINC14468865
REMARK  10 active torsions:
REMARK  status: ('A' for Active; 'I' for Inactive)
REMARK    1  A    between atoms: C_1  and  C_2
REMARK    2  A    between atoms: C_5  and  N_9
REMARK    3  A    between atoms: C_7  and  C_8
REMARK    4  A    between atoms: C_10  and  C_12
REMARK    5  A    between atoms: C_19  and  C_28
REMARK    6  A    between atoms: C_31  and  O_36
REMARK    7  A    between atoms: C_32  and  O_34
REMARK    8  A    between atoms: O_34  and  C_35
REMARK    9  A    between atoms: O_36  and  C_37
REMARK   10  A    between atoms: C_37  and  C_39
REMARK                            x       y       z     vdW  Elec       q    Type
REMARK                         _______ _______ _______ _____ _____    ______ ____
ROOT
ATOM      1  C   UNL     1       4.729   3.897  -0.113  0.00  0.00    +0.058 A 
ATOM      2  C   UNL     1       4.649   5.288  -0.139  0.00  0.00    +0.015 A 
ATOM      3  C   UNL     1       5.779   6.048   0.069  0.00  0.00    +0.001 A 
ATOM      4  C   UNL     1       6.998   5.426   0.287  0.00  0.00    +0.006 A 
ATOM      5  C   UNL     1       7.098   4.052   0.303  0.00  0.00    -0.019 A 
ATOM      6  C   UNL     1       5.965   3.255   0.110  0.00  0.00    +0.044 A 
ATOM      7  N   UNL     1       5.973   1.871   0.137  0.00  0.00    -0.336 N 
ATOM      8  C   UNL     1       7.281   1.216   0.292  0.00  0.00    +0.105 C 
ATOM      9  C   UNL     1       8.080   2.044   1.277  0.00  0.00    +0.029 C 
ATOM     10  C   UNL     1       8.393   3.369   0.512  0.00  0.00    +0.049 C 
ATOM     11  C   UNL     1       9.492   3.965   1.310  0.00  0.00    -0.023 C 
ATOM     12  C   UNL     1      10.168   2.983   1.897  0.00  0.00    -0.030 C 
ATOM     13  C   UNL     1       9.530   1.634   1.556  0.00  0.00    +0.033 C 
ATOM     14  H   UNL     1       5.470   1.491  -0.651  0.00  0.00    +0.147 HD
ENDROOT
BRANCH   8  15
ATOM     15  C   UNL     1       7.096  -0.181   0.828  0.00  0.00    -0.023 A 
ATOM     16  C   UNL     1       6.155  -0.423   1.812  0.00  0.00    +0.009 A 
ATOM     17  C   UNL     1       5.978  -1.703   2.302  0.00  0.00    +0.050 A 
ATOM     18  C   UNL     1       6.751  -2.745   1.815  0.00  0.00    +0.173 A 
ATOM     19  C   UNL     1       7.702  -2.500   0.829  0.00  0.00    +0.163 A 
ATOM     20  C   UNL     1       7.871  -1.215   0.338  0.00  0.00    +0.055 A 
BRANCH  19  21
ATOM     21  O   UNL     1       8.463  -3.519   0.348  0.00  0.00    -0.491 OA
ATOM     22  C   UNL     1       9.418  -3.194  -0.664  0.00  0.00    +0.277 C 
ENDBRANCH  19  21
BRANCH  18  23
ATOM     23  O   UNL     1       6.582  -4.004   2.301  0.00  0.00    -0.422 OA
BRANCH  23  24
ATOM     24  C   UNL     1       7.413  -4.397   3.279  0.00  0.00    +0.309 C 
ATOM     25  O   UNL     1       8.318  -3.677   3.628  0.00  0.00    -0.251 OA
ATOM     26  C   UNL     1       7.218  -5.737   3.941  0.00  0.00    +0.136 C 
ENDBRANCH  23  24
ENDBRANCH  18  23
ENDBRANCH   8  15
BRANCH   1  28
ATOM     27  N   UNL     1       2.330   3.698  -0.537  0.00  0.00    -0.281 N 
ATOM     28  C   UNL     1       3.514   3.090  -0.325  0.00  0.00    +0.250 C 
ATOM     29  O   UNL     1       3.579   1.876  -0.308  0.00  0.00    -0.270 OA
ATOM     30  H   UNL     1       2.289   4.663  -0.624  0.00  0.00    +0.155 HD
BRANCH  27  35
ATOM     31  C   UNL     1      -2.419   0.619  -0.919  0.00  0.00    +0.044 C 
ATOM     32  C   UNL     1      -1.156   1.435  -0.820  0.00  0.00    -0.047 A 
ATOM     33  C   UNL     1      -1.018   2.586  -1.575  0.00  0.00    +0.005 A 
ATOM     34  C   UNL     1       0.136   3.339  -1.482  0.00  0.00    +0.023 A 
ATOM     35  C   UNL     1       1.160   2.937  -0.634  0.00  0.00    +0.034 A 
ATOM     36  C   UNL     1       1.020   1.778   0.118  0.00  0.00    +0.027 A 
ATOM     37  C   UNL     1      -0.137   1.030   0.021  0.00  0.00    -0.046 A 
ATOM     38  C   UNL     1      -0.290  -0.228   0.837  0.00  0.00    +0.044 C 
ENDBRANCH  27  35
ENDBRANCH   1  28
TORSDOF 6
