REMARK  Name = ZINC59212303
REMARK  9 active torsions:
REMARK  status: ('A' for Active; 'I' for Inactive)
REMARK    1  A    between atoms: C_1  and  C_2
REMARK    2  A    between atoms: C_5  and  C_8
REMARK    3  A    between atoms: C_11  and  S_13
REMARK    4  A    between atoms: S_13  and  C_14
REMARK    5  A    between atoms: C_14  and  C_15
REMARK    6  A    between atoms: N_17  and  C_18
REMARK    7  A    between atoms: C_20  and  C_31
REMARK    8  A    between atoms: C_23  and  N_24
REMARK    9  A    between atoms: N_27  and  C_30
REMARK                            x       y       z     vdW  Elec       q    Type
REMARK                         _______ _______ _______ _____ _____    ______ ____
ROOT
ATOM      1  C   UNL     1      -0.435 -10.538   0.906  0.00  0.00    +0.228 C 
ATOM      2  O   UNL     1      -0.969 -10.658   1.988  0.00  0.00    -0.275 OA
ATOM      3  N   UNL     1       0.165 -11.599   0.330  0.00  0.00    -0.283 N 
ATOM      4  H   UNL     1       0.521 -11.525  -0.569  0.00  0.00    +0.155 HD
ENDROOT
BRANCH   3   5
ATOM      5  C   UNL     1       0.275 -12.808   1.030  0.00  0.00    +0.055 A 
ATOM      6  C   UNL     1       0.261 -12.812   2.417  0.00  0.00    +0.037 A 
ATOM      7  C   UNL     1       0.370 -14.006   3.105  0.00  0.00    +0.057 A 
ATOM      8  C   UNL     1       0.492 -15.198   2.416  0.00  0.00    +0.014 A 
ATOM      9  C   UNL     1       0.507 -15.203   1.034  0.00  0.00    +0.025 A 
ATOM     10  C   UNL     1       0.392 -14.011   0.334  0.00  0.00    +0.051 A 
BRANCH  10  11
ATOM     11  N   UNL     1       0.401 -14.014  -1.065  0.00  0.00    -0.332 N 
ATOM     12  C   UNL     1       1.663 -13.904  -1.813  0.00  0.00    +0.086 C 
ATOM     13  C   UNL     1       1.710 -15.027  -2.854  0.00  0.00    -0.060 C 
ATOM     14  N   UNL     1       0.503 -14.971  -3.688  0.00  0.00    +0.380 N 
ATOM     15  C   UNL     1      -0.685 -15.242  -2.869  0.00  0.00    -0.060 C 
ATOM     16  C   UNL     1      -0.850 -14.134  -1.829  0.00  0.00    +0.086 C 
ATOM     17  C   UNL     1       0.600 -15.978  -4.754  0.00  0.00    -0.096 C 
ATOM     18  H   UNL     1       0.423 -14.054  -4.101  0.00  0.00    -0.082 HD
ENDBRANCH  10  11
BRANCH   7  19
ATOM     19  C   UNL     1       0.355 -14.008   4.612  0.00  0.00    +0.417 C 
ATOM     20  F   UNL     1      -0.963 -14.135   5.065  0.00  0.00    -0.166 F 
ATOM     21  F   UNL     1       1.117 -15.082   5.085  0.00  0.00    -0.166 F 
ATOM     22  F   UNL     1       0.896 -12.808   5.085  0.00  0.00    -0.166 F 
ENDBRANCH   7  19
ENDBRANCH   3   5
BRANCH   1  23
ATOM     23  C   UNL     1      -0.443  -9.204   0.205  0.00  0.00    +0.175 C 
BRANCH  23  24
ATOM     24  S   UNL     1      -1.321  -7.989   1.227  0.00  0.00    -0.056 S 
BRANCH  24  28
ATOM     25  C   UNL     1      -1.472  -4.461  -0.379  0.00  0.00    +0.249 A 
ATOM     26  N   UNL     1      -0.808  -5.139  -1.283  0.00  0.00    -0.106 NA
ATOM     27  N   UNL     1      -0.672  -6.356  -0.890  0.00  0.00    -0.101 NA
ATOM     28  C   UNL     1      -1.244  -6.504   0.283  0.00  0.00    +0.278 A 
ATOM     29  O   UNL     1      -1.758  -5.309   0.634  0.00  0.00    -0.411 OA
BRANCH  25  34
ATOM     30  C   UNL     1      -2.890   1.109  -0.659  0.00  0.00    +0.044 C 
ATOM     31  C   UNL     1      -2.519  -0.350  -0.586  0.00  0.00    -0.050 A 
ATOM     32  C   UNL     1      -1.817  -0.935  -1.625  0.00  0.00    +0.004 A 
ATOM     33  C   UNL     1      -1.474  -2.270  -1.564  0.00  0.00    +0.013 A 
ATOM     34  C   UNL     1      -1.836  -3.031  -0.451  0.00  0.00    +0.039 A 
ATOM     35  C   UNL     1      -2.544  -2.434   0.594  0.00  0.00    +0.013 A 
ATOM     36  C   UNL     1      -2.876  -1.097   0.523  0.00  0.00    +0.004 A 
ENDBRANCH  25  34
ENDBRANCH  24  28
ENDBRANCH  23  24
ENDBRANCH   1  23
TORSDOF 7
