REMARK  Name = ZINC12754936
REMARK  7 active torsions:
REMARK  status: ('A' for Active; 'I' for Inactive)
REMARK    1  A    between atoms: C_1  and  C_2
REMARK    2  A    between atoms: C_5  and  N_13
REMARK    3  A    between atoms: C_7  and  S_8
REMARK    4  A    between atoms: S_8  and  N_11
REMARK    5  A    between atoms: N_11  and  C_12
REMARK    6  A    between atoms: C_14  and  C_16
REMARK    7  A    between atoms: N_19  and  C_21
REMARK                            x       y       z     vdW  Elec       q    Type
REMARK                         _______ _______ _______ _____ _____    ______ ____
ROOT
ATOM      1  N   UNL     1      -0.408  -0.038   1.100  0.00  0.00    -0.280 N 
ATOM      2  C   UNL     1      -0.284  -1.352   0.829  0.00  0.00    +0.269 C 
ATOM      3  O   UNL     1       0.810  -1.820   0.579  0.00  0.00    -0.268 OA
ATOM      4  H   UNL     1      -1.268   0.322   1.369  0.00  0.00    +0.155 HD
ENDROOT
BRANCH   2   5
ATOM      5  C   UNL     1      -1.476  -2.224   0.835  0.00  0.00    +0.151 A 
ATOM      6  C   UNL     1      -1.506  -3.603   0.568  0.00  0.00    +0.006 A 
ATOM      7  C   UNL     1      -2.804  -3.977   0.688  0.00  0.00    +0.049 A 
ATOM      8  N   UNL     1      -3.510  -2.870   1.005  0.00  0.00    -0.236 N 
ATOM      9  N   UNL     1      -2.721  -1.855   1.087  0.00  0.00    -0.161 NA
ATOM     10  C   UNL     1      -3.295  -5.387   0.482  0.00  0.00    +0.056 C 
ATOM     11  C   UNL     1      -2.208  -6.170  -0.271  0.00  0.00    +0.006 C 
ATOM     12  C   UNL     1      -0.861  -5.976   0.430  0.00  0.00    +0.005 C 
ATOM     13  C   UNL     1      -0.378  -4.534   0.221  0.00  0.00    +0.039 C 
BRANCH   8  14
ATOM     14  C   UNL     1      -4.895  -2.832   1.215  0.00  0.00    +0.066 A 
ATOM     15  C   UNL     1      -5.649  -1.788   0.694  0.00  0.00    +0.030 A 
ATOM     16  C   UNL     1      -7.014  -1.754   0.898  0.00  0.00    +0.040 A 
ATOM     17  C   UNL     1      -7.631  -2.755   1.630  0.00  0.00    +0.124 A 
ATOM     18  C   UNL     1      -6.880  -3.795   2.155  0.00  0.00    +0.040 A 
ATOM     19  C   UNL     1      -5.516  -3.834   1.949  0.00  0.00    +0.030 A 
ATOM     20  F   UNL     1      -8.966  -2.718   1.833  0.00  0.00    -0.205 F 
ENDBRANCH   8  14
ENDBRANCH   2   5
BRANCH   1  25
ATOM     21  C   UNL     1       4.093   3.387   0.672  0.00  0.00    +0.046 C 
ATOM     22  C   UNL     1       2.897   2.477   0.785  0.00  0.00    -0.024 A 
ATOM     23  C   UNL     1       1.640   2.943   0.446  0.00  0.00    +0.007 A 
ATOM     24  C   UNL     1       0.542   2.112   0.549  0.00  0.00    +0.024 A 
ATOM     25  C   UNL     1       0.701   0.806   0.994  0.00  0.00    +0.036 A 
ATOM     26  C   UNL     1       1.965   0.341   1.334  0.00  0.00    +0.052 A 
ATOM     27  C   UNL     1       3.059   1.177   1.229  0.00  0.00    +0.110 A 
BRANCH  27  28
ATOM     28  S   UNL     1       4.662   0.588   1.661  0.00  0.00    +0.058 S 
ATOM     29  O   UNL     1       4.491  -0.736   2.146  0.00  0.00    -0.153 OA
ATOM     30  O   UNL     1       5.516   0.894   0.567  0.00  0.00    -0.153 OA
BRANCH  28  31
ATOM     31  N   UNL     1       5.189   1.497   2.941  0.00  0.00    -0.193 NA
ATOM     32  C   UNL     1       4.499   1.416   4.231  0.00  0.00    +0.127 C 
ATOM     33  H   UNL     1       5.955   2.083   2.837  0.00  0.00    +0.148 HD
ENDBRANCH  28  31
ENDBRANCH  27  28
ENDBRANCH   1  25
TORSDOF 5
