REMARK  Name = ZINC67134287
REMARK  6 active torsions:
REMARK  status: ('A' for Active; 'I' for Inactive)
REMARK    1  A    between atoms: C_1  and  C_2
REMARK    2  A    between atoms: C_5  and  N_9
REMARK    3  A    between atoms: C_6  and  O_8
REMARK    4  A    between atoms: C_10  and  C_12
REMARK    5  A    between atoms: C_13  and  C_27
REMARK    6  A    between atoms: N_14  and  C_17
REMARK                            x       y       z     vdW  Elec       q    Type
REMARK                         _______ _______ _______ _____ _____    ______ ____
ROOT
ATOM      1  C   UNL     1      -0.133  -6.313  -1.189  0.00  0.00    +0.170 A 
ATOM      2  C   UNL     1      -0.235  -7.090  -2.308  0.00  0.00    +0.074 A 
ATOM      3  N   UNL     1      -0.292  -8.373  -1.888  0.00  0.00    -0.216 N 
ATOM      4  N   UNL     1      -0.222  -8.344  -0.488  0.00  0.00    -0.060 NA
ATOM      5  N   UNL     1      -0.123  -7.116  -0.112  0.00  0.00    -0.124 NA
ATOM      6  C   UNL     1      -0.276  -6.609  -3.736  0.00  0.00    +0.068 C 
ENDROOT
BRANCH   3   7
ATOM      7  C   UNL     1      -0.400  -9.514  -2.697  0.00  0.00    +0.071 A 
ATOM      8  C   UNL     1       0.238  -9.555  -3.929  0.00  0.00    +0.031 A 
ATOM      9  C   UNL     1       0.131 -10.677  -4.726  0.00  0.00    +0.051 A 
ATOM     10  C   UNL     1      -0.614 -11.767  -4.300  0.00  0.00    +0.162 A 
ATOM     11  C   UNL     1      -1.253 -11.729  -3.066  0.00  0.00    +0.164 A 
ATOM     12  C   UNL     1      -1.141 -10.604  -2.264  0.00  0.00    +0.077 A 
ATOM     13  O   UNL     1      -1.983 -12.791  -2.627  0.00  0.00    -0.485 OA
ATOM     14  C   UNL     1      -2.375 -13.754  -3.611  0.00  0.00    +0.270 C 
ATOM     15  C   UNL     1      -1.153 -14.076  -4.481  0.00  0.00    +0.270 C 
ATOM     16  O   UNL     1      -0.712 -12.863  -5.101  0.00  0.00    -0.485 OA
ENDBRANCH   3   7
BRANCH   1  18
ATOM     17  N   UNL     1       0.059  -4.189   0.009  0.00  0.00    -0.277 N 
ATOM     18  C   UNL     1      -0.044  -4.841  -1.167  0.00  0.00    +0.270 C 
ATOM     19  O   UNL     1      -0.062  -4.215  -2.209  0.00  0.00    -0.268 OA
ATOM     20  H   UNL     1       0.156  -4.690   0.834  0.00  0.00    +0.155 HD
BRANCH  17  25
ATOM     21  C   UNL     1      -0.079   1.486   0.127  0.00  0.00    +0.044 C 
ATOM     22  C   UNL     1      -0.041  -0.021   0.098  0.00  0.00    -0.047 A 
ATOM     23  C   UNL     1      -0.634  -0.705  -0.947  0.00  0.00    +0.005 A 
ATOM     24  C   UNL     1      -0.602  -2.086  -0.980  0.00  0.00    +0.027 A 
ATOM     25  C   UNL     1       0.026  -2.789   0.039  0.00  0.00    +0.076 A 
ATOM     26  C   UNL     1       0.623  -2.099   1.091  0.00  0.00    +0.138 A 
ATOM     27  C   UNL     1       0.591  -0.714   1.113  0.00  0.00    +0.050 A 
BRANCH  26  28
ATOM     28  O   UNL     1       1.239  -2.783   2.092  0.00  0.00    -0.505 OA
ATOM     29  H   UNL     1       2.178  -2.952   1.932  0.00  0.00    +0.292 HD
ENDBRANCH  26  28
ENDBRANCH  17  25
ENDBRANCH   1  18
TORSDOF 4
