REMARK  Name = ZINC13202573
REMARK  10 active torsions:
REMARK  status: ('A' for Active; 'I' for Inactive)
REMARK    1  A    between atoms: C_1  and  C_2
REMARK    2  A    between atoms: C_2  and  N_3
REMARK    3  A    between atoms: C_9  and  C_33
REMARK    4  A    between atoms: C_13  and  S_14
REMARK    5  A    between atoms: S_14  and  C_15
REMARK    6  A    between atoms: C_15  and  C_16
REMARK    7  A    between atoms: N_18  and  C_19
REMARK    8  A    between atoms: C_19  and  C_21
REMARK    9  A    between atoms: C_19  and  C_28
REMARK   10  A    between atoms: C_24  and  C_27
REMARK                            x       y       z     vdW  Elec       q    Type
REMARK                         _______ _______ _______ _____ _____    ______ ____
ROOT
ATOM      1  C   UNL     1      -2.502   1.382  -2.885  0.00  0.00    +0.173 C 
ENDROOT
BRANCH   1   2
ATOM      2  C   UNL     1      -1.773   0.883  -1.664  0.00  0.00    +0.224 C 
ATOM      3  O   UNL     1      -2.134  -0.139  -1.118  0.00  0.00    -0.275 OA
ATOM      4  N   UNL     1      -0.721   1.571  -1.179  0.00  0.00    -0.303 N 
ATOM      5  H   UNL     1      -0.433   2.388  -1.615  0.00  0.00    +0.150 HD
BRANCH   4   6
ATOM      6  C   UNL     1      -0.013   1.086   0.008  0.00  0.00    +0.140 C 
BRANCH   6   7
ATOM      7  C   UNL     1       1.401   1.607  -0.003  0.00  0.00    -0.022 A 
ATOM      8  C   UNL     1       1.657   2.902  -0.413  0.00  0.00    +0.006 A 
ATOM      9  C   UNL     1       2.953   3.382  -0.418  0.00  0.00    +0.004 A 
ATOM     10  C   UNL     1       3.995   2.564  -0.023  0.00  0.00    -0.050 A 
ATOM     11  C   UNL     1       3.740   1.267   0.382  0.00  0.00    +0.004 A 
ATOM     12  C   UNL     1       2.443   0.789   0.392  0.00  0.00    +0.006 A 
ATOM     13  C   UNL     1       5.409   3.085  -0.035  0.00  0.00    +0.044 C 
ENDBRANCH   6   7
BRANCH   6  14
ATOM     14  C   UNL     1      -0.718   1.572   1.248  0.00  0.00    +0.014 A 
ATOM     15  C   UNL     1      -0.954   0.914   2.409  0.00  0.00    +0.013 A 
ATOM     16  C   UNL     1      -1.627   1.566   3.425  0.00  0.00    +0.008 A 
ATOM     17  C   UNL     1      -2.033   2.845   3.229  0.00  0.00    +0.045 A 
ATOM     18  S   UNL     1      -1.454   3.166   1.571  0.00  0.00    -0.099 S 
ENDBRANCH   6  14
ENDBRANCH   4   6
ENDBRANCH   1   2
BRANCH   1  19
ATOM     19  S   UNL     1      -3.856   0.249  -3.285  0.00  0.00    -0.078 S 
BRANCH  19  30
ATOM     20  N   UNL     1      -5.589   0.485  -5.335  0.00  0.00    -0.288 N 
ATOM     21  C   UNL     1      -6.133   1.069  -6.428  0.00  0.00    +0.262 A 
ATOM     22  O   UNL     1      -7.092   0.578  -6.994  0.00  0.00    -0.267 OA
ATOM     23  C   UNL     1      -5.519   2.316  -6.911  0.00  0.00    +0.065 A 
ATOM     24  C   UNL     1      -6.006   2.985  -8.033  0.00  0.00    +0.016 A 
ATOM     25  C   UNL     1      -5.408   4.140  -8.450  0.00  0.00    +0.016 A 
ATOM     26  C   UNL     1      -4.306   4.661  -7.760  0.00  0.00    +0.065 A 
ATOM     27  C   UNL     1      -3.803   4.010  -6.640  0.00  0.00    +0.043 A 
ATOM     28  C   UNL     1      -4.407   2.828  -6.204  0.00  0.00    +0.080 A 
ATOM     29  N   UNL     1      -3.952   2.160  -5.118  0.00  0.00    -0.223 NA
ATOM     30  C   UNL     1      -4.516   1.051  -4.708  0.00  0.00    +0.173 A 
BRANCH  26  31
ATOM     31  C   UNL     1      -3.671   5.913  -8.227  0.00  0.00    +0.387 C 
ATOM     32  O   UNL     1      -2.716   6.369  -7.633  0.00  0.00    -0.241 OA
ATOM     33  O   UNL     1      -4.154   6.548  -9.313  0.00  0.00    -0.241 OA
ENDBRANCH  26  31
BRANCH  20  35
ATOM     34  C   UNL     1      -7.251  -0.436  -3.795  0.00  0.00    +0.027 C 
ATOM     35  C   UNL     1      -6.159  -0.761  -4.817  0.00  0.00    +0.124 C 
ENDBRANCH  20  35
ENDBRANCH  19  30
ENDBRANCH   1  19
TORSDOF 8
