REMARK  Name = ZINC35692994
REMARK  9 active torsions:
REMARK  status: ('A' for Active; 'I' for Inactive)
REMARK    1  A    between atoms: C_1  and  C_2
REMARK    2  A    between atoms: C_2  and  O_3
REMARK    3  A    between atoms: O_3  and  C_4
REMARK    4  A    between atoms: C_4  and  C_6
REMARK    5  A    between atoms: C_7  and  C_30
REMARK    6  A    between atoms: C_11  and  C_13
REMARK    7  A    between atoms: C_20  and  C_23
REMARK    8  A    between atoms: C_24  and  N_26
REMARK    9  A    between atoms: N_26  and  C_27
REMARK                            x       y       z     vdW  Elec       q    Type
REMARK                         _______ _______ _______ _____ _____    ______ ____
ROOT
ATOM      1  C   UNL     1      -2.986  -2.106  -0.126  0.00  0.00    +0.092 C 
ATOM      2  C   UNL     1      -3.338  -3.442  -0.164  0.00  0.00    +0.158 C 
ATOM      3  N   UNL     1      -4.603  -3.806  -0.029  0.00  0.00    -0.220 NA
ATOM      4  C   UNL     1      -5.609  -2.975   0.149  0.00  0.00    +0.166 C 
ATOM      5  N   UNL     1      -5.474  -1.617   0.217  0.00  0.00    -0.267 N 
ATOM      6  C   UNL     1      -4.089  -1.092   0.082  0.00  0.00    +0.151 C 
ATOM      7  C   UNL     1      -6.626  -0.880   0.407  0.00  0.00    +0.048 C 
ATOM      8  C   UNL     1      -7.792  -1.556   0.511  0.00  0.00    +0.072 C 
ATOM      9  S   UNL     1      -7.255  -3.246   0.338  0.00  0.00    -0.060 S 
ENDROOT
BRANCH   6  10
ATOM     10  C   UNL     1      -4.070  -0.141  -1.087  0.00  0.00    -0.004 A 
ATOM     11  C   UNL     1      -4.848  -0.398  -2.200  0.00  0.00    +0.007 A 
ATOM     12  C   UNL     1      -4.830   0.475  -3.272  0.00  0.00    +0.000 A 
ATOM     13  C   UNL     1      -4.035   1.605  -3.232  0.00  0.00    +0.001 A 
ATOM     14  C   UNL     1      -3.256   1.863  -2.119  0.00  0.00    +0.020 A 
ATOM     15  C   UNL     1      -3.278   0.993  -1.043  0.00  0.00    +0.046 A 
ATOM     16 CL   UNL     1      -2.306   1.320   0.357  0.00  0.00    -0.083 Cl
ENDBRANCH   6  10
BRANCH   2  17
ATOM     17  C   UNL     1      -2.275  -4.491  -0.363  0.00  0.00    +0.435 C 
ATOM     18  F   UNL     1      -1.013  -3.887  -0.332  0.00  0.00    -0.164 F 
ATOM     19  F   UNL     1      -2.361  -5.442   0.659  0.00  0.00    -0.164 F 
ATOM     20  F   UNL     1      -2.462  -5.117  -1.600  0.00  0.00    -0.164 F 
ENDBRANCH   2  17
BRANCH   7  21
ATOM     21  C   UNL     1      -6.587   0.587   0.495  0.00  0.00    +0.091 C 
ATOM     22  C   UNL     1      -7.697   1.272   0.828  0.00  0.00    +0.239 C 
ATOM     23  O   UNL     1      -8.812   0.607   1.218  0.00  0.00    -0.271 OA
BRANCH  22  24
ATOM     24  N   UNL     1      -7.701   2.655   0.771  0.00  0.00    -0.309 N 
ATOM     25  H   UNL     1      -6.929   3.128   0.422  0.00  0.00    +0.149 HD
BRANCH  24  26
ATOM     26  C   UNL     1      -8.869   3.405   1.238  0.00  0.00    +0.073 C 
ATOM     27  C   UNL     1      -9.416   4.503   0.325  0.00  0.00    +0.024 C 
ATOM     28  C   UNL     1      -8.665   4.876   1.604  0.00  0.00    +0.024 C 
ENDBRANCH  24  26
ENDBRANCH  22  24
ENDBRANCH   7  21
BRANCH   1  29
ATOM     29  C   UNL     1      -1.652  -1.706  -0.268  0.00  0.00    +0.339 C 
ATOM     30  O   UNL     1      -1.001  -1.396   0.715  0.00  0.00    -0.245 OA
BRANCH  29  31
ATOM     31  O   UNL     1      -1.086  -1.662  -1.494  0.00  0.00    -0.462 OA
BRANCH  31  33
ATOM     32  C   UNL     1       0.738  -1.226  -3.018  0.00  0.00    +0.048 C 
ATOM     33  C   UNL     1       0.307  -1.349  -1.555  0.00  0.00    +0.229 C 
ENDBRANCH  31  33
ENDBRANCH  29  31
ENDBRANCH   1  29
TORSDOF 8
