REMARK  Name = ZINC09670244
REMARK  6 active torsions:
REMARK  status: ('A' for Active; 'I' for Inactive)
REMARK    1  A    between atoms: C_1  and  C_2
REMARK    2  A    between atoms: C_5  and  C_16
REMARK    3  A    between atoms: C_7  and  N_8
REMARK    4  A    between atoms: C_9  and  C_11
REMARK    5  A    between atoms: N_18  and  C_19
REMARK    6  A    between atoms: C_20  and  C_28
REMARK                            x       y       z     vdW  Elec       q    Type
REMARK                         _______ _______ _______ _____ _____    ______ ____
ROOT
ATOM      1  C   UNL     1       0.095  -4.263  -0.029  0.00  0.00    +0.249 C 
ATOM      2  O   UNL     1       0.090  -4.866  -1.084  0.00  0.00    -0.270 OA
ATOM      3  N   UNL     1       0.125  -4.942   1.135  0.00  0.00    -0.275 N 
ATOM      4  H   UNL     1       0.128  -4.461   1.978  0.00  0.00    +0.156 HD
ENDROOT
BRANCH   3   5
ATOM      5  C   UNL     1       0.151  -6.327   1.129  0.00  0.00    +0.085 A 
ATOM      6  C   UNL     1       0.190  -7.195   2.212  0.00  0.00    +0.068 A 
ATOM      7  C   UNL     1       0.207  -8.620   1.930  0.00  0.00    -0.023 A 
ATOM      8  C   UNL     1       0.194  -8.948   0.620  0.00  0.00    -0.004 A 
ATOM      9  S   UNL     1       0.152  -7.397  -0.234  0.00  0.00    -0.077 S 
ATOM     10  C   UNL     1       0.213 -10.325   0.033  0.00  0.00    +0.043 C 
ATOM     11  C   UNL     1       0.627 -11.314   1.133  0.00  0.00    +0.005 C 
ATOM     12  C   UNL     1      -0.198 -11.025   2.391  0.00  0.00    +0.005 C 
ATOM     13  C   UNL     1       0.242  -9.696   3.008  0.00  0.00    +0.037 C 
BRANCH   6  14
ATOM     14  C   UNL     1       0.208  -6.691   3.588  0.00  0.00    +0.244 C 
ATOM     15  O   UNL     1      -0.838  -6.503   4.181  0.00  0.00    -0.270 OA
ATOM     16  N   UNL     1       1.383  -6.437   4.198  0.00  0.00    -0.325 N 
ATOM     17  H   UNL     1       2.217  -6.587   3.725  0.00  0.00    +0.145 HD
ATOM     18  H   UNL     1       1.395  -6.104   5.109  0.00  0.00    +0.145 HD
ENDBRANCH   6  14
ENDBRANCH   3   5
BRANCH   1  23
ATOM     19  C   UNL     1      -0.014   1.495   0.015  0.00  0.00    +0.045 C 
ATOM     20  C   UNL     1       0.014  -0.012   0.002  0.00  0.00    -0.029 A 
ATOM     21  C   UNL     1       0.045  -0.711   1.194  0.00  0.00    +0.006 A 
ATOM     22  C   UNL     1       0.071  -2.090   1.190  0.00  0.00    +0.013 A 
ATOM     23  C   UNL     1       0.066  -2.785  -0.021  0.00  0.00    +0.039 A 
ATOM     24  C   UNL     1       0.035  -2.080  -1.224  0.00  0.00    +0.036 A 
ATOM     25  C   UNL     1       0.004  -0.694  -1.209  0.00  0.00    +0.037 A 
BRANCH  25  26
ATOM     26  N   UNL     1      -0.033   0.018  -2.412  0.00  0.00    -0.279 N 
ATOM     27  C   UNL     1      -0.530  -0.561  -3.523  0.00  0.00    +0.284 C 
ATOM     28  O   UNL     1      -1.038  -1.665  -3.458  0.00  0.00    -0.266 OA
ATOM     29  H   UNL     1       0.299   0.929  -2.448  0.00  0.00    +0.155 HD
BRANCH  27  30
ATOM     30  C   UNL     1      -0.458   0.138  -4.810  0.00  0.00    +0.189 A 
ATOM     31  C   UNL     1      -0.921  -0.332  -6.006  0.00  0.00    +0.054 A 
ATOM     32  C   UNL     1      -0.646   0.658  -6.962  0.00  0.00    +0.042 A 
ATOM     33  C   UNL     1      -0.036   1.676  -6.316  0.00  0.00    +0.196 A 
ATOM     34  O   UNL     1       0.071   1.361  -5.019  0.00  0.00    -0.458 OA
ENDBRANCH  27  30
ENDBRANCH  25  26
ENDBRANCH   1  23
TORSDOF 5
