REMARK  Name = ZINC58835069
REMARK  11 active torsions:
REMARK  status: ('A' for Active; 'I' for Inactive)
REMARK    1  A    between atoms: C_1  and  C_2
REMARK    2  A    between atoms: C_9  and  C_36
REMARK    3  A    between atoms: C_10  and  S_12
REMARK    4  A    between atoms: S_12  and  C_13
REMARK    5  A    between atoms: C_13  and  C_14
REMARK    6  A    between atoms: C_17  and  C_20
REMARK    7  A    between atoms: N_18  and  N_19
REMARK    8  A    between atoms: C_20  and  S_21
REMARK    9  A    between atoms: S_21  and  C_22
REMARK   10  A    between atoms: C_23  and  C_34
REMARK   11  A    between atoms: C_30  and  C_33
REMARK                            x       y       z     vdW  Elec       q    Type
REMARK                         _______ _______ _______ _____ _____    ______ ____
ROOT
ATOM      1  C   UNL     1       1.702  -8.252  -1.170  0.00  0.00    +0.160 A 
ATOM      2  N   UNL     1       2.836  -8.820  -1.478  0.00  0.00    -0.132 NA
ATOM      3  N   UNL     1       2.660 -10.086  -1.622  0.00  0.00    -0.132 NA
ATOM      4  C   UNL     1       1.406 -10.382  -1.413  0.00  0.00    +0.160 A 
ATOM      5  N   UNL     1       0.764  -9.227  -1.115  0.00  0.00    -0.235 N 
ENDROOT
BRANCH   5   6
ATOM      6  N   UNL     1      -0.562  -9.076  -0.822  0.00  0.00    -0.295 N 
ATOM      7  H   UNL     1      -1.100  -8.907  -1.658  0.00  0.00    +0.163 HD
ATOM      8  H   UNL     1      -0.915  -9.877  -0.320  0.00  0.00    +0.163 HD
ENDBRANCH   5   6
BRANCH   1   9
ATOM      9  C   UNL     1       1.480  -6.783  -0.917  0.00  0.00    +0.153 C 
BRANCH   9  10
ATOM     10  S   UNL     1       1.732  -6.428   0.844  0.00  0.00    -0.097 S 
BRANCH  10  19
ATOM     11  C   UNL     1      -0.019   1.526   0.010  0.00  0.00    +0.008 C 
ATOM     12  C   UNL     1       0.002  -0.004   0.002  0.00  0.00    -0.009 C 
ATOM     13  C   UNL     1       0.731  -0.504  -1.251  0.00  0.00    +0.010 C 
ATOM     14  C   UNL     1       0.527  -2.014  -1.357  0.00  0.00    +0.056 C 
ATOM     15  C   UNL     1       0.890  -2.691  -0.060  0.00  0.00    +0.046 A 
ATOM     16  C   UNL     1       0.985  -2.000   1.129  0.00  0.00    -0.025 A 
ATOM     17  C   UNL     1       1.315  -2.683   2.293  0.00  0.00    +0.027 A 
ATOM     18  C   UNL     1       1.548  -4.059   2.226  0.00  0.00    +0.084 A 
ATOM     19  C   UNL     1       1.440  -4.695   0.976  0.00  0.00    +0.115 A 
ATOM     20  N   UNL     1       1.120  -3.998  -0.099  0.00  0.00    -0.244 NA
ATOM     21  C   UNL     1       0.751  -0.515   1.231  0.00  0.00    +0.040 C 
BRANCH  18  22
ATOM     22  C   UNL     1       1.890  -4.803   3.400  0.00  0.00    +0.102 C 
ATOM     23  N   UNL     1       2.162  -5.393   4.332  0.00  0.00    -0.191 NA
ENDBRANCH  18  22
ENDBRANCH  10  19
ENDBRANCH   9  10
ENDBRANCH   1   9
BRANCH   4  24
ATOM     24  C   UNL     1       0.788 -11.755  -1.485  0.00  0.00    +0.153 C 
BRANCH  24  25
ATOM     25  S   UNL     1       0.872 -12.542   0.147  0.00  0.00    -0.097 S 
BRANCH  25  26
ATOM     26  C   UNL     1       0.121 -14.116  -0.099  0.00  0.00    +0.115 A 
ATOM     27  C   UNL     1       0.004 -15.014   0.977  0.00  0.00    +0.084 A 
ATOM     28  C   UNL     1      -0.602 -16.252   0.748  0.00  0.00    +0.027 A 
ATOM     29  C   UNL     1      -1.061 -16.548  -0.530  0.00  0.00    -0.025 A 
ATOM     30  C   UNL     1      -0.907 -15.621  -1.538  0.00  0.00    +0.046 A 
ATOM     31  N   UNL     1      -0.336 -14.448  -1.293  0.00  0.00    -0.244 NA
ATOM     32  C   UNL     1      -1.365 -15.885  -2.951  0.00  0.00    +0.056 C 
ATOM     33  C   UNL     1      -2.367 -17.037  -2.984  0.00  0.00    +0.010 C 
ATOM     34  C   UNL     1      -1.762 -18.229  -2.233  0.00  0.00    -0.009 C 
ATOM     35  C   UNL     1      -1.716 -17.886  -0.745  0.00  0.00    +0.040 C 
ATOM     36  C   UNL     1      -2.629 -19.470  -2.451  0.00  0.00    +0.008 C 
BRANCH  27  37
ATOM     37  C   UNL     1       0.495 -14.668   2.277  0.00  0.00    +0.102 C 
ATOM     38  N   UNL     1       0.885 -14.394   3.308  0.00  0.00    -0.191 NA
ENDBRANCH  27  37
ENDBRANCH  25  26
ENDBRANCH  24  25
ENDBRANCH   4  24
TORSDOF 9
