REMARK  Name = ZINC13205394
REMARK  8 active torsions:
REMARK  status: ('A' for Active; 'I' for Inactive)
REMARK    1  A    between atoms: C_1  and  C_2
REMARK    2  A    between atoms: C_6  and  C_8
REMARK    3  A    between atoms: C_11  and  S_16
REMARK    4  A    between atoms: N_12  and  C_13
REMARK    5  A    between atoms: C_13  and  C_14
REMARK    6  A    between atoms: S_16  and  C_17
REMARK    7  A    between atoms: C_17  and  C_18
REMARK    8  A    between atoms: N_20  and  C_21
REMARK                            x       y       z     vdW  Elec       q    Type
REMARK                         _______ _______ _______ _____ _____    ______ ____
ROOT
ATOM      1  S   UNL     1      -1.753   6.231  -0.297  0.00  0.00    -0.077 S 
ENDROOT
BRANCH   1   5
ATOM      2  C   UNL     1      -1.754  10.129  -0.554  0.00  0.00    +0.165 A 
ATOM      3  N   UNL     1      -0.474   9.845  -0.492  0.00  0.00    -0.128 NA
ATOM      4  N   UNL     1      -0.311   8.574  -0.403  0.00  0.00    -0.122 NA
ATOM      5  C   UNL     1      -1.478   7.968  -0.402  0.00  0.00    +0.193 A 
ATOM      6  N   UNL     1      -2.436   8.935  -0.503  0.00  0.00    -0.291 N 
BRANCH   2  12
ATOM      7  C   UNL     1      -1.315  14.964  -1.709  0.00  0.00    +0.044 C 
ATOM      8  C   UNL     1      -2.144  13.806  -1.217  0.00  0.00    -0.050 A 
ATOM      9  C   UNL     1      -3.467  14.004  -0.864  0.00  0.00    +0.003 A 
ATOM     10  C   UNL     1      -4.234  12.946  -0.411  0.00  0.00    +0.001 A 
ATOM     11  C   UNL     1      -3.684  11.685  -0.308  0.00  0.00    +0.011 A 
ATOM     12  C   UNL     1      -2.350  11.478  -0.662  0.00  0.00    +0.020 A 
ATOM     13  C   UNL     1      -1.580  12.551  -1.114  0.00  0.00    +0.015 A 
ENDBRANCH   2  12
BRANCH   6  14
ATOM     14  C   UNL     1      -3.887   8.742  -0.547  0.00  0.00    +0.250 C 
BRANCH  14  15
ATOM     15  C   UNL     1      -4.425   8.655   0.858  0.00  0.00    +0.375 C 
ATOM     16  O   UNL     1      -3.673   8.744   1.799  0.00  0.00    -0.244 OA
ATOM     17  O   UNL     1      -5.739   8.477   1.064  0.00  0.00    -0.244 OA
ENDBRANCH  14  15
ENDBRANCH   6  14
ENDBRANCH   1   5
BRANCH   1  18
ATOM     18  C   UNL     1      -0.043   5.646  -0.200  0.00  0.00    +0.173 C 
BRANCH  18  19
ATOM     19  C   UNL     1      -0.030   4.143  -0.101  0.00  0.00    +0.227 C 
ATOM     20  O   UNL     1      -1.075   3.527  -0.096  0.00  0.00    -0.275 OA
ATOM     21  N   UNL     1       1.141   3.482  -0.018  0.00  0.00    -0.285 N 
ATOM     22  H   UNL     1       1.972   3.977   0.063  0.00  0.00    +0.155 HD
BRANCH  21  23
ATOM     23  C   UNL     1       1.160   2.082  -0.049  0.00  0.00    +0.037 A 
ATOM     24  C   UNL     1       0.137   1.388  -0.680  0.00  0.00    +0.027 A 
ATOM     25  C   UNL     1       0.154   0.006  -0.712  0.00  0.00    +0.051 A 
ATOM     26  C   UNL     1       1.192  -0.690  -0.114  0.00  0.00    +0.173 A 
ATOM     27  C   UNL     1       2.220   0.004   0.520  0.00  0.00    +0.174 A 
ATOM     28  C   UNL     1       2.202   1.388   0.551  0.00  0.00    +0.073 A 
ATOM     29  O   UNL     1       3.111  -0.900   1.022  0.00  0.00    -0.395 OA
ATOM     30  C   UNL     1       2.833  -2.136   0.338  0.00  0.00    +0.589 C 
ATOM     31  O   UNL     1       1.440  -2.029  -0.009  0.00  0.00    -0.395 OA
ATOM     32  F   UNL     1       3.619  -2.247  -0.814  0.00  0.00    -0.125 F 
ATOM     33  F   UNL     1       3.050  -3.227   1.186  0.00  0.00    -0.125 F 
ENDBRANCH  21  23
ENDBRANCH  18  19
ENDBRANCH   1  18
TORSDOF 7
