REMARK  Name = ZINC32971178
REMARK  9 active torsions:
REMARK  status: ('A' for Active; 'I' for Inactive)
REMARK    1  A    between atoms: C_1  and  C_2
REMARK    2  A    between atoms: C_6  and  N_8
REMARK    3  A    between atoms: N_11  and  C_16
REMARK    4  A    between atoms: C_13  and  C_15
REMARK    5  A    between atoms: C_19  and  C_34
REMARK    6  A    between atoms: C_21  and  N_22
REMARK    7  A    between atoms: N_22  and  S_23
REMARK    8  A    between atoms: S_23  and  C_26
REMARK    9  A    between atoms: C_31  and  C_32
REMARK                            x       y       z     vdW  Elec       q    Type
REMARK                         _______ _______ _______ _____ _____    ______ ____
ROOT
ATOM      1  C   UNL     1      -2.529   1.289   2.236  0.00  0.00    +0.052 A 
ATOM      2  C   UNL     1      -3.670   0.529   2.466  0.00  0.00    +0.026 A 
ATOM      3  C   UNL     1      -4.396   0.704   3.624  0.00  0.00    +0.017 A 
ATOM      4  C   UNL     1      -3.986   1.647   4.571  0.00  0.00    +0.065 A 
ATOM      5  C   UNL     1      -2.839   2.413   4.341  0.00  0.00    +0.041 A 
ATOM      6  C   UNL     1      -2.111   2.230   3.181  0.00  0.00    +0.070 A 
ENDROOT
BRANCH   1  10
ATOM      7  N   UNL     1      -0.404  -0.409  -0.901  0.00  0.00    -0.324 N 
ATOM      8  C   UNL     1       0.327   0.439   0.051  0.00  0.00    +0.124 C 
ATOM      9  C   UNL     1      -0.471   0.547   1.352  0.00  0.00    +0.124 C 
ATOM     10  N   UNL     1      -1.798   1.108   1.064  0.00  0.00    -0.325 N 
ATOM     11  C   UNL     1      -2.531   0.260   0.112  0.00  0.00    +0.127 C 
ATOM     12  C   UNL     1      -1.732   0.152  -1.189  0.00  0.00    +0.088 C 
ATOM     13  C   UNL     1      -2.471  -0.763  -2.167  0.00  0.00    +0.029 C 
BRANCH   7  19
ATOM     14  C   UNL     1       1.839   1.517  -4.826  0.00  0.00    +0.044 C 
ATOM     15  C   UNL     1       1.429   0.326  -3.999  0.00  0.00    -0.049 A 
ATOM     16  C   UNL     1       1.780  -0.949  -4.404  0.00  0.00    +0.003 A 
ATOM     17  C   UNL     1       1.406  -2.045  -3.648  0.00  0.00    +0.002 A 
ATOM     18  C   UNL     1       0.682  -1.870  -2.486  0.00  0.00    +0.023 A 
ATOM     19  C   UNL     1       0.328  -0.590  -2.076  0.00  0.00    +0.030 A 
ATOM     20  C   UNL     1       0.700   0.508  -2.841  0.00  0.00    +0.026 A 
ENDBRANCH   7  19
ENDBRANCH   1  10
BRANCH   4  21
ATOM     21  C   UNL     1      -4.763   1.835   5.809  0.00  0.00    +0.387 C 
ATOM     22  O   UNL     1      -4.406   2.655   6.632  0.00  0.00    -0.241 OA
ATOM     23  O   UNL     1      -5.869   1.096   6.030  0.00  0.00    -0.241 OA
ENDBRANCH   4  21
BRANCH   6  24
ATOM     24  N   UNL     1      -0.959   2.991   2.949  0.00  0.00    -0.214 N 
ATOM     25  H   UNL     1      -0.685   3.276   1.923  0.00  0.00    +0.174 HD
BRANCH  24  26
ATOM     26  S   UNL     1      -0.008   3.461   4.221  0.00  0.00    +0.073 S 
ATOM     27  O   UNL     1       1.122   4.118   3.662  0.00  0.00    -0.150 OA
ATOM     28  O   UNL     1      -0.868   4.091   5.160  0.00  0.00    -0.150 OA
BRANCH  26  29
ATOM     29  C   UNL     1       0.593   1.995   4.993  0.00  0.00    +0.114 A 
ATOM     30  C   UNL     1       0.033   0.771   4.679  0.00  0.00    +0.067 A 
ATOM     31  C   UNL     1       0.505  -0.381   5.286  0.00  0.00    +0.125 A 
ATOM     32  C   UNL     1       1.537  -0.305   6.205  0.00  0.00    +0.039 A 
ATOM     33  C   UNL     1       2.095   0.920   6.517  0.00  0.00    +0.008 A 
ATOM     34  C   UNL     1       1.627   2.069   5.907  0.00  0.00    -0.024 A 
ATOM     35  C   UNL     1       2.240   3.404   6.243  0.00  0.00    +0.046 C 
ATOM     36  F   UNL     1      -0.041  -1.578   4.980  0.00  0.00    -0.205 F 
ENDBRANCH  26  29
ENDBRANCH  24  26
ENDBRANCH   6  24
TORSDOF 6
