REMARK  Name = ZINC39934001
REMARK  11 active torsions:
REMARK  status: ('A' for Active; 'I' for Inactive)
REMARK    1  A    between atoms: C_1  and  C_2
REMARK    2  A    between atoms: C_2  and  C_3
REMARK    3  A    between atoms: C_3  and  C_4
REMARK    4  A    between atoms: C_6  and  C_18
REMARK    5  A    between atoms: C_8  and  C_16
REMARK    6  A    between atoms: C_9  and  N_15
REMARK    7  A    between atoms: C_21  and  O_38
REMARK    8  A    between atoms: C_22  and  C_24
REMARK    9  A    between atoms: C_24  and  N_25
REMARK   10  A    between atoms: N_28  and  C_31
REMARK   11  A    between atoms: O_38  and  C_39
REMARK                            x       y       z     vdW  Elec       q    Type
REMARK                         _______ _______ _______ _____ _____    ______ ____
ROOT
ATOM      1  C   UNL     1      -2.896  -2.629   3.067  0.00  0.00    -0.034 A 
ATOM      2  C   UNL     1      -3.599  -3.818   2.988  0.00  0.00    +0.008 A 
ATOM      3  C   UNL     1      -4.875  -3.903   3.511  0.00  0.00    +0.046 A 
ATOM      4  C   UNL     1      -5.450  -2.796   4.118  0.00  0.00    +0.121 A 
ATOM      5  C   UNL     1      -4.743  -1.605   4.196  0.00  0.00    -0.022 A 
ATOM      6  C   UNL     1      -3.465  -1.526   3.676  0.00  0.00    +0.010 A 
ENDROOT
BRANCH   1   9
ATOM      7  C   UNL     1      -1.459  -2.076  -0.052  0.00  0.00    +0.069 C 
ATOM      8  C   UNL     1      -1.530  -2.829   1.019  0.00  0.00    +0.030 C 
ATOM      9  C   UNL     1      -1.505  -2.539   2.495  0.00  0.00    +0.098 C 
ATOM     10  C   UNL     1      -0.613  -3.605   3.104  0.00  0.00    +0.097 C 
ATOM     11  C   UNL     1      -0.173  -4.657   2.384  0.00  0.00    +0.195 C 
ATOM     12  O   UNL     1      -0.415  -4.899   1.083  0.00  0.00    -0.448 OA
ATOM     13  C   UNL     1      -1.554  -4.265   0.495  0.00  0.00    +0.343 C 
ATOM     14  N   UNL     1      -1.392  -4.065  -0.949  0.00  0.00    -0.138 NA
ATOM     15  N   UNL     1      -1.378  -2.847  -1.166  0.00  0.00    -0.155 NA
BRANCH  11  16
ATOM     16  N   UNL     1       0.603  -5.575   3.047  0.00  0.00    -0.329 N 
ATOM     17  H   UNL     1       0.808  -5.448   3.986  0.00  0.00    +0.145 HD
ATOM     18  H   UNL     1       0.946  -6.351   2.576  0.00  0.00    +0.145 HD
ENDBRANCH  11  16
BRANCH  10  19
ATOM     19  C   UNL     1      -0.229  -3.490   4.479  0.00  0.00    +0.101 C 
ATOM     20  N   UNL     1       0.075  -3.399   5.570  0.00  0.00    -0.191 NA
ENDBRANCH  10  19
BRANCH   7  21
ATOM     21  C   UNL     1      -1.472  -0.569  -0.046  0.00  0.00    +0.057 C 
BRANCH  21  23
ATOM     22  C   UNL     1      -0.048   1.484  -0.068  0.00  0.00    +0.004 C 
ATOM     23  C   UNL     1      -0.035  -0.046  -0.073  0.00  0.00    +0.003 C 
ENDBRANCH  21  23
ENDBRANCH   7  21
ENDBRANCH   1   9
BRANCH   4  24
ATOM     24  O   UNL     1      -6.705  -2.877   4.633  0.00  0.00    -0.495 OA
ATOM     25  C   UNL     1      -7.374  -4.134   4.516  0.00  0.00    +0.277 C 
ENDBRANCH   4  24
BRANCH   5  26
ATOM     26  C   UNL     1      -5.365  -0.400   4.854  0.00  0.00    -0.039 C 
BRANCH  26  27
ATOM     27  N   UNL     1      -6.372   0.181   3.958  0.00  0.00    +0.384 N 
ATOM     28  C   UNL     1      -5.714   0.685   2.745  0.00  0.00    -0.059 C 
ATOM     29  C   UNL     1      -6.775   1.187   1.760  0.00  0.00    +0.086 C 
ATOM     30  N   UNL     1      -7.618   2.177   2.448  0.00  0.00    -0.333 N 
ATOM     31  C   UNL     1      -8.188   1.813   3.755  0.00  0.00    +0.086 C 
ATOM     32  C   UNL     1      -7.061   1.281   4.646  0.00  0.00    -0.059 C 
ATOM     33  H   UNL     1      -7.044  -0.527   3.703  0.00  0.00    -0.081 HD
BRANCH  30  34
ATOM     34  C   UNL     1      -7.871   3.428   1.877  0.00  0.00    +0.030 A 
ATOM     35  C   UNL     1      -7.235   3.795   0.698  0.00  0.00    +0.026 A 
ATOM     36  C   UNL     1      -7.487   5.031   0.135  0.00  0.00    +0.040 A 
ATOM     37  C   UNL     1      -8.373   5.903   0.745  0.00  0.00    +0.124 A 
ATOM     38  C   UNL     1      -9.008   5.539   1.920  0.00  0.00    +0.040 A 
ATOM     39  C   UNL     1      -8.763   4.302   2.484  0.00  0.00    +0.026 A 
ATOM     40  F   UNL     1      -8.617   7.111   0.192  0.00  0.00    -0.205 F 
ENDBRANCH  30  34
ENDBRANCH  26  27
ENDBRANCH   5  26
TORSDOF 9
