REMARK  Name = ZINC20764563
REMARK  7 active torsions:
REMARK  status: ('A' for Active; 'I' for Inactive)
REMARK    1  A    between atoms: C_1  and  O_2
REMARK    2  A    between atoms: O_2  and  C_3
REMARK    3  A    between atoms: C_6  and  C_9
REMARK    4  A    between atoms: C_11  and  C_25
REMARK    5  A    between atoms: C_14  and  C_17
REMARK    6  A    between atoms: C_22  and  O_23
REMARK    7  A    between atoms: C_28  and  C_31
REMARK                            x       y       z     vdW  Elec       q    Type
REMARK                         _______ _______ _______ _____ _____    ______ ____
ROOT
ATOM      1  C   UNL     1       1.514   0.043   6.114  0.00  0.00    +0.040 C 
ATOM      2  N   UNL     1       0.940   0.445   7.186  0.00  0.00    -0.299 NA
ATOM      3  C   UNL     1       1.407   0.132   8.531  0.00  0.00    +0.081 C 
ATOM      4  N   UNL     1       2.337  -1.003   8.507  0.00  0.00    +0.401 N 
ATOM      5  C   UNL     1       3.395  -0.774   7.507  0.00  0.00    -0.028 C 
ATOM      6  C   UNL     1       2.753  -0.809   6.117  0.00  0.00    +0.044 C 
ATOM      7  H   UNL     1       2.799  -1.119   9.499  0.00  0.00    -0.081 HD
ATOM      8  H   UNL     1       1.789  -1.921   8.248  0.00  0.00    -0.081 HD
ENDROOT
BRANCH   5   9
ATOM      9  C   UNL     1       4.439  -1.855   7.613  0.00  0.00    -0.018 A 
ATOM     10  C   UNL     1       4.113  -3.079   8.165  0.00  0.00    +0.025 A 
ATOM     11  C   UNL     1       5.070  -4.074   8.258  0.00  0.00    +0.041 A 
ATOM     12  C   UNL     1       6.358  -3.842   7.808  0.00  0.00    +0.023 A 
ATOM     13  C   UNL     1       6.689  -2.618   7.261  0.00  0.00    +0.047 A 
ATOM     14  C   UNL     1       5.729  -1.621   7.162  0.00  0.00    +0.119 A 
ATOM     15 CL   UNL     1       4.657  -5.613   8.947  0.00  0.00    -0.084 Cl
BRANCH  14  16
ATOM     16  O   UNL     1       6.053  -0.415   6.623  0.00  0.00    -0.507 OA
ATOM     17  H   UNL     1       7.077  -0.230   6.266  0.00  0.00    +0.292 HD
ENDBRANCH  14  16
ENDBRANCH   5   9
BRANCH   1  21
ATOM     18  C   UNL     1      -0.149   1.183   2.378  0.00  0.00    +0.120 A 
ATOM     19  C   UNL     1       0.992   0.391   2.416  0.00  0.00    +0.046 A 
ATOM     20  C   UNL     1       1.538   0.024   3.626  0.00  0.00    +0.013 A 
ATOM     21  C   UNL     1       0.936   0.439   4.817  0.00  0.00    -0.004 A 
ATOM     22  C   UNL     1      -0.215   1.230   4.774  0.00  0.00    +0.013 A 
ATOM     23  C   UNL     1      -0.751   1.597   3.560  0.00  0.00    +0.046 A 
BRANCH  18  25
ATOM     24  C   UNL     1      -0.013   1.086   0.008  0.00  0.00    +0.277 C 
ATOM     25  O   UNL     1      -0.682   1.547   1.184  0.00  0.00    -0.495 OA
ENDBRANCH  18  25
ENDBRANCH   1  21
BRANCH   3  26
ATOM     26  C   UNL     1       2.110   1.338   9.100  0.00  0.00    -0.040 A 
ATOM     27  C   UNL     1       3.116   1.175  10.034  0.00  0.00    +0.004 A 
ATOM     28  C   UNL     1       3.763   2.280  10.553  0.00  0.00    +0.012 A 
ATOM     29  C   UNL     1       3.399   3.550  10.145  0.00  0.00    +0.055 A 
ATOM     30  C   UNL     1       2.389   3.713   9.215  0.00  0.00    +0.012 A 
ATOM     31  C   UNL     1       1.745   2.607   8.692  0.00  0.00    +0.004 A 
BRANCH  29  32
ATOM     32  C   UNL     1       4.101   4.755  10.714  0.00  0.00    +0.417 C 
ATOM     33  F   UNL     1       3.431   5.186  11.864  0.00  0.00    -0.166 F 
ATOM     34  F   UNL     1       5.418   4.416  11.041  0.00  0.00    -0.166 F 
ATOM     35  F   UNL     1       4.107   5.783   9.765  0.00  0.00    -0.166 F 
ENDBRANCH  29  32
ENDBRANCH   3  26
TORSDOF 6
