REMARK  Name = ZINC22068045
REMARK  5 active torsions:
REMARK  status: ('A' for Active; 'I' for Inactive)
REMARK    1  A    between atoms: C_1  and  C_2
REMARK    2  A    between atoms: C_2  and  C_3
REMARK    3  A    between atoms: C_2  and  C_4
REMARK    4  A    between atoms: C_8  and  N_10
REMARK    5  A    between atoms: C_11  and  C_13
REMARK                            x       y       z     vdW  Elec       q    Type
REMARK                         _______ _______ _______ _____ _____    ______ ____
ROOT
ATOM      1  N   UNL     1      -0.069   5.241   0.029  0.00  0.00    -0.281 N 
ATOM      2  C   UNL     1       1.085   5.930   0.123  0.00  0.00    +0.248 C 
ATOM      3  O   UNL     1       2.149   5.340   0.110  0.00  0.00    -0.270 OA
ATOM      4  H   UNL     1      -1.026   5.778  -0.046  0.00  0.00    +0.155 HD
ENDROOT
BRANCH   2   5
ATOM      5  C   UNL     1       1.059   7.399   0.241  0.00  0.00    +0.039 A 
ATOM      6  C   UNL     1      -0.163   8.078   0.251  0.00  0.00    +0.014 A 
ATOM      7  C   UNL     1      -0.191   9.451   0.365  0.00  0.00    +0.017 A 
ATOM      8  C   UNL     1       1.000  10.161   0.461  0.00  0.00    +0.029 A 
ATOM      9  C   UNL     1       2.224   9.490   0.448  0.00  0.00    +0.048 A 
ATOM     10  C   UNL     1       2.258   8.115   0.338  0.00  0.00    +0.037 A 
ATOM     11  N   UNL     1       3.415  10.227   0.550  0.00  0.00    -0.285 N 
ATOM     12  C   UNL     1       3.570  11.129   1.526  0.00  0.00    +0.218 C 
ATOM     13  O   UNL     1       4.514  11.890   1.489  0.00  0.00    -0.275 OA
ATOM     14  C   UNL     1       2.599  11.218   2.666  0.00  0.00    +0.107 C 
ATOM     15  C   UNL     1       1.468  12.207   2.333  0.00  0.00    +0.083 C 
ATOM     16  S   UNL     1       0.985  11.920   0.598  0.00  0.00    -0.123 S 
ATOM     17  H   UNL     1       4.226  10.064  -0.175  0.00  0.00    +0.155 HD
ENDBRANCH   2   5
BRANCH   1  22
ATOM     18  C   UNL     1       0.918   1.778   0.769  0.00  0.00    -0.043 A 
ATOM     19  C   UNL     1      -0.015   1.076   0.028  0.00  0.00    +0.004 A 
ATOM     20  C   UNL     1      -0.969   1.753  -0.708  0.00  0.00    +0.002 A 
ATOM     21  C   UNL     1      -0.990   3.135  -0.710  0.00  0.00    +0.023 A 
ATOM     22  C   UNL     1      -0.051   3.842   0.029  0.00  0.00    +0.034 A 
ATOM     23  C   UNL     1       0.907   3.159   0.767  0.00  0.00    +0.027 A 
BRANCH  18  25
ATOM     24  C   UNL     1       1.253   0.147   2.607  0.00  0.00    +0.012 C 
ATOM     25  C   UNL     1       1.952   1.035   1.576  0.00  0.00    +0.013 C 
ATOM     26  C   UNL     1       2.798   0.166   0.643  0.00  0.00    +0.012 C 
ENDBRANCH  18  25
ENDBRANCH   1  22
TORSDOF 3
