REMARK  Name = ZINC08873459
REMARK  3 active torsions:
REMARK  status: ('A' for Active; 'I' for Inactive)
REMARK    1  A    between atoms: C_6  and  C_7
REMARK    2  A    between atoms: C_12  and  C_15
REMARK    3  A    between atoms: N_17  and  C_18
REMARK                            x       y       z     vdW  Elec       q    Type
REMARK                         _______ _______ _______ _____ _____    ______ ____
ROOT
ATOM      1  C   UNL     1       9.556  -3.050   0.314  0.00  0.00    +0.250 C 
ATOM      2  O   UNL     1       9.365  -4.248   0.391  0.00  0.00    -0.270 OA
ATOM      3  N   UNL     1       8.511  -2.205   0.221  0.00  0.00    -0.261 N 
ATOM      4  C   UNL     1       7.215  -2.702   0.214  0.00  0.00    +0.165 A 
ATOM      5  N   UNL     1       6.074  -2.048   0.132  0.00  0.00    -0.220 NA
ATOM      6  C   UNL     1       4.922  -2.722   0.140  0.00  0.00    +0.135 A 
ATOM      7  C   UNL     1       4.951  -4.088   0.241  0.00  0.00    +0.081 A 
ATOM      8  S   UNL     1       6.659  -4.396   0.312  0.00  0.00    -0.060 S 
ATOM      9  H   UNL     1       8.663  -1.249   0.160  0.00  0.00    +0.157 HD
ENDROOT
BRANCH   1  15
ATOM     10  C   UNL     1      11.159  -1.145   0.228  0.00  0.00    +0.014 A 
ATOM     11  C   UNL     1      12.448  -0.656   0.242  0.00  0.00    +0.021 A 
ATOM     12  C   UNL     1      13.521  -1.527   0.337  0.00  0.00    +0.041 A 
ATOM     13  C   UNL     1      13.306  -2.893   0.425  0.00  0.00    +0.021 A 
ATOM     14  C   UNL     1      12.021  -3.393   0.418  0.00  0.00    +0.014 A 
ATOM     15  C   UNL     1      10.936  -2.520   0.322  0.00  0.00    +0.037 A 
ATOM     16 CL   UNL     1      15.142  -0.905   0.346  0.00  0.00    -0.084 Cl
ENDBRANCH   1  15
BRANCH   6  17
ATOM     17  C   UNL     1       3.638  -2.007   0.049  0.00  0.00    +0.267 C 
ATOM     18  O   UNL     1       2.593  -2.630   0.058  0.00  0.00    -0.268 OA
ATOM     19  N   UNL     1       3.621  -0.663  -0.045  0.00  0.00    -0.280 N 
ATOM     20  H   UNL     1       4.454  -0.171  -0.119  0.00  0.00    +0.155 HD
BRANCH  19  21
ATOM     21  C   UNL     1       2.401   0.024  -0.034  0.00  0.00    +0.037 A 
ATOM     22  C   UNL     1       2.309   1.268   0.577  0.00  0.00    +0.027 A 
ATOM     23  C   UNL     1       1.105   1.945   0.588  0.00  0.00    +0.051 A 
ATOM     24  C   UNL     1      -0.015   1.386  -0.010  0.00  0.00    +0.162 A 
ATOM     25  C   UNL     1       0.074   0.143  -0.624  0.00  0.00    +0.164 A 
ATOM     26  C   UNL     1       1.282  -0.537  -0.634  0.00  0.00    +0.072 A 
ATOM     27  O   UNL     1      -1.012  -0.418  -1.224  0.00  0.00    -0.485 OA
ATOM     28  C   UNL     1      -2.291   0.119  -0.870  0.00  0.00    +0.270 C 
ATOM     29  C   UNL     1      -2.199   1.651  -0.915  0.00  0.00    +0.270 C 
ATOM     30  O   UNL     1      -1.195   2.066   0.019  0.00  0.00    -0.485 OA
ENDBRANCH  19  21
ENDBRANCH   6  17
TORSDOF 3
