REMARK  Name = ZINC35548090
REMARK  11 active torsions:
REMARK  status: ('A' for Active; 'I' for Inactive)
REMARK    1  A    between atoms: C_1  and  C_2
REMARK    2  A    between atoms: C_2  and  C_3
REMARK    3  A    between atoms: N_7  and  C_28
REMARK    4  A    between atoms: C_11  and  N_16
REMARK    5  A    between atoms: N_16  and  S_17
REMARK    6  A    between atoms: S_17  and  C_20
REMARK    7  A    between atoms: C_25  and  C_26
REMARK    8  A    between atoms: C_28  and  C_29
REMARK    9  A    between atoms: C_29  and  C_30
REMARK   10  A    between atoms: C_35  and  O_36
REMARK   11  A    between atoms: O_36  and  C_37
REMARK                            x       y       z     vdW  Elec       q    Type
REMARK                         _______ _______ _______ _____ _____    ______ ____
ROOT
ATOM      1  C   UNL     1       0.742  -0.511   1.242  0.00  0.00    +0.258 C 
ATOM      2  C   UNL     1       0.643  -2.004   1.300  0.00  0.00    +0.257 C 
ATOM      3  O   UNL     1      -0.150  -2.406   2.125  0.00  0.00    -0.272 OA
ATOM      4  N   UNL     1       1.222  -2.935   0.657  0.00  0.00    -0.294 N 
ATOM      5  C   UNL     1       2.359  -2.961  -0.201  0.00  0.00    +0.146 C 
ATOM      6  C   UNL     1       3.137  -1.699  -0.416  0.00  0.00    +0.013 A 
ATOM      7  C   UNL     1       4.186  -1.855  -1.335  0.00  0.00    +0.035 A 
ATOM      8  C   UNL     1       4.983  -0.790  -1.705  0.00  0.00    +0.075 A 
ATOM      9  C   UNL     1       4.725   0.460  -1.157  0.00  0.00    +0.030 A 
ATOM     10  C   UNL     1       3.712   0.598  -0.246  0.00  0.00    +0.048 A 
ATOM     11  C   UNL     1       2.918  -0.502   0.161  0.00  0.00    +0.126 A 
ATOM     12  O   UNL     1       2.094  -0.105   1.175  0.00  0.00    -0.479 OA
ENDROOT
BRANCH   1  14
ATOM     13  C   UNL     1      -0.019   1.526   0.010  0.00  0.00    +0.008 C 
ATOM     14  C   UNL     1       0.002  -0.004   0.002  0.00  0.00    +0.051 C 
ENDBRANCH   1  14
BRANCH   8  15
ATOM     15  N   UNL     1       6.031  -0.968  -2.615  0.00  0.00    -0.098 NA
BRANCH  15  16
ATOM     16  S   UNL     1       6.978   0.320  -3.049  0.00  0.00    +0.093 S 
ATOM     17  O   UNL     1       6.141   1.216  -3.766  0.00  0.00    -0.148 OA
ATOM     18  O   UNL     1       7.690   0.711  -1.883  0.00  0.00    -0.148 OA
BRANCH  16  19
ATOM     19  C   UNL     1       8.176  -0.277  -4.194  0.00  0.00    +0.128 A 
ATOM     20  C   UNL     1       8.173   0.177  -5.497  0.00  0.00    +0.030 A 
ATOM     21  C   UNL     1       9.113  -0.291  -6.398  0.00  0.00    +0.002 A 
ATOM     22  C   UNL     1      10.062  -1.215  -6.000  0.00  0.00    +0.001 A 
ATOM     23  C   UNL     1      10.077  -1.677  -4.700  0.00  0.00    +0.021 A 
ATOM     24  C   UNL     1       9.135  -1.205  -3.784  0.00  0.00    +0.078 A 
BRANCH  24  25
ATOM     25  C   UNL     1       9.149  -1.675  -2.432  0.00  0.00    +0.101 C 
ATOM     26  N   UNL     1       9.159  -2.048  -1.359  0.00  0.00    -0.191 NA
ENDBRANCH  24  25
ENDBRANCH  16  19
ENDBRANCH  15  16
ENDBRANCH   8  15
BRANCH   4  27
ATOM     27  C   UNL     1       0.596  -4.247   0.836  0.00  0.00    +0.113 C 
BRANCH  27  28
ATOM     28  C   UNL     1      -0.476  -4.451  -0.237  0.00  0.00    +0.058 C 
BRANCH  28  29
ATOM     29  C   UNL     1      -1.121  -5.800  -0.053  0.00  0.00    -0.004 A 
ATOM     30  C   UNL     1      -0.660  -6.890  -0.766  0.00  0.00    +0.007 A 
ATOM     31  C   UNL     1      -1.251  -8.128  -0.598  0.00  0.00    +0.000 A 
ATOM     32  C   UNL     1      -2.305  -8.280   0.284  0.00  0.00    +0.004 A 
ATOM     33  C   UNL     1      -2.769  -7.193   1.000  0.00  0.00    +0.046 A 
ATOM     34  C   UNL     1      -2.174  -5.951   0.838  0.00  0.00    +0.123 A 
BRANCH  34  35
ATOM     35  O   UNL     1      -2.625  -4.882   1.545  0.00  0.00    -0.495 OA
ATOM     36  C   UNL     1      -3.712  -5.110   2.443  0.00  0.00    +0.277 C 
ENDBRANCH  34  35
ENDBRANCH  28  29
ENDBRANCH  27  28
ENDBRANCH   4  27
TORSDOF 9
