REMARK  Name = ZINC21706563
REMARK  8 active torsions:
REMARK  status: ('A' for Active; 'I' for Inactive)
REMARK    1  A    between atoms: C_1  and  C_2
REMARK    2  A    between atoms: C_2  and  C_3
REMARK    3  A    between atoms: C_2  and  N_4
REMARK    4  A    between atoms: C_5  and  C_7
REMARK    5  A    between atoms: C_14  and  C_16
REMARK    6  A    between atoms: C_19  and  N_22
REMARK    7  A    between atoms: N_22  and  S_23
REMARK    8  A    between atoms: S_23  and  C_26
REMARK                            x       y       z     vdW  Elec       q    Type
REMARK                         _______ _______ _______ _____ _____    ______ ____
ROOT
ATOM      1  C   UNL     1      -1.573   5.956  -1.698  0.00  0.00    +0.037 A 
ATOM      2  C   UNL     1      -0.396   5.464  -2.271  0.00  0.00    +0.015 A 
ATOM      3  C   UNL     1      -0.063   4.137  -2.122  0.00  0.00    +0.025 A 
ATOM      4  C   UNL     1      -0.895   3.285  -1.401  0.00  0.00    +0.048 A 
ATOM      5  C   UNL     1      -2.071   3.771  -0.834  0.00  0.00    +0.025 A 
ATOM      6  C   UNL     1      -2.407   5.098  -0.975  0.00  0.00    +0.015 A 
ENDROOT
BRANCH   1  13
ATOM      7  C   UNL     1      -1.969  10.325   0.085  0.00  0.00    +0.092 C 
ATOM      8  C   UNL     1      -2.208   9.752   1.483  0.00  0.00    +0.016 C 
ATOM      9  C   UNL     1      -1.698   8.310   1.539  0.00  0.00    +0.020 C 
ATOM     10  C   UNL     1      -2.474   7.459   0.529  0.00  0.00    +0.108 C 
ATOM     11  N   UNL     1      -2.369   8.085  -0.796  0.00  0.00    -0.297 N 
ATOM     12  C   UNL     1      -2.743   9.498  -0.941  0.00  0.00    +0.120 C 
ATOM     13  C   UNL     1      -1.933   7.378  -1.857  0.00  0.00    +0.247 C 
ATOM     14  O   UNL     1      -1.837   7.911  -2.946  0.00  0.00    -0.270 OA
BRANCH   7  16
ATOM     15  N   UNL     1      -2.331  12.467  -1.099  0.00  0.00    -0.313 N 
ATOM     16  C   UNL     1      -2.442  11.755   0.040  0.00  0.00    +0.218 C 
ATOM     17  O   UNL     1      -2.923  12.266   1.029  0.00  0.00    -0.275 OA
ATOM     18  H   UNL     1      -1.895  12.003  -1.997  0.00  0.00    +0.149 HD
BRANCH  15  20
ATOM     19  C   UNL     1      -1.681  14.777  -0.633  0.00  0.00    +0.027 C 
ATOM     20  C   UNL     1      -2.791  13.857  -1.143  0.00  0.00    +0.067 C 
ATOM     21  C   UNL     1      -3.143  14.233  -2.583  0.00  0.00    +0.027 C 
ENDBRANCH  15  20
ENDBRANCH   7  16
ENDBRANCH   1  13
BRANCH   4  22
ATOM     22  N   UNL     1      -0.556   1.945  -1.252  0.00  0.00    -0.216 N 
ATOM     23  H   UNL     1      -1.124   1.171  -1.788  0.00  0.00    +0.174 HD
BRANCH  22  24
ATOM     24  S   UNL     1       0.704   1.515  -0.267  0.00  0.00    +0.072 S 
ATOM     25  O   UNL     1       0.794   0.098  -0.318  0.00  0.00    -0.150 OA
ATOM     26  O   UNL     1       1.794   2.361  -0.609  0.00  0.00    -0.150 OA
BRANCH  24  27
ATOM     27  C   UNL     1       0.242   1.931   1.382  0.00  0.00    +0.109 A 
ATOM     28  C   UNL     1       0.477   3.204   1.868  0.00  0.00    +0.029 A 
ATOM     29  C   UNL     1       0.110   3.523   3.158  0.00  0.00    +0.006 A 
ATOM     30  C   UNL     1      -0.484   2.573   3.979  0.00  0.00    -0.044 A 
ATOM     31  C   UNL     1      -0.716   1.305   3.496  0.00  0.00    -0.042 A 
ATOM     32  C   UNL     1      -0.350   0.987   2.194  0.00  0.00    +0.032 A 
ATOM     33  C   UNL     1      -1.365   0.227   4.325  0.00  0.00    +0.035 C 
ATOM     34  C   UNL     1      -1.307   0.584   5.809  0.00  0.00    +0.005 C 
ATOM     35  C   UNL     1      -1.851   2.006   5.986  0.00  0.00    +0.005 C 
ATOM     36  C   UNL     1      -0.847   2.985   5.381  0.00  0.00    +0.035 C 
ENDBRANCH  24  27
ENDBRANCH  22  24
ENDBRANCH   4  22
TORSDOF 6
