REMARK  Name = ZINC35646635
REMARK  12 active torsions:
REMARK  status: ('A' for Active; 'I' for Inactive)
REMARK    1  A    between atoms: C_1  and  C_2
REMARK    2  A    between atoms: C_2  and  N_3
REMARK    3  A    between atoms: C_4  and  C_24
REMARK    4  A    between atoms: C_5  and  C_19
REMARK    5  A    between atoms: C_6  and  C_11
REMARK    6  A    between atoms: C_14  and  C_18
REMARK    7  A    between atoms: C_16  and  C_17
REMARK    8  A    between atoms: C_19  and  O_21
REMARK    9  A    between atoms: O_21  and  C_22
REMARK   10  A    between atoms: C_22  and  C_23
REMARK   11  A    between atoms: C_24  and  N_25
REMARK   12  A    between atoms: C_32  and  C_34
REMARK                            x       y       z     vdW  Elec       q    Type
REMARK                         _______ _______ _______ _____ _____    ______ ____
ROOT
ATOM      1  N   UNL     1       1.333  -0.230   0.802  0.00  0.00    -0.261 N 
ATOM      2  C   UNL     1       2.434  -1.038   0.784  0.00  0.00    +0.010 C 
ATOM      3  C   UNL     1       2.788  -1.758   1.870  0.00  0.00    +0.076 C 
ATOM      4  C   UNL     1       1.923  -1.638   3.108  0.00  0.00    +0.144 C 
ATOM      5  N   UNL     1       0.759  -0.741   3.025  0.00  0.00    -0.288 N 
ATOM      6  C   UNL     1       0.537  -0.084   1.869  0.00  0.00    +0.307 C 
ATOM      7  O   UNL     1      -0.419   0.663   1.791  0.00  0.00    -0.252 OA
ATOM      8  H   UNL     1       0.168  -0.623   3.784  0.00  0.00    +0.151 HD
ENDROOT
BRANCH   4   9
ATOM      9  C   UNL     1       2.796  -1.162   4.241  0.00  0.00    -0.020 A 
ATOM     10  C   UNL     1       3.999  -0.535   3.970  0.00  0.00    +0.006 A 
ATOM     11  C   UNL     1       4.799  -0.098   5.009  0.00  0.00    +0.004 A 
ATOM     12  C   UNL     1       4.397  -0.288   6.318  0.00  0.00    -0.050 A 
ATOM     13  C   UNL     1       3.195  -0.913   6.588  0.00  0.00    +0.007 A 
ATOM     14  C   UNL     1       2.392  -1.347   5.549  0.00  0.00    -0.045 A 
ATOM     15  C   UNL     1       1.079  -2.024   5.844  0.00  0.00    +0.044 C 
ATOM     16  C   UNL     1       5.271   0.188   7.450  0.00  0.00    +0.044 C 
ENDBRANCH   4   9
BRANCH   1  18
ATOM     17  C   UNL     1       1.655   1.907  -0.342  0.00  0.00    +0.025 C 
ATOM     18  C   UNL     1       1.007   0.523  -0.412  0.00  0.00    +0.111 C 
ENDBRANCH   1  18
BRANCH   3  19
ATOM     19  C   UNL     1       3.928  -2.595   1.852  0.00  0.00    +0.339 C 
ATOM     20  O   UNL     1       4.657  -2.611   0.877  0.00  0.00    -0.245 OA
BRANCH  19  21
ATOM     21  O   UNL     1       4.208  -3.377   2.916  0.00  0.00    -0.462 OA
BRANCH  21  22
ATOM     22  C   UNL     1       5.432  -4.113   2.876  0.00  0.00    +0.229 C 
ATOM     23  C   UNL     1       5.517  -5.028   4.099  0.00  0.00    +0.048 C 
ENDBRANCH  21  22
ENDBRANCH  19  21
ENDBRANCH   3  19
BRANCH   2  24
ATOM     24  C   UNL     1       3.267  -1.127  -0.469  0.00  0.00    -0.026 C 
BRANCH  24  25
ATOM     25  N   UNL     1       2.922  -2.354  -1.200  0.00  0.00    +0.384 N 
ATOM     26  C   UNL     1       3.905  -2.548  -2.263  0.00  0.00    -0.077 C 
ATOM     27  C   UNL     1       4.054  -4.028  -2.542  0.00  0.00    +0.000 C 
ATOM     28  C   UNL     1       3.108  -4.431  -3.688  0.00  0.00    +0.106 C 
ATOM     29  N   UNL     1       1.806  -3.745  -3.568  0.00  0.00    -0.299 N 
ATOM     30  C   UNL     1       1.133  -3.575  -2.297  0.00  0.00    +0.089 C 
ATOM     31  C   UNL     1       1.583  -2.251  -1.637  0.00  0.00    -0.059 C 
ATOM     32  C   UNL     1       1.223  -3.259  -4.682  0.00  0.00    +0.247 C 
ATOM     33  O   UNL     1       0.208  -2.596  -4.597  0.00  0.00    -0.270 OA
ATOM     34  H   UNL     1       2.990  -3.132  -0.561  0.00  0.00    -0.081 HD
BRANCH  32  35
ATOM     35  C   UNL     1       1.819  -3.532  -6.007  0.00  0.00    +0.040 A 
ATOM     36  C   UNL     1       2.421  -4.765  -6.264  0.00  0.00    +0.013 A 
ATOM     37  C   UNL     1       2.974  -5.015  -7.503  0.00  0.00    +0.004 A 
ATOM     38  C   UNL     1       2.934  -4.047  -8.490  0.00  0.00    +0.038 A 
ATOM     39  C   UNL     1       2.339  -2.821  -8.243  0.00  0.00    +0.124 A 
ATOM     40  C   UNL     1       1.776  -2.561  -7.008  0.00  0.00    +0.051 A 
ATOM     41  F   UNL     1       2.304  -1.880  -9.212  0.00  0.00    -0.205 F 
ENDBRANCH  32  35
ENDBRANCH  24  25
ENDBRANCH   2  24
TORSDOF 8
