REMARK  Name = ZINC54940246
REMARK  5 active torsions:
REMARK  status: ('A' for Active; 'I' for Inactive)
REMARK    1  A    between atoms: C_1  and  C_2
REMARK    2  A    between atoms: C_2  and  C_4
REMARK    3  A    between atoms: C_2  and  N_10
REMARK    4  A    between atoms: C_13  and  N_16
REMARK    5  A    between atoms: C_17  and  C_19
REMARK                            x       y       z     vdW  Elec       q    Type
REMARK                         _______ _______ _______ _____ _____    ______ ____
ROOT
ATOM      1  N   UNL     1       4.189  -1.193  -1.695  0.00  0.00    -0.307 N 
ATOM      2  C   UNL     1       5.141  -1.626  -2.546  0.00  0.00    +0.300 C 
ATOM      3  O   UNL     1       4.870  -1.814  -3.714  0.00  0.00    -0.265 OA
ATOM      4  H   UNL     1       4.405  -1.043  -0.762  0.00  0.00    +0.149 HD
ENDROOT
BRANCH   2   5
ATOM      5  C   UNL     1       6.528  -1.874  -2.051  0.00  0.00    +0.305 C 
ATOM      6  O   UNL     1       6.798  -1.687  -0.883  0.00  0.00    -0.265 OA
ATOM      7  N   UNL     1       7.479  -2.307  -2.902  0.00  0.00    -0.257 N 
ATOM      8  C   UNL     1       8.764  -2.537  -2.443  0.00  0.00    +0.166 A 
ATOM      9  N   UNL     1       9.242  -2.399  -1.228  0.00  0.00    -0.225 NA
ATOM     10  C   UNL     1      10.530  -2.662  -0.921  0.00  0.00    +0.080 A 
ATOM     11  C   UNL     1      11.167  -2.554   0.338  0.00  0.00    +0.029 A 
ATOM     12  C   UNL     1      12.495  -2.863   0.479  0.00  0.00    +0.002 A 
ATOM     13  C   UNL     1      13.259  -3.289  -0.598  0.00  0.00    +0.001 A 
ATOM     14  C   UNL     1      12.669  -3.405  -1.843  0.00  0.00    +0.017 A 
ATOM     15  C   UNL     1      11.340  -3.099  -1.994  0.00  0.00    +0.041 A 
ATOM     16  S   UNL     1      10.194  -3.106  -3.353  0.00  0.00    -0.052 S 
ATOM     17  H   UNL     1       7.263  -2.457  -3.835  0.00  0.00    +0.157 HD
ENDBRANCH   2   5
BRANCH   1  21
ATOM     18  N   UNL     1       0.690  -0.478  -1.207  0.00  0.00    +0.385 N 
ATOM     19  C   UNL     1       0.834  -1.956  -1.177  0.00  0.00    -0.076 C 
ATOM     20  C   UNL     1       2.003  -2.253  -2.139  0.00  0.00    +0.002 C 
ATOM     21  C   UNL     1       2.829  -0.950  -2.181  0.00  0.00    +0.055 C 
ATOM     22  C   UNL     1       2.087   0.024  -1.240  0.00  0.00    -0.056 C 
ATOM     23  H   UNL     1       0.190  -0.187  -2.034  0.00  0.00    -0.081 HD
BRANCH  18  25
ATOM     24  C   UNL     1      -0.019   1.526   0.010  0.00  0.00    -0.008 C 
ATOM     25  C   UNL     1       0.002  -0.004   0.002  0.00  0.00    -0.041 C 
BRANCH  25  26
ATOM     26  C   UNL     1      -1.412  -0.526   0.013  0.00  0.00    -0.061 A 
ATOM     27  C   UNL     1      -2.141  -0.569  -1.161  0.00  0.00    +0.002 A 
ATOM     28  C   UNL     1      -3.438  -1.047  -1.151  0.00  0.00    +0.000 A 
ATOM     29  C   UNL     1      -4.005  -1.483   0.032  0.00  0.00    +0.000 A 
ATOM     30  C   UNL     1      -3.275  -1.441   1.205  0.00  0.00    +0.000 A 
ATOM     31  C   UNL     1      -1.977  -0.966   1.195  0.00  0.00    +0.002 A 
ENDBRANCH  25  26
ENDBRANCH  18  25
ENDBRANCH   1  21
TORSDOF 4
