REMARK  Name = ZINC36013484
REMARK  10 active torsions:
REMARK  status: ('A' for Active; 'I' for Inactive)
REMARK    1  A    between atoms: C_1  and  C_2
REMARK    2  A    between atoms: C_2  and  C_3
REMARK    3  A    between atoms: C_3  and  N_4
REMARK    4  A    between atoms: N_4  and  C_5
REMARK    5  A    between atoms: C_5  and  C_6
REMARK    6  A    between atoms: N_8  and  C_9
REMARK    7  A    between atoms: C_12  and  N_15
REMARK    8  A    between atoms: N_23  and  C_24
REMARK    9  A    between atoms: C_28  and  C_30
REMARK   10  A    between atoms: C_31  and  C_33
REMARK                            x       y       z     vdW  Elec       q    Type
REMARK                         _______ _______ _______ _____ _____    ______ ____
ROOT
ATOM      1  C   UNL     1      -3.155  -4.535   0.853  0.00  0.00    +0.034 A 
ATOM      2  C   UNL     1      -4.013  -3.765   0.078  0.00  0.00    +0.025 A 
ATOM      3  C   UNL     1      -5.303  -4.195  -0.157  0.00  0.00    +0.025 A 
ATOM      4  C   UNL     1      -5.744  -5.397   0.381  0.00  0.00    +0.030 A 
ATOM      5  C   UNL     1      -4.887  -6.167   1.157  0.00  0.00    +0.025 A 
ATOM      6  C   UNL     1      -3.594  -5.739   1.387  0.00  0.00    +0.025 A 
ENDROOT
BRANCH   4   7
ATOM      7  N   UNL     1      -7.052  -5.832   0.143  0.00  0.00    -0.327 N 
ATOM      8  C   UNL     1      -7.575  -7.032   0.812  0.00  0.00    +0.124 C 
ATOM      9  C   UNL     1      -8.864  -6.657   1.554  0.00  0.00    +0.128 C 
ATOM     10  N   UNL     1      -9.740  -5.923   0.631  0.00  0.00    -0.282 N 
ATOM     11  C   UNL     1      -9.218  -4.723  -0.038  0.00  0.00    +0.128 C 
ATOM     12  C   UNL     1      -7.931  -5.094  -0.775  0.00  0.00    +0.124 C 
ATOM     13  C   UNL     1     -11.000  -6.342   0.402  0.00  0.00    +0.307 C 
ATOM     14  O   UNL     1     -11.453  -7.279   1.030  0.00  0.00    -0.252 OA
ATOM     15  N   UNL     1     -11.758  -5.723  -0.525  0.00  0.00    -0.269 N 
ATOM     16  H   UNL     1     -11.375  -5.023  -1.076  0.00  0.00    +0.156 HD
BRANCH  15  17
ATOM     17  C   UNL     1     -13.099  -6.090  -0.691  0.00  0.00    +0.035 A 
ATOM     18  C   UNL     1     -13.846  -6.510   0.401  0.00  0.00    +0.023 A 
ATOM     19  C   UNL     1     -15.168  -6.870   0.234  0.00  0.00    +0.002 A 
ATOM     20  C   UNL     1     -15.749  -6.814  -1.020  0.00  0.00    +0.003 A 
ATOM     21  C   UNL     1     -15.007  -6.397  -2.110  0.00  0.00    -0.049 A 
ATOM     22  C   UNL     1     -13.686  -6.029  -1.948  0.00  0.00    +0.026 A 
ATOM     23  C   UNL     1     -15.643  -6.338  -3.475  0.00  0.00    +0.044 C 
ENDBRANCH  15  17
ENDBRANCH   4   7
BRANCH   1  26
ATOM     24  C   UNL     1      -1.242  -4.386   2.263  0.00  0.00    +0.235 C 
ATOM     25  O   UNL     1      -1.863  -4.939   3.145  0.00  0.00    -0.274 OA
ATOM     26  N   UNL     1      -1.845  -4.099   1.092  0.00  0.00    -0.284 N 
ATOM     27  H   UNL     1      -1.372  -3.591   0.414  0.00  0.00    +0.155 HD
BRANCH  24  28
ATOM     28  C   UNL     1       0.204  -4.019   2.475  0.00  0.00    +0.204 C 
BRANCH  28  29
ATOM     29  N   UNL     1       0.621  -4.433   3.817  0.00  0.00    -0.289 N 
ATOM     30  C   UNL     1       0.592  -3.550   4.835  0.00  0.00    +0.247 C 
ATOM     31  O   UNL     1       1.043  -3.859   5.920  0.00  0.00    -0.270 OA
BRANCH  30  32
ATOM     32  C   UNL     1       0.010  -2.208   4.631  0.00  0.00    +0.037 A 
ATOM     33  C   UNL     1      -1.254  -2.072   4.053  0.00  0.00    +0.016 A 
ATOM     34  C   UNL     1      -1.793  -0.817   3.866  0.00  0.00    +0.039 A 
ATOM     35  C   UNL     1      -1.081   0.309   4.248  0.00  0.00    +0.123 A 
ATOM     36  C   UNL     1       0.175   0.180   4.822  0.00  0.00    +0.039 A 
ATOM     37  C   UNL     1       0.720  -1.070   5.021  0.00  0.00    +0.016 A 
ATOM     38  F   UNL     1      -1.613   1.537   4.061  0.00  0.00    -0.205 F 
ENDBRANCH  30  32
BRANCH  29  39
ATOM     39  C   UNL     1       1.071  -5.808   4.053  0.00  0.00    +0.108 C 
BRANCH  39  41
ATOM     40  C   UNL     1       3.030  -7.356   3.969  0.00  0.00    +0.005 C 
ATOM     41  C   UNL     1       2.561  -5.921   3.723  0.00  0.00    +0.016 C 
ENDBRANCH  39  41
ENDBRANCH  29  39
ENDBRANCH  28  29
ENDBRANCH  24  28
ENDBRANCH   1  26
TORSDOF 8
