REMARK  Name = ZINC06922965
REMARK  4 active torsions:
REMARK  status: ('A' for Active; 'I' for Inactive)
REMARK    1  A    between atoms: C_1  and  C_2
REMARK    2  A    between atoms: C_5  and  N_8
REMARK    3  A    between atoms: N_11  and  C_12
REMARK    4  A    between atoms: C_17  and  O_19
REMARK                            x       y       z     vdW  Elec       q    Type
REMARK                         _______ _______ _______ _____ _____    ______ ____
ROOT
ATOM      1  N   UNL     1       2.323   0.998  -0.015  0.00  0.00    -0.269 N 
ATOM      2  C   UNL     1       1.161   1.657   0.165  0.00  0.00    +0.304 C 
ATOM      3  O   UNL     1       1.165   2.862   0.326  0.00  0.00    -0.252 OA
ATOM      4  N   UNL     1      -0.004   0.981   0.167  0.00  0.00    -0.294 N 
ATOM      5  H   UNL     1       2.328   0.029  -0.066  0.00  0.00    +0.156 HD
ATOM      6  H   UNL     1      -0.007   0.019   0.039  0.00  0.00    +0.151 HD
ENDROOT
BRANCH   1  11
ATOM      7  C   UNL     1       7.184   3.887  -0.474  0.00  0.00    +0.044 C 
ATOM      8  C   UNL     1       5.893   3.119  -0.352  0.00  0.00    -0.050 A 
ATOM      9  C   UNL     1       5.885   1.872   0.245  0.00  0.00    +0.005 A 
ATOM     10  C   UNL     1       4.703   1.166   0.359  0.00  0.00    +0.023 A 
ATOM     11  C   UNL     1       3.522   1.710  -0.128  0.00  0.00    +0.035 A 
ATOM     12  C   UNL     1       3.534   2.961  -0.733  0.00  0.00    +0.023 A 
ATOM     13  C   UNL     1       4.718   3.664  -0.837  0.00  0.00    +0.005 A 
ENDBRANCH   1  11
BRANCH   4  14
ATOM     14  C   UNL     1      -1.267   1.698   0.357  0.00  0.00    +0.103 C 
ATOM     15  C   UNL     1      -1.791   2.211  -0.996  0.00  0.00    +0.025 C 
ATOM     16  C   UNL     1      -3.165   1.545  -1.217  0.00  0.00    +0.004 C 
ATOM     17  C   UNL     1      -3.648   1.188   0.210  0.00  0.00    +0.033 C 
ATOM     18  C   UNL     1      -2.341   0.740   0.912  0.00  0.00    +0.135 C 
BRANCH  18  19
ATOM     19  O   UNL     1      -2.458   0.887   2.329  0.00  0.00    -0.390 OA
ATOM     20  H   UNL     1      -3.119   0.307   2.731  0.00  0.00    +0.210 HD
ENDBRANCH  18  19
ENDBRANCH   4  14
TORSDOF 3
