REMARK  Name = ZINC00676474
REMARK  5 active torsions:
REMARK  status: ('A' for Active; 'I' for Inactive)
REMARK    1  A    between atoms: C_4  and  N_7
REMARK    2  A    between atoms: N_10  and  C_11
REMARK    3  A    between atoms: C_14  and  S_17
REMARK    4  A    between atoms: S_17  and  N_20
REMARK    5  A    between atoms: N_20  and  C_21
REMARK                            x       y       z     vdW  Elec       q    Type
REMARK                         _______ _______ _______ _____ _____    ______ ____
ROOT
ATOM      1  C   UNL     1       0.329  -2.764   0.152  0.00  0.00    +0.035 A 
ATOM      2  C   UNL     1       0.662  -2.171   1.363  0.00  0.00    +0.025 A 
ATOM      3  C   UNL     1       0.794  -0.799   1.446  0.00  0.00    +0.030 A 
ATOM      4  C   UNL     1       0.596  -0.015   0.324  0.00  0.00    +0.105 A 
ATOM      5  C   UNL     1       0.259  -0.602  -0.882  0.00  0.00    +0.030 A 
ATOM      6  C   UNL     1       0.130  -1.974  -0.972  0.00  0.00    +0.025 A 
ENDROOT
BRANCH   1  10
ATOM      7  N   UNL     1      -0.307  -6.199   1.075  0.00  0.00    -0.269 N 
ATOM      8  C   UNL     1      -0.274  -4.852   1.120  0.00  0.00    +0.308 C 
ATOM      9  O   UNL     1      -0.666  -4.267   2.111  0.00  0.00    -0.252 OA
ATOM     10  N   UNL     1       0.193  -4.154   0.066  0.00  0.00    -0.269 N 
ATOM     11  H   UNL     1       0.074  -6.668   0.316  0.00  0.00    +0.156 HD
ATOM     12  H   UNL     1       0.435  -4.614  -0.752  0.00  0.00    +0.156 HD
BRANCH   7  16
ATOM     13  C   UNL     1      -2.046  -8.346   4.192  0.00  0.00    +0.000 A 
ATOM     14  C   UNL     1      -2.550  -7.106   3.843  0.00  0.00    +0.002 A 
ATOM     15  C   UNL     1      -1.975  -6.392   2.810  0.00  0.00    +0.023 A 
ATOM     16  C   UNL     1      -0.891  -6.920   2.122  0.00  0.00    +0.035 A 
ATOM     17  C   UNL     1      -0.392  -8.168   2.471  0.00  0.00    +0.023 A 
ATOM     18  C   UNL     1      -0.967  -8.875   3.508  0.00  0.00    +0.002 A 
ENDBRANCH   7  16
ENDBRANCH   1  10
BRANCH   4  19
ATOM     19  S   UNL     1       0.766   1.735   0.433  0.00  0.00    +0.059 S 
ATOM     20  O   UNL     1      -0.005   2.285  -0.626  0.00  0.00    -0.153 OA
ATOM     21  O   UNL     1       0.546   2.081   1.794  0.00  0.00    -0.153 OA
BRANCH  19  22
ATOM     22  N   UNL     1       2.349   2.095   0.103  0.00  0.00    -0.187 NA
ATOM     23  H   UNL     1       2.911   2.483   0.791  0.00  0.00    +0.148 HD
BRANCH  22  24
ATOM     24  C   UNL     1       2.898   1.827  -1.228  0.00  0.00    +0.077 C 
ATOM     25  C   UNL     1       3.589   0.462  -1.229  0.00  0.00    +0.020 C 
ATOM     26  C   UNL     1       4.164   0.182  -2.619  0.00  0.00    +0.002 C 
ATOM     27  C   UNL     1       5.179   1.268  -2.979  0.00  0.00    +0.000 C 
ATOM     28  C   UNL     1       4.489   2.633  -2.978  0.00  0.00    +0.002 C 
ATOM     29  C   UNL     1       3.914   2.913  -1.588  0.00  0.00    +0.020 C 
ENDBRANCH  22  24
ENDBRANCH  19  22
ENDBRANCH   4  19
TORSDOF 5
