REMARK  Name = ZINC01305059
REMARK  12 active torsions:
REMARK  status: ('A' for Active; 'I' for Inactive)
REMARK    1  A    between atoms: C_1  and  C_2
REMARK    2  A    between atoms: C_5  and  N_9
REMARK    3  A    between atoms: C_6  and  C_8
REMARK    4  A    between atoms: C_10  and  C_12
REMARK    5  A    between atoms: C_12  and  S_13
REMARK    6  A    between atoms: S_13  and  C_14
REMARK    7  A    between atoms: C_15  and  C_37
REMARK    8  A    between atoms: C_16  and  C_32
REMARK    9  A    between atoms: C_18  and  C_22
REMARK   10  A    between atoms: C_19  and  C_21
REMARK   11  A    between atoms: N_24  and  C_25
REMARK   12  A    between atoms: C_30  and  C_31
REMARK                            x       y       z     vdW  Elec       q    Type
REMARK                         _______ _______ _______ _____ _____    ______ ____
ROOT
ATOM      1  C   UNL     1       8.777   2.231   0.365  0.00  0.00    +0.080 C 
ATOM      2  C   UNL     1      10.052   1.767   0.469  0.00  0.00    +0.072 C 
ATOM      3  C   UNL     1      11.219   2.708   0.558  0.00  0.00    +0.134 C 
ATOM      4  C   UNL     1      10.761   4.093   0.917  0.00  0.00    +0.047 C 
ATOM      5  C   UNL     1       9.476   4.464   0.802  0.00  0.00    +0.015 C 
ATOM      6  N   UNL     1       8.525   3.585   0.358  0.00  0.00    -0.312 N 
ATOM      7  C   UNL     1       9.073   5.869   1.167  0.00  0.00    +0.061 C 
ATOM      8  H   UNL     1       7.558   3.962  -0.005  0.00  0.00    +0.152 HD
ENDROOT
BRANCH   3   9
ATOM      9  C   UNL     1      11.931   2.750  -0.769  0.00  0.00    +0.118 A 
ATOM     10  C   UNL     1      13.210   2.395  -0.988  0.00  0.00    +0.045 A 
ATOM     11  C   UNL     1      13.459   2.588  -2.366  0.00  0.00    +0.041 A 
ATOM     12  C   UNL     1      12.320   3.058  -2.906  0.00  0.00    +0.195 A 
ATOM     13  O   UNL     1      11.398   3.154  -1.934  0.00  0.00    -0.467 OA
ENDBRANCH   3   9
BRANCH   4  14
ATOM     14  C   UNL     1      11.709   5.032   1.389  0.00  0.00    +0.247 C 
ATOM     15  O   UNL     1      11.355   6.159   1.683  0.00  0.00    -0.270 OA
ATOM     16  N   UNL     1      13.004   4.679   1.511  0.00  0.00    -0.281 N 
ATOM     17  H   UNL     1      13.338   3.687   1.171  0.00  0.00    +0.155 HD
BRANCH  16  18
ATOM     18  C   UNL     1      13.923   5.572   2.070  0.00  0.00    +0.037 A 
ATOM     19  C   UNL     1      13.790   6.937   1.847  0.00  0.00    +0.023 A 
ATOM     20  C   UNL     1      14.699   7.817   2.400  0.00  0.00    +0.002 A 
ATOM     21  C   UNL     1      15.741   7.341   3.175  0.00  0.00    +0.000 A 
ATOM     22  C   UNL     1      15.877   5.984   3.398  0.00  0.00    +0.005 A 
ATOM     23  C   UNL     1      14.968   5.098   2.852  0.00  0.00    -0.029 A 
ATOM     24  C   UNL     1      15.113   3.619   3.101  0.00  0.00    +0.045 C 
ENDBRANCH  16  18
ENDBRANCH   4  14
BRANCH   2  25
ATOM     25  C   UNL     1      10.285   0.354   0.489  0.00  0.00    +0.098 C 
ATOM     26  N   UNL     1      10.471  -0.766   0.505  0.00  0.00    -0.191 NA
ENDBRANCH   2  25
BRANCH   1  27
ATOM     27  S   UNL     1       7.439   1.092   0.247  0.00  0.00    -0.100 S 
BRANCH  27  28
ATOM     28  C   UNL     1       6.050   2.248   0.147  0.00  0.00    +0.171 C 
BRANCH  28  30
ATOM     29  N   UNL     1       3.587   2.133  -0.052  0.00  0.00    -0.285 N 
ATOM     30  C   UNL     1       4.760   1.476   0.036  0.00  0.00    +0.227 C 
ATOM     31  O   UNL     1       4.779   0.263   0.026  0.00  0.00    -0.275 OA
ATOM     32  H   UNL     1       3.575   3.229  -0.135  0.00  0.00    +0.155 HD
BRANCH  29  37
ATOM     33  C   UNL     1      -1.294  -0.759   0.006  0.00  0.00    +0.044 C 
ATOM     34  C   UNL     1       0.003   0.009  -0.010  0.00  0.00    -0.050 A 
ATOM     35  C   UNL     1       1.133  -0.534   0.573  0.00  0.00    +0.005 A 
ATOM     36  C   UNL     1       2.323   0.168   0.561  0.00  0.00    +0.024 A 
ATOM     37  C   UNL     1       2.383   1.419  -0.038  0.00  0.00    +0.036 A 
ATOM     38  C   UNL     1       1.246   1.961  -0.623  0.00  0.00    -0.029 A 
ATOM     39  C   UNL     1       0.059   1.255  -0.607  0.00  0.00    +0.008 A 
ATOM     40  C   UNL     1       1.307   3.319  -1.274  0.00  0.00    +0.045 C 
ENDBRANCH  29  37
ENDBRANCH  28  30
ENDBRANCH  27  28
ENDBRANCH   1  27
TORSDOF 8
