REMARK  Name = ZINC20799769
REMARK  7 active torsions:
REMARK  status: ('A' for Active; 'I' for Inactive)
REMARK    1  A    between atoms: C_1  and  C_2
REMARK    2  A    between atoms: C_5  and  N_22
REMARK    3  A    between atoms: C_7  and  N_8
REMARK    4  A    between atoms: C_9  and  C_11
REMARK    5  A    between atoms: N_13  and  C_14
REMARK    6  A    between atoms: C_17  and  O_20
REMARK    7  A    between atoms: O_20  and  C_21
REMARK                            x       y       z     vdW  Elec       q    Type
REMARK                         _______ _______ _______ _____ _____    ______ ____
ROOT
ATOM      1  N   UNL     1       2.491   3.770   0.291  0.00  0.00    -0.277 N 
ATOM      2  C   UNL     1       2.474   5.072   0.639  0.00  0.00    +0.303 C 
ATOM      3  O   UNL     1       1.444   5.583   1.030  0.00  0.00    -0.265 OA
ATOM      4  H   UNL     1       3.440   3.285   0.021  0.00  0.00    +0.155 HD
ENDROOT
BRANCH   1  11
ATOM      5  C   UNL     1       2.660   0.939   0.496  0.00  0.00    +0.045 C 
ATOM      6  C   UNL     1       1.337   1.651   0.371  0.00  0.00    -0.029 A 
ATOM      7  C   UNL     1       0.162   0.925   0.354  0.00  0.00    +0.007 A 
ATOM      8  C   UNL     1      -1.052   1.573   0.234  0.00  0.00    +0.025 A 
ATOM      9  C   UNL     1      -1.096   2.959   0.141  0.00  0.00    +0.053 A 
ATOM     10  C   UNL     1       0.083   3.691   0.158  0.00  0.00    +0.048 A 
ATOM     11  C   UNL     1       1.302   3.037   0.273  0.00  0.00    +0.039 A 
BRANCH   9  12
ATOM     12  N   UNL     1      -2.324   3.614   0.026  0.00  0.00    -0.207 N 
ATOM     13  C   UNL     1      -2.631   5.001   0.417  0.00  0.00    +0.133 C 
ATOM     14  C   UNL     1      -3.755   5.581  -0.467  0.00  0.00    +0.045 C 
ATOM     15  C   UNL     1      -4.840   4.463  -0.521  0.00  0.00    +0.190 C 
ATOM     16  S   UNL     1      -3.753   2.980  -0.580  0.00  0.00    +0.046 S 
ATOM     17  O   UNL     1      -3.468   2.619  -1.925  0.00  0.00    -0.155 OA
ATOM     18  O   UNL     1      -4.171   2.011   0.371  0.00  0.00    -0.155 OA
ENDBRANCH   9  12
ENDBRANCH   1  11
BRANCH   2  19
ATOM     19  C   UNL     1       3.721   5.886   0.545  0.00  0.00    +0.303 C 
ATOM     20  O   UNL     1       4.751   5.375   0.154  0.00  0.00    -0.265 OA
ATOM     21  N   UNL     1       3.705   7.188   0.893  0.00  0.00    -0.278 N 
ATOM     22  H   UNL     1       2.796   7.629   1.329  0.00  0.00    +0.155 HD
BRANCH  21  23
ATOM     23  C   UNL     1       4.843   7.978   0.700  0.00  0.00    +0.034 A 
ATOM     24  C   UNL     1       5.133   9.007   1.587  0.00  0.00    +0.027 A 
ATOM     25  C   UNL     1       6.259   9.783   1.399  0.00  0.00    +0.047 A 
ATOM     26  C   UNL     1       7.095   9.542   0.318  0.00  0.00    +0.120 A 
ATOM     27  C   UNL     1       6.803   8.518  -0.572  0.00  0.00    +0.047 A 
ATOM     28  C   UNL     1       5.681   7.737  -0.382  0.00  0.00    +0.027 A 
BRANCH  26  29
ATOM     29  O   UNL     1       8.201  10.310   0.130  0.00  0.00    -0.495 OA
ATOM     30  C   UNL     1       8.441  11.347   1.084  0.00  0.00    +0.277 C 
ENDBRANCH  26  29
ENDBRANCH  21  23
ENDBRANCH   2  19
TORSDOF 5
