REMARK  Name = ZINC39665089
REMARK  9 active torsions:
REMARK  status: ('A' for Active; 'I' for Inactive)
REMARK    1  A    between atoms: C_1  and  C_2
REMARK    2  A    between atoms: C_2  and  C_3
REMARK    3  A    between atoms: C_6  and  C_9
REMARK    4  A    between atoms: C_13  and  C_22
REMARK    5  A    between atoms: N_24  and  C_25
REMARK    6  A    between atoms: C_25  and  C_26
REMARK    7  A    between atoms: C_26  and  C_28
REMARK    8  A    between atoms: C_26  and  O_29
REMARK    9  A    between atoms: O_29  and  C_30
REMARK                            x       y       z     vdW  Elec       q    Type
REMARK                         _______ _______ _______ _____ _____    ______ ____
ROOT
ATOM      1  C   UNL     1       2.714  -1.829  -4.775  0.00  0.00    +0.247 C 
ATOM      2  O   UNL     1       2.075  -2.130  -5.765  0.00  0.00    -0.270 OA
ATOM      3  N   UNL     1       4.056  -1.950  -4.778  0.00  0.00    -0.296 N 
ATOM      4  C   UNL     1       4.987  -1.759  -3.641  0.00  0.00    +0.121 C 
ATOM      5  C   UNL     1       6.045  -2.872  -3.812  0.00  0.00    +0.100 C 
ATOM      6  C   UNL     1       6.008  -3.223  -5.309  0.00  0.00    -0.004 C 
ATOM      7  C   UNL     1       4.934  -2.308  -5.917  0.00  0.00    +0.115 C 
ATOM      8  C   UNL     1       5.616  -4.685  -5.499  0.00  0.00    -0.010 C 
ATOM      9  C   UNL     1       5.641  -5.025  -6.992  0.00  0.00    -0.082 C 
ATOM     10  N   UNL     1       6.986  -4.784  -7.528  0.00  0.00    +0.379 N 
ATOM     11  C   UNL     1       7.318  -3.358  -7.425  0.00  0.00    -0.082 C 
ATOM     12  C   UNL     1       7.364  -2.947  -5.951  0.00  0.00    -0.010 C 
ATOM     13  H   UNL     1       7.657  -5.323  -7.003  0.00  0.00    -0.086 HD
ATOM     14  H   UNL     1       7.016  -5.066  -8.496  0.00  0.00    -0.086 HD
ENDROOT
BRANCH   1  18
ATOM     15  C   UNL     1       0.716  -0.401  -1.310  0.00  0.00    -0.048 A 
ATOM     16  C   UNL     1       0.040  -1.199  -2.215  0.00  0.00    +0.004 A 
ATOM     17  C   UNL     1       0.682  -1.666  -3.342  0.00  0.00    +0.013 A 
ATOM     18  C   UNL     1       2.018  -1.332  -3.569  0.00  0.00    +0.037 A 
ATOM     19  C   UNL     1       2.695  -0.526  -2.652  0.00  0.00    +0.013 A 
ATOM     20  C   UNL     1       2.039  -0.061  -1.531  0.00  0.00    +0.004 A 
BRANCH  15  22
ATOM     21  C   UNL     1      -0.655   1.449  -0.391  0.00  0.00    +0.009 C 
ATOM     22  C   UNL     1       0.007   0.106  -0.080  0.00  0.00    +0.032 C 
ENDBRANCH  15  22
ENDBRANCH   1  18
BRANCH   5  23
ATOM     23  C   UNL     1       7.410  -2.363  -3.424  0.00  0.00    +0.218 C 
ATOM     24  O   UNL     1       7.654  -1.177  -3.484  0.00  0.00    -0.275 OA
ATOM     25  N   UNL     1       8.359  -3.226  -3.010  0.00  0.00    -0.312 N 
ATOM     26  H   UNL     1       8.163  -4.175  -2.962  0.00  0.00    +0.149 HD
BRANCH  25  27
ATOM     27  C   UNL     1       9.685  -2.731  -2.634  0.00  0.00    +0.148 C 
BRANCH  27  28
ATOM     28  C   UNL     1      10.566  -3.907  -2.206  0.00  0.00    +0.187 C 
ATOM     29  C   UNL     1      11.908  -3.380  -1.694  0.00  0.00    +0.053 C 
BRANCH  28  30
ATOM     30  O   UNL     1      10.787  -4.768  -3.324  0.00  0.00    -0.488 OA
BRANCH  30  31
ATOM     31  C   UNL     1      11.081  -6.067  -3.054  0.00  0.00    +0.121 A 
ATOM     32  C   UNL     1      11.050  -6.529  -1.746  0.00  0.00    +0.045 A 
ATOM     33  C   UNL     1      11.348  -7.851  -1.474  0.00  0.00    +0.004 A 
ATOM     34  C   UNL     1      11.677  -8.712  -2.504  0.00  0.00    +0.000 A 
ATOM     35  C   UNL     1      11.709  -8.254  -3.809  0.00  0.00    +0.004 A 
ATOM     36  C   UNL     1      11.405  -6.936  -4.086  0.00  0.00    +0.045 A 
ENDBRANCH  30  31
ENDBRANCH  28  30
ENDBRANCH  27  28
ENDBRANCH  25  27
ENDBRANCH   5  23
TORSDOF 7
