REMARK  Name = ZINC27869791
REMARK  6 active torsions:
REMARK  status: ('A' for Active; 'I' for Inactive)
REMARK    1  A    between atoms: C_1  and  C_2
REMARK    2  A    between atoms: C_2  and  C_4
REMARK    3  A    between atoms: C_2  and  N_10
REMARK    4  A    between atoms: C_11  and  C_13
REMARK    5  A    between atoms: C_16  and  C_19
REMARK    6  A    between atoms: C_19  and  N_20
REMARK                            x       y       z     vdW  Elec       q    Type
REMARK                         _______ _______ _______ _____ _____    ______ ____
ROOT
ATOM      1  C   UNL     1      -2.785   2.611  -2.359  0.00  0.00    +0.037 A 
ATOM      2  C   UNL     1      -2.072   2.966  -3.505  0.00  0.00    +0.013 A 
ATOM      3  C   UNL     1      -2.746   3.417  -4.621  0.00  0.00    +0.006 A 
ATOM      4  C   UNL     1      -4.125   3.529  -4.602  0.00  0.00    -0.030 A 
ATOM      5  C   UNL     1      -4.837   3.185  -3.467  0.00  0.00    +0.006 A 
ATOM      6  C   UNL     1      -4.176   2.727  -2.347  0.00  0.00    +0.013 A 
ENDROOT
BRANCH   1   8
ATOM      7  N   UNL     1      -0.727   2.011  -1.176  0.00  0.00    -0.306 N 
ATOM      8  C   UNL     1      -2.070   2.122  -1.161  0.00  0.00    +0.244 C 
ATOM      9  O   UNL     1      -2.694   1.818  -0.163  0.00  0.00    -0.270 OA
ATOM     10  H   UNL     1      -0.163   2.285  -2.080  0.00  0.00    +0.149 HD
BRANCH   7  12
ATOM     11  C   UNL     1       0.002  -0.004   0.002  0.00  0.00    +0.030 C 
ATOM     12  C   UNL     1      -0.019   1.526   0.010  0.00  0.00    +0.099 C 
BRANCH  12  13
ATOM     13  C   UNL     1       1.417   2.055  -0.000  0.00  0.00    +0.138 C 
ATOM     14  C   UNL     1       2.133   1.655   1.304  0.00  0.00    +0.035 C 
ATOM     15  C   UNL     1       3.355   0.833   0.829  0.00  0.00    +0.031 C 
ATOM     16  C   UNL     1       3.511   1.301  -0.640  0.00  0.00    +0.160 C 
ATOM     17  O   UNL     1       2.148   1.464  -1.088  0.00  0.00    -0.375 OA
ENDBRANCH  12  13
ENDBRANCH   7  12
ENDBRANCH   1   8
BRANCH   4  18
ATOM     18  C   UNL     1      -4.854   4.029  -5.823  0.00  0.00    +0.141 C 
BRANCH  18  19
ATOM     19  N   UNL     1      -4.978   5.487  -5.755  0.00  0.00    -0.295 N 
ATOM     20  C   UNL     1      -5.598   6.157  -6.746  0.00  0.00    +0.297 C 
ATOM     21  O   UNL     1      -6.056   5.552  -7.696  0.00  0.00    -0.253 OA
ATOM     22  N   UNL     1      -5.712   7.499  -6.683  0.00  0.00    -0.313 N 
ATOM     23  H   UNL     1      -4.564   6.035  -4.895  0.00  0.00    +0.151 HD
ATOM     24  H   UNL     1      -6.219   8.046  -7.492  0.00  0.00    +0.146 HD
ATOM     25  H   UNL     1      -5.298   8.046  -5.823  0.00  0.00    +0.146 HD
ENDBRANCH  18  19
ENDBRANCH   4  18
TORSDOF 5
