REMARK  Name = ZINC27825402
REMARK  4 active torsions:
REMARK  status: ('A' for Active; 'I' for Inactive)
REMARK    1  A    between atoms: C_1  and  C_2
REMARK    2  A    between atoms: C_5  and  C_8
REMARK    3  A    between atoms: C_17  and  N_21
REMARK    4  A    between atoms: C_18  and  C_19
REMARK                            x       y       z     vdW  Elec       q    Type
REMARK                         _______ _______ _______ _____ _____    ______ ____
ROOT
ATOM      1  C   UNL     1       0.059  -4.275  -0.021  0.00  0.00    +0.106 C 
ATOM      2  C   UNL     1      -1.132  -4.800   0.701  0.00  0.00    +0.067 A 
ATOM      3  C   UNL     1      -1.133  -5.395   1.927  0.00  0.00    +0.235 A 
ATOM      4  N   UNL     1      -2.329  -5.781   2.360  0.00  0.00    -0.190 NA
ATOM      5  C   UNL     1      -3.419  -5.592   1.643  0.00  0.00    +0.160 A 
ATOM      6  N   UNL     1      -4.724  -5.936   1.957  0.00  0.00    -0.337 N 
ATOM      7  S   UNL     1      -2.842  -4.832   0.254  0.00  0.00    -0.053 S 
ATOM      8  O   UNL     1       0.057  -5.547   2.598  0.00  0.00    -0.422 OA
ATOM      9  C   UNL     1       1.200  -5.357   1.919  0.00  0.00    +0.200 C 
ATOM     10  C   UNL     1       1.292  -4.777   0.699  0.00  0.00    +0.099 C 
ATOM     11  H   UNL     1      -4.922  -6.375   2.799  0.00  0.00    +0.144 HD
ATOM     12  H   UNL     1      -5.441  -5.737   1.334  0.00  0.00    +0.144 HD
ENDROOT
BRANCH   1  17
ATOM     13  C   UNL     1      -0.018   1.503   0.010  0.00  0.00    +0.044 C 
ATOM     14  C   UNL     1       0.002  -0.004   0.002  0.00  0.00    -0.050 A 
ATOM     15  C   UNL     1       0.006  -0.689  -1.199  0.00  0.00    +0.003 A 
ATOM     16  C   UNL     1       0.025  -2.071  -1.206  0.00  0.00    +0.005 A 
ATOM     17  C   UNL     1       0.040  -2.768  -0.013  0.00  0.00    -0.034 A 
ATOM     18  C   UNL     1       0.037  -2.084   1.188  0.00  0.00    +0.005 A 
ATOM     19  C   UNL     1       0.023  -0.702   1.195  0.00  0.00    +0.003 A 
ENDBRANCH   1  17
BRANCH   9  20
ATOM     20  N   UNL     1       2.365  -5.787   2.506  0.00  0.00    -0.328 N 
ATOM     21  H   UNL     1       2.341  -6.209   3.379  0.00  0.00    +0.145 HD
ATOM     22  H   UNL     1       3.211  -5.668   2.047  0.00  0.00    +0.145 HD
ENDBRANCH   9  20
BRANCH  10  23
ATOM     23  C   UNL     1       2.576  -4.633   0.081  0.00  0.00    +0.101 C 
ATOM     24  N   UNL     1       3.594  -4.519  -0.409  0.00  0.00    -0.191 NA
ENDBRANCH  10  23
TORSDOF 3
