REMARK  Name = ZINC41645280
REMARK  9 active torsions:
REMARK  status: ('A' for Active; 'I' for Inactive)
REMARK    1  A    between atoms: C_1  and  C_2
REMARK    2  A    between atoms: N_8  and  C_9
REMARK    3  A    between atoms: C_9  and  C_11
REMARK    4  A    between atoms: C_9  and  C_12
REMARK    5  A    between atoms: C_12  and  N_13
REMARK    6  A    between atoms: C_14  and  C_16
REMARK    7  A    between atoms: N_18  and  C_19
REMARK    8  A    between atoms: C_22  and  C_25
REMARK    9  A    between atoms: N_27  and  C_28
REMARK                            x       y       z     vdW  Elec       q    Type
REMARK                         _______ _______ _______ _____ _____    ______ ____
ROOT
ATOM      1  N   UNL     1       2.752  -2.152   2.406  0.00  0.00    -0.309 N 
ATOM      2  C   UNL     1       3.197  -2.957   3.391  0.00  0.00    +0.299 C 
ATOM      3  O   UNL     1       3.762  -2.482   4.354  0.00  0.00    -0.265 OA
ATOM      4  H   UNL     1       2.300  -2.532   1.636  0.00  0.00    +0.149 HD
ENDROOT
BRANCH   2   5
ATOM      5  C   UNL     1       2.997  -4.434   3.296  0.00  0.00    +0.303 C 
ATOM      6  O   UNL     1       2.433  -4.909   2.333  0.00  0.00    -0.265 OA
ATOM      7  N   UNL     1       3.443  -5.239   4.281  0.00  0.00    -0.278 N 
ATOM      8  H   UNL     1       3.828  -4.855   5.084  0.00  0.00    +0.155 HD
BRANCH   7   9
ATOM      9  C   UNL     1       3.351  -6.622   4.145  0.00  0.00    +0.034 A 
ATOM     10  C   UNL     1       3.507  -7.209   2.893  0.00  0.00    +0.024 A 
ATOM     11  C   UNL     1       3.417  -8.576   2.755  0.00  0.00    +0.015 A 
ATOM     12  C   UNL     1       3.168  -9.374   3.875  0.00  0.00    +0.037 A 
ATOM     13  C   UNL     1       3.012  -8.782   5.131  0.00  0.00    +0.015 A 
ATOM     14  C   UNL     1       3.108  -7.415   5.263  0.00  0.00    +0.024 A 
BRANCH  12  15
ATOM     15  C   UNL     1       3.070 -10.840   3.731  0.00  0.00    +0.244 C 
ATOM     16  O   UNL     1       3.205 -11.354   2.638  0.00  0.00    -0.270 OA
ATOM     17  N   UNL     1       2.830 -11.608   4.812  0.00  0.00    -0.314 N 
ATOM     18  C   UNL     1       2.732 -13.063   4.669  0.00  0.00    +0.128 C 
ATOM     19  H   UNL     1       2.722 -11.198   5.684  0.00  0.00    +0.149 HD
ENDBRANCH  12  15
ENDBRANCH   7   9
ENDBRANCH   2   5
BRANCH   1  20
ATOM     20  C   UNL     1       2.948  -0.703   2.499  0.00  0.00    +0.089 C 
BRANCH  20  21
ATOM     21  C   UNL     1       2.214  -0.014   1.347  0.00  0.00    -0.054 C 
ATOM     22  C   UNL     1       2.578   1.472   1.327  0.00  0.00    -0.012 C 
BRANCH  21  29
ATOM     23  C   UNL     1       0.851  -2.065  -0.002  0.00  0.00    -0.013 C 
ATOM     24  C   UNL     1       0.392  -1.571   1.371  0.00  0.00    -0.071 C 
ATOM     25  C   UNL     1      -1.127  -1.717   1.483  0.00  0.00    -0.016 C 
ATOM     26  C   UNL     1      -1.582  -1.222   2.859  0.00  0.00    -0.003 C 
ATOM     27  C   UNL     1      -1.123   0.227   3.047  0.00  0.00    -0.019 C 
ATOM     28  C   UNL     1       0.396   0.301   2.877  0.00  0.00    -0.078 C 
ATOM     29  N   UNL     1       0.764  -0.161   1.533  0.00  0.00    +0.384 N 
ATOM     30  H   UNL     1       0.281   0.395   0.843  0.00  0.00    -0.081 HD
ENDBRANCH  21  29
ENDBRANCH  20  21
ENDBRANCH   1  20
TORSDOF 6
