REMARK  Name = ZINC05010614
REMARK  3 active torsions:
REMARK  status: ('A' for Active; 'I' for Inactive)
REMARK    1  A    between atoms: C_8  and  C_10
REMARK    2  A    between atoms: C_11  and  N_21
REMARK    3  A    between atoms: N_12  and  C_16
REMARK                            x       y       z     vdW  Elec       q    Type
REMARK                         _______ _______ _______ _____ _____    ______ ____
ROOT
ATOM      1  C   UNL     1       2.991  -4.012  -0.048  0.00  0.00    +0.086 C 
ATOM      2  C   UNL     1       4.295  -4.501  -0.057  0.00  0.00    +0.098 C 
ATOM      3  N   UNL     1       4.319  -5.860  -0.065  0.00  0.00    -0.308 N 
ATOM      4  C   UNL     1       2.930  -6.340  -0.061  0.00  0.00    +0.186 C 
ATOM      5  C   UNL     1       2.083  -5.085  -0.044  0.00  0.00    +0.186 C 
ATOM      6  O   UNL     1       0.869  -5.019  -0.031  0.00  0.00    -0.290 OA
ENDROOT
BRANCH   1  14
ATOM      7  C   UNL     1      -0.017   1.366   0.010  0.00  0.00    +0.002 A 
ATOM      8  C   UNL     1       1.156   2.107   0.002  0.00  0.00    +0.001 A 
ATOM      9  C   UNL     1       2.373   1.450  -0.013  0.00  0.00    +0.017 A 
ATOM     10  C   UNL     1       2.402   0.078  -0.021  0.00  0.00    +0.040 A 
ATOM     11  C   UNL     1       1.228  -0.710  -0.013  0.00  0.00    +0.079 A 
ATOM     12  C   UNL     1       0.002  -0.004   0.002  0.00  0.00    +0.029 A 
ATOM     13  N   UNL     1       1.419  -2.046  -0.022  0.00  0.00    -0.239 NA
ATOM     14  C   UNL     1       2.620  -2.587  -0.037  0.00  0.00    +0.116 A 
ATOM     15  S   UNL     1       3.685  -1.151  -0.039  0.00  0.00    -0.067 S 
ENDBRANCH   1  14
BRANCH   3  16
ATOM     16  C   UNL     1       5.519  -6.700  -0.076  0.00  0.00    +0.075 C 
ATOM     17  C   UNL     1       6.409  -6.366   1.139  0.00  0.00    +0.022 C 
ATOM     18  C   UNL     1       7.854  -6.482   0.595  0.00  0.00    +0.002 C 
ATOM     19  C   UNL     1       7.730  -5.898  -0.834  0.00  0.00    +0.002 C 
ATOM     20  C   UNL     1       6.359  -6.402  -1.331  0.00  0.00    +0.022 C 
ENDBRANCH   3  16
BRANCH   2  21
ATOM     21  N   UNL     1       5.409  -3.715  -0.059  0.00  0.00    -0.346 N 
ATOM     22  H   UNL     1       5.321  -2.749  -0.053  0.00  0.00    +0.143 HD
ATOM     23  H   UNL     1       6.290  -4.121  -0.066  0.00  0.00    +0.143 HD
ENDBRANCH   2  21
TORSDOF 3
