REMARK  Name = ZINC04146288
REMARK  10 active torsions:
REMARK  status: ('A' for Active; 'I' for Inactive)
REMARK    1  A    between atoms: C_1  and  C_2
REMARK    2  A    between atoms: C_2  and  N_3
REMARK    3  A    between atoms: C_4  and  C_35
REMARK    4  A    between atoms: C_5  and  C_31
REMARK    5  A    between atoms: C_6  and  C_11
REMARK    6  A    between atoms: C_15  and  N_17
REMARK    7  A    between atoms: N_17  and  S_18
REMARK    8  A    between atoms: S_18  and  C_21
REMARK    9  A    between atoms: C_31  and  O_33
REMARK   10  A    between atoms: O_33  and  C_34
REMARK                            x       y       z     vdW  Elec       q    Type
REMARK                         _______ _______ _______ _____ _____    ______ ____
ROOT
ATOM      1  C   UNL     1       2.898   4.817   1.945  0.00  0.00    -0.021 A 
ATOM      2  C   UNL     1       2.855   4.085   3.118  0.00  0.00    +0.006 A 
ATOM      3  C   UNL     1       3.512   4.542   4.246  0.00  0.00    +0.002 A 
ATOM      4  C   UNL     1       4.203   5.737   4.208  0.00  0.00    +0.024 A 
ATOM      5  C   UNL     1       4.244   6.477   3.033  0.00  0.00    +0.048 A 
ATOM      6  C   UNL     1       3.587   6.013   1.900  0.00  0.00    +0.030 A 
ENDROOT
BRANCH   1  10
ATOM      7  N   UNL     1       0.060   2.544   0.669  0.00  0.00    -0.286 N 
ATOM      8  C   UNL     1      -0.229   3.876   0.748  0.00  0.00    +0.021 C 
ATOM      9  C   UNL     1       0.753   4.802   0.772  0.00  0.00    +0.078 C 
ATOM     10  C   UNL     1       2.186   4.312   0.716  0.00  0.00    +0.141 C 
ATOM     11  N   UNL     1       2.391   2.856   0.639  0.00  0.00    -0.315 N 
ATOM     12  C   UNL     1       1.306   2.056   0.623  0.00  0.00    +0.138 C 
ATOM     13  S   UNL     1       1.528   0.361   0.534  0.00  0.00    -0.018 S 
ATOM     14  C   UNL     1      -1.668   4.319   0.801  0.00  0.00    +0.061 C 
ATOM     15  H   UNL     1       3.410   2.445   0.596  0.00  0.00    +0.149 HD
BRANCH   7  17
ATOM     16  C   UNL     1      -1.514   1.303   2.070  0.00  0.00    +0.025 C 
ATOM     17  C   UNL     1      -1.056   1.595   0.640  0.00  0.00    +0.109 C 
ENDBRANCH   7  17
BRANCH   9  18
ATOM     18  C   UNL     1       0.455   6.183   0.848  0.00  0.00    +0.339 C 
ATOM     19  O   UNL     1      -0.703   6.556   0.842  0.00  0.00    -0.245 OA
BRANCH  18  20
ATOM     20  O   UNL     1       1.455   7.086   0.927  0.00  0.00    -0.465 OA
ATOM     21  C   UNL     1       1.081   8.463   1.000  0.00  0.00    +0.280 C 
ENDBRANCH  18  20
ENDBRANCH   9  18
ENDBRANCH   1  10
BRANCH   5  22
ATOM     22  N   UNL     1       4.941   7.686   2.992  0.00  0.00    -0.216 N 
ATOM     23  H   UNL     1       5.602   7.911   2.142  0.00  0.00    +0.174 HD
BRANCH  22  24
ATOM     24  S   UNL     1       4.774   8.782   4.223  0.00  0.00    +0.072 S 
ATOM     25  O   UNL     1       5.011   8.074   5.431  0.00  0.00    -0.150 OA
ATOM     26  O   UNL     1       5.527   9.928   3.851  0.00  0.00    -0.150 OA
BRANCH  24  27
ATOM     27  C   UNL     1       3.083   9.278   4.252  0.00  0.00    +0.109 A 
ATOM     28  C   UNL     1       2.663  10.330   3.442  0.00  0.00    +0.029 A 
ATOM     29  C   UNL     1       1.363  10.735   3.437  0.00  0.00    +0.010 A 
ATOM     30  C   UNL     1       0.431  10.091   4.269  0.00  0.00    -0.018 A 
ATOM     31  C   UNL     1      -0.917  10.485   4.296  0.00  0.00    +0.008 A 
ATOM     32  C   UNL     1      -1.791   9.838   5.114  0.00  0.00    +0.001 A 
ATOM     33  C   UNL     1      -1.369   8.789   5.929  0.00  0.00    +0.001 A 
ATOM     34  C   UNL     1      -0.071   8.380   5.930  0.00  0.00    +0.008 A 
ATOM     35  C   UNL     1       0.861   9.024   5.097  0.00  0.00    -0.016 A 
ATOM     36  C   UNL     1       2.209   8.631   5.071  0.00  0.00    +0.037 A 
ENDBRANCH  24  27
ENDBRANCH  22  24
ENDBRANCH   5  22
TORSDOF 7
