REMARK  Name = ZINC41251280
REMARK  6 active torsions:
REMARK  status: ('A' for Active; 'I' for Inactive)
REMARK    1  A    between atoms: C_9  and  N_11
REMARK    2  A    between atoms: C_12  and  C_14
REMARK    3  A    between atoms: N_17  and  C_20
REMARK    4  A    between atoms: C_20  and  C_21
REMARK    5  A    between atoms: C_23  and  C_26
REMARK    6  A    between atoms: C_29  and  C_32
REMARK                            x       y       z     vdW  Elec       q    Type
REMARK                         _______ _______ _______ _____ _____    ______ ____
ROOT
ATOM      1  C   UNL     1       5.689  -0.302   3.082  0.00  0.00    +0.071 C 
ATOM      2  C   UNL     1       4.587  -0.155   4.134  0.00  0.00    -0.006 C 
ATOM      3  C   UNL     1       5.213  -0.197   5.530  0.00  0.00    -0.077 C 
ATOM      4  N   UNL     1       6.176   0.901   5.671  0.00  0.00    +0.386 N 
ATOM      5  C   UNL     1       7.274   0.728   4.713  0.00  0.00    -0.077 C 
ATOM      6  C   UNL     1       6.727   0.805   3.286  0.00  0.00    -0.006 C 
ATOM      7  H   UNL     1       5.712   1.780   5.494  0.00  0.00    -0.081 HD
ENDROOT
BRANCH   1   9
ATOM      8  N   UNL     1       4.147  -1.058   1.302  0.00  0.00    -0.308 N 
ATOM      9  C   UNL     1       5.090  -0.183   1.704  0.00  0.00    +0.216 C 
ATOM     10  O   UNL     1       5.456   0.700   0.958  0.00  0.00    -0.276 OA
ATOM     11  H   UNL     1       3.854  -1.764   1.899  0.00  0.00    +0.149 HD
BRANCH   8  20
ATOM     12  C   UNL     1      -0.017   1.377   0.010  0.00  0.00    +0.000 A 
ATOM     13  C   UNL     1       1.172   2.083   0.002  0.00  0.00    +0.000 A 
ATOM     14  C   UNL     1       2.376   1.406  -0.013  0.00  0.00    +0.006 A 
ATOM     15  C   UNL     1       2.396   0.021  -0.021  0.00  0.00    -0.024 A 
ATOM     16  C   UNL     1       1.208  -0.685  -0.013  0.00  0.00    -0.042 A 
ATOM     17  C   UNL     1       0.002  -0.004   0.002  0.00  0.00    +0.004 A 
ATOM     18  C   UNL     1       1.496  -2.171  -0.025  0.00  0.00    +0.037 C 
ATOM     19  C   UNL     1       2.966  -2.294  -0.480  0.00  0.00    +0.032 C 
ATOM     20  C   UNL     1       3.564  -0.942  -0.037  0.00  0.00    +0.104 C 
ENDBRANCH   8  20
ENDBRANCH   1   9
BRANCH   4  21
ATOM     21  C   UNL     1       6.717   0.904   7.037  0.00  0.00    +0.022 C 
BRANCH  21  22
ATOM     22  C   UNL     1       7.612   2.102   7.221  0.00  0.00    +0.211 A 
ATOM     23  N   UNL     1       7.236   3.275   7.646  0.00  0.00    -0.193 NA
ATOM     24  C   UNL     1       8.291   4.109   7.690  0.00  0.00    +0.202 A 
ATOM     25  N   UNL     1       9.355   3.459   7.287  0.00  0.00    -0.056 NA
ATOM     26  O   UNL     1       8.929   2.140   6.981  0.00  0.00    -0.340 OA
BRANCH  24  27
ATOM     27  C   UNL     1       8.255   5.528   8.121  0.00  0.00    +0.022 A 
ATOM     28  C   UNL     1       7.055   6.104   8.533  0.00  0.00    +0.012 A 
ATOM     29  C   UNL     1       7.027   7.424   8.934  0.00  0.00    +0.013 A 
ATOM     30  C   UNL     1       8.188   8.176   8.926  0.00  0.00    +0.055 A 
ATOM     31  C   UNL     1       9.382   7.610   8.518  0.00  0.00    +0.013 A 
ATOM     32  C   UNL     1       9.422   6.289   8.121  0.00  0.00    +0.012 A 
BRANCH  30  33
ATOM     33  C   UNL     1       8.151   9.618   9.363  0.00  0.00    +0.417 C 
ATOM     34  F   UNL     1       8.388   9.694  10.740  0.00  0.00    -0.166 F 
ATOM     35  F   UNL     1       9.137  10.338   8.680  0.00  0.00    -0.166 F 
ATOM     36  F   UNL     1       6.894  10.161   9.075  0.00  0.00    -0.166 F 
ENDBRANCH  30  33
ENDBRANCH  24  27
ENDBRANCH  21  22
ENDBRANCH   4  21
TORSDOF 6
