REMARK  Name = ZINC16098442
REMARK  7 active torsions:
REMARK  status: ('A' for Active; 'I' for Inactive)
REMARK    1  A    between atoms: C_1  and  C_2
REMARK    2  A    between atoms: C_5  and  C_29
REMARK    3  A    between atoms: C_6  and  S_8
REMARK    4  A    between atoms: S_8  and  N_11
REMARK    5  A    between atoms: N_11  and  C_12
REMARK    6  A    between atoms: C_15  and  S_18
REMARK    7  A    between atoms: S_18  and  N_21
REMARK                            x       y       z     vdW  Elec       q    Type
REMARK                         _______ _______ _______ _____ _____    ______ ____
ROOT
ATOM      1  C   UNL     1       4.335   3.084   1.970  0.00  0.00    +0.048 A 
ATOM      2  C   UNL     1       3.659   1.871   2.022  0.00  0.00    +0.026 A 
ATOM      3  C   UNL     1       4.311   0.739   2.470  0.00  0.00    +0.031 A 
ATOM      4  C   UNL     1       5.630   0.813   2.876  0.00  0.00    +0.113 A 
ATOM      5  C   UNL     1       6.304   2.020   2.830  0.00  0.00    +0.031 A 
ATOM      6  C   UNL     1       5.660   3.155   2.379  0.00  0.00    +0.026 A 
ENDROOT
BRANCH   4   7
ATOM      7  S   UNL     1       6.456  -0.633   3.453  0.00  0.00    +0.100 S 
ATOM      8  O   UNL     1       5.774  -1.743   2.885  0.00  0.00    -0.146 OA
ATOM      9  O   UNL     1       7.846  -0.411   3.259  0.00  0.00    -0.146 OA
BRANCH   7  10
ATOM     10  N   UNL     1       6.213  -0.715   5.089  0.00  0.00    -0.118 NA
ATOM     11  C   UNL     1       6.718  -1.692   5.769  0.00  0.00    +0.117 C 
ATOM     12  C   UNL     1       7.500  -2.727   5.126  0.00  0.00    +0.073 C 
ATOM     13  C   UNL     1       6.984  -4.140   5.439  0.00  0.00    +0.008 C 
ATOM     14  C   UNL     1       7.479  -4.479   6.817  0.00  0.00    +0.002 C 
ATOM     15  C   UNL     1       6.437  -4.183   7.924  0.00  0.00    +0.019 C 
ATOM     16  C   UNL     1       5.707  -2.860   7.634  0.00  0.00    +0.102 C 
ATOM     17  N   UNL     1       6.533  -1.783   7.157  0.00  0.00    -0.331 N 
ATOM     18  H   UNL     1       6.943  -1.147   7.765  0.00  0.00    +0.147 HD
ENDBRANCH   7  10
ENDBRANCH   4   7
BRANCH   1  19
ATOM     19  N   UNL     1       3.681   4.230   1.512  0.00  0.00    -0.216 N 
ATOM     20  H   UNL     1       3.755   5.061   2.007  0.00  0.00    +0.174 HD
BRANCH  19  21
ATOM     21  S   UNL     1       2.778   4.171   0.125  0.00  0.00    +0.073 S 
ATOM     22  O   UNL     1       2.341   5.498  -0.132  0.00  0.00    -0.150 OA
ATOM     23  O   UNL     1       1.873   3.086   0.276  0.00  0.00    -0.150 OA
BRANCH  21  29
ATOM     24  C   UNL     1       4.375   0.896  -3.623  0.00  0.00    +0.044 C 
ATOM     25  C   UNL     1       4.558   2.200  -2.890  0.00  0.00    -0.049 A 
ATOM     26  C   UNL     1       5.579   3.059  -3.253  0.00  0.00    +0.004 A 
ATOM     27  C   UNL     1       5.750   4.253  -2.577  0.00  0.00    +0.005 A 
ATOM     28  C   UNL     1       4.894   4.593  -1.547  0.00  0.00    -0.024 A 
ATOM     29  C   UNL     1       3.870   3.737  -1.188  0.00  0.00    +0.112 A 
ATOM     30  C   UNL     1       3.702   2.540  -1.860  0.00  0.00    +0.032 A 
ATOM     31  C   UNL     1       5.077   5.898  -0.815  0.00  0.00    +0.046 C 
ENDBRANCH  21  29
ENDBRANCH  19  21
ENDBRANCH   1  19
TORSDOF 5
