REMARK  Name = ZINC62828311
REMARK  6 active torsions:
REMARK  status: ('A' for Active; 'I' for Inactive)
REMARK    1  A    between atoms: C_1  and  C_2
REMARK    2  A    between atoms: C_5  and  C_7
REMARK    3  A    between atoms: C_7  and  C_9
REMARK    4  A    between atoms: C_7  and  N_10
REMARK    5  A    between atoms: N_13  and  C_14
REMARK    6  A    between atoms: C_15  and  C_19
REMARK                            x       y       z     vdW  Elec       q    Type
REMARK                         _______ _______ _______ _____ _____    ______ ____
ROOT
ATOM      1  N   UNL     1       2.811  -2.961  -0.914  0.00  0.00    -0.290 N 
ATOM      2  C   UNL     1       3.494  -3.975  -1.482  0.00  0.00    +0.305 C 
ATOM      3  O   UNL     1       3.174  -5.125  -1.254  0.00  0.00    -0.252 OA
ATOM      4  N   UNL     1       4.531  -3.713  -2.302  0.00  0.00    -0.263 N 
ATOM      5  H   UNL     1       3.066  -2.043  -1.096  0.00  0.00    +0.151 HD
ATOM      6  H   UNL     1       4.786  -2.795  -2.484  0.00  0.00    +0.157 HD
ENDROOT
BRANCH   4   7
ATOM      7  C   UNL     1       5.232  -4.755  -2.885  0.00  0.00    +0.087 A 
ATOM      8  C   UNL     1       6.322  -4.677  -3.745  0.00  0.00    +0.092 A 
ATOM      9  C   UNL     1       6.867  -5.933  -4.211  0.00  0.00    +0.024 A 
ATOM     10  C   UNL     1       6.255  -7.042  -3.758  0.00  0.00    +0.048 A 
ATOM     11  S   UNL     1       4.966  -6.402  -2.711  0.00  0.00    -0.081 S 
BRANCH   8  12
ATOM     12  C   UNL     1       6.870  -3.432  -4.144  0.00  0.00    +0.389 C 
ATOM     13  O   UNL     1       7.831  -3.401  -4.904  0.00  0.00    -0.241 OA
ATOM     14  O   UNL     1       6.382  -2.387  -3.731  0.00  0.00    -0.241 OA
ENDBRANCH   8  12
ENDBRANCH   4   7
BRANCH   1  15
ATOM     15  C   UNL     1       1.684  -3.245  -0.023  0.00  0.00    +0.137 C 
ATOM     16  C   UNL     1       2.205  -3.494   1.394  0.00  0.00    +0.036 C 
BRANCH  15  21
ATOM     17  C   UNL     1      -0.018   1.503   0.010  0.00  0.00    +0.086 C 
ATOM     18  C   UNL     1       0.002  -0.004   0.002  0.00  0.00    +0.102 A 
ATOM     19  C   UNL     1      -1.078  -0.805   0.003  0.00  0.00    +0.045 A 
ATOM     20  C   UNL     1      -0.601  -2.136  -0.007  0.00  0.00    +0.047 A 
ATOM     21  C   UNL     1       0.742  -2.069  -0.013  0.00  0.00    +0.125 A 
ATOM     22  O   UNL     1       1.102  -0.775  -0.013  0.00  0.00    -0.463 OA
ENDBRANCH  15  21
ENDBRANCH   1  15
TORSDOF 4
