REMARK  Name = ZINC16572736
REMARK  9 active torsions:
REMARK  status: ('A' for Active; 'I' for Inactive)
REMARK    1  A    between atoms: C_1  and  C_2
REMARK    2  A    between atoms: C_2  and  C_3
REMARK    3  A    between atoms: C_3  and  C_5
REMARK    4  A    between atoms: C_3  and  C_6
REMARK    5  A    between atoms: C_6  and  C_8
REMARK    6  A    between atoms: C_6  and  N_23
REMARK    7  A    between atoms: C_14  and  C_16
REMARK    8  A    between atoms: N_26  and  C_27
REMARK    9  A    between atoms: C_30  and  C_33
REMARK                            x       y       z     vdW  Elec       q    Type
REMARK                         _______ _______ _______ _____ _____    ______ ____
ROOT
ATOM      1  C   UNL     1      -2.122  -3.269  -0.292  0.00  0.00    +0.163 C 
ENDROOT
BRANCH   1   2
ATOM      2  C   UNL     1      -1.038  -2.223  -0.248  0.00  0.00    +0.239 C 
ATOM      3  O   UNL     1       0.120  -2.556  -0.108  0.00  0.00    -0.273 OA
ATOM      4  N   UNL     1      -1.354  -0.918  -0.364  0.00  0.00    -0.262 N 
ATOM      5  C   UNL     1      -0.354   0.046  -0.323  0.00  0.00    +0.188 A 
ATOM      6  N   UNL     1       0.953  -0.103  -0.179  0.00  0.00    -0.125 NA
ATOM      7  N   UNL     1       1.739   0.885  -0.162  0.00  0.00    -0.140 NA
ATOM      8  C   UNL     1       1.269   2.119  -0.289  0.00  0.00    +0.134 A 
ATOM      9  S   UNL     1      -0.480   1.776  -0.446  0.00  0.00    -0.030 S 
ATOM     10  H   UNL     1      -2.280  -0.652  -0.476  0.00  0.00    +0.157 HD
BRANCH   8  11
ATOM     11  C   UNL     1       1.987   3.412  -0.298  0.00  0.00    +0.010 A 
ATOM     12  C   UNL     1       3.375   3.443  -0.158  0.00  0.00    +0.011 A 
ATOM     13  C   UNL     1       4.039   4.652  -0.167  0.00  0.00    +0.002 A 
ATOM     14  C   UNL     1       3.333   5.832  -0.317  0.00  0.00    +0.015 A 
ATOM     15  C   UNL     1       1.956   5.809  -0.457  0.00  0.00    +0.019 A 
ATOM     16  C   UNL     1       1.280   4.605  -0.454  0.00  0.00    +0.026 A 
ATOM     17 BR   UNL     1       1.000   7.427  -0.660  0.00  0.00    -0.050 Br
ENDBRANCH   8  11
ENDBRANCH   1   2
BRANCH   1  18
ATOM     18  N   UNL     1      -1.525  -4.598  -0.146  0.00  0.00    -0.288 N 
ATOM     19  C   UNL     1      -2.260  -5.617   0.340  0.00  0.00    +0.304 C 
ATOM     20  O   UNL     1      -3.420  -5.434   0.658  0.00  0.00    -0.252 OA
ATOM     21  N   UNL     1      -1.711  -6.841   0.475  0.00  0.00    -0.269 N 
ATOM     22  H   UNL     1      -0.600  -4.745  -0.399  0.00  0.00    +0.151 HD
ATOM     23  H   UNL     1      -0.812  -7.007   0.151  0.00  0.00    +0.156 HD
BRANCH  21  24
ATOM     24  C   UNL     1      -2.437  -7.871   1.082  0.00  0.00    +0.035 A 
ATOM     25  C   UNL     1      -3.326  -7.584   2.110  0.00  0.00    +0.023 A 
ATOM     26  C   UNL     1      -4.045  -8.602   2.704  0.00  0.00    +0.005 A 
ATOM     27  C   UNL     1      -3.873  -9.909   2.284  0.00  0.00    -0.050 A 
ATOM     28  C   UNL     1      -2.985 -10.199   1.265  0.00  0.00    +0.005 A 
ATOM     29  C   UNL     1      -2.267  -9.184   0.663  0.00  0.00    +0.023 A 
ATOM     30  C   UNL     1      -4.655 -11.018   2.938  0.00  0.00    +0.044 C 
ENDBRANCH  21  24
ENDBRANCH   1  18
BRANCH   1  31
ATOM     31  C   UNL     1      -2.857  -3.184  -1.632  0.00  0.00    +0.015 C 
ATOM     32  C   UNL     1      -4.036  -4.159  -1.629  0.00  0.00    +0.010 C 
BRANCH  31  34
ATOM     33  C   UNL     1      -2.594  -3.345  -4.111  0.00  0.00    +0.004 C 
ATOM     34  C   UNL     1      -1.896  -3.549  -2.765  0.00  0.00    +0.002 C 
ENDBRANCH  31  34
ENDBRANCH   1  31
TORSDOF 6
