REMARK  Name = ZINC63384076
REMARK  6 active torsions:
REMARK  status: ('A' for Active; 'I' for Inactive)
REMARK    1  A    between atoms: C_1  and  C_2
REMARK    2  A    between atoms: C_2  and  N_3
REMARK    3  A    between atoms: C_16  and  C_18
REMARK    4  A    between atoms: N_24  and  C_27
REMARK    5  A    between atoms: C_29  and  C_34
REMARK    6  A    between atoms: C_31  and  C_33
REMARK                            x       y       z     vdW  Elec       q    Type
REMARK                         _______ _______ _______ _____ _____    ______ ____
ROOT
ATOM      1  C   UNL     1       0.083  -1.973   1.246  0.00  0.00    +0.071 A 
ATOM      2  H   UNL     1       1.098  -4.911   2.154  0.00  0.00    +0.173 HD
ATOM      3  C   UNL     1       0.553  -3.246   1.117  0.00  0.00    +0.259 A 
ATOM      4  N   UNL     1       0.764  -4.005   2.241  0.00  0.00    -0.274 N 
ATOM      5  C   UNL     1       0.510  -3.500   3.462  0.00  0.00    +0.337 A 
ATOM      6  O   UNL     1       0.704  -4.187   4.446  0.00  0.00    -0.246 OA
ATOM      7  N   UNL     1       0.046  -2.245   3.610  0.00  0.00    -0.229 N 
ATOM      8  C   UNL     1      -0.169  -1.464   2.532  0.00  0.00    +0.266 A 
ATOM      9  O   UNL     1      -0.585  -0.327   2.672  0.00  0.00    -0.267 OA
ATOM     10  O   UNL     1       0.808  -3.757  -0.106  0.00  0.00    -0.267 OA
ENDROOT
BRANCH   1  23
ATOM     11  N   UNL     1       0.592   0.141   0.149  0.00  0.00    +0.386 N 
ATOM     12  C   UNL     1       0.539   0.933  -1.082  0.00  0.00    -0.073 C 
ATOM     13  C   UNL     1      -0.899   1.413  -1.349  0.00  0.00    +0.015 C 
ATOM     14  C   UNL     1      -1.773   0.186  -1.254  0.00  0.00    -0.041 C 
ATOM     15  C   UNL     1      -2.713  -0.307  -2.046  0.00  0.00    -0.001 A 
ATOM     16  C   UNL     1      -3.364   0.230  -3.252  0.00  0.00    +0.010 A 
ATOM     17  C   UNL     1      -4.288  -0.572  -3.843  0.00  0.00    +0.001 A 
ATOM     18  C   UNL     1      -4.627  -1.840  -3.360  0.00  0.00    +0.002 A 
ATOM     19  C   UNL     1      -4.089  -2.408  -2.252  0.00  0.00    +0.026 A 
ATOM     20  C   UNL     1      -3.111  -1.657  -1.538  0.00  0.00    +0.043 A 
ATOM     21  N   UNL     1      -2.465  -1.941  -0.445  0.00  0.00    -0.379 N 
ATOM     22  C   UNL     1      -1.645  -0.786  -0.085  0.00  0.00    +0.097 C 
ATOM     23  C   UNL     1      -0.156  -1.120   0.027  0.00  0.00    -0.000 C 
ATOM     24  H   UNL     1      -2.519  -2.775   0.047  0.00  0.00    +0.160 HD
ATOM     25  H   UNL     1       0.199   0.684   0.904  0.00  0.00    -0.081 HD
BRANCH  11  27
ATOM     26  C   UNL     1       2.756   1.138   0.714  0.00  0.00    -0.017 C 
ATOM     27  C   UNL     1       1.995  -0.164   0.461  0.00  0.00    -0.081 C 
ENDBRANCH  11  27
ENDBRANCH   1  23
BRANCH   7  28
ATOM     28  C   UNL     1      -0.209  -1.745   4.893  0.00  0.00    +0.055 A 
ATOM     29  C   UNL     1      -1.464  -1.906   5.466  0.00  0.00    +0.029 A 
ATOM     30  C   UNL     1      -1.712  -1.412   6.731  0.00  0.00    -0.048 A 
ATOM     31  C   UNL     1      -0.714  -0.757   7.428  0.00  0.00    +0.006 A 
ATOM     32  C   UNL     1       0.537  -0.595   6.861  0.00  0.00    -0.048 A 
ATOM     33  C   UNL     1       0.794  -1.092   5.598  0.00  0.00    +0.029 A 
ATOM     34  C   UNL     1       1.623   0.120   7.623  0.00  0.00    +0.044 C 
ATOM     35  C   UNL     1      -3.074  -1.587   7.353  0.00  0.00    +0.044 C 
ENDBRANCH   7  28
TORSDOF 3
