REMARK  Name = ZINC22076908
REMARK  10 active torsions:
REMARK  status: ('A' for Active; 'I' for Inactive)
REMARK    1  A    between atoms: C_1  and  C_2
REMARK    2  A    between atoms: C_2  and  C_4
REMARK    3  A    between atoms: C_2  and  N_14
REMARK    4  A    between atoms: N_14  and  C_15
REMARK    5  A    between atoms: C_15  and  C_16
REMARK    6  A    between atoms: C_18  and  O_31
REMARK    7  A    between atoms: C_19  and  O_23
REMARK    8  A    between atoms: O_23  and  C_24
REMARK    9  A    between atoms: C_24  and  C_25
REMARK   10  A    between atoms: O_31  and  C_32
REMARK                            x       y       z     vdW  Elec       q    Type
REMARK                         _______ _______ _______ _____ _____    ______ ____
ROOT
ATOM      1  C   UNL     1      -4.399   1.394   0.537  0.00  0.00    -0.060 A 
ATOM      2  C   UNL     1      -4.814   0.506  -0.438  0.00  0.00    +0.051 A 
ATOM      3  C   UNL     1      -6.100  -0.007  -0.406  0.00  0.00    +0.163 A 
ATOM      4  C   UNL     1      -6.976   0.381   0.603  0.00  0.00    +0.176 A 
ATOM      5  C   UNL     1      -6.556   1.276   1.574  0.00  0.00    +0.063 A 
ATOM      6  C   UNL     1      -5.269   1.781   1.540  0.00  0.00    +0.021 A 
ATOM      7 BR   UNL     1      -7.743   1.807   2.948  0.00  0.00    -0.046 Br
ENDROOT
BRANCH   3   8
ATOM      8  O   UNL     1      -6.508  -0.885  -1.361  0.00  0.00    -0.491 OA
ATOM      9  C   UNL     1      -5.555  -1.239  -2.366  0.00  0.00    +0.277 C 
ENDBRANCH   3   8
BRANCH   1  10
ATOM     10  C   UNL     1      -2.997   1.947   0.504  0.00  0.00    -0.046 C 
BRANCH  10  11
ATOM     11  N   UNL     1      -2.107   1.071   1.277  0.00  0.00    +0.384 N 
ATOM     12  H   UNL     1      -2.130   0.064   0.834  0.00  0.00    -0.085 HD
ATOM     13  H   UNL     1      -2.472   1.023   2.314  0.00  0.00    -0.085 HD
BRANCH  11  15
ATOM     14  C   UNL     1      -0.013   1.086   0.008  0.00  0.00    -0.013 C 
ATOM     15  C   UNL     1      -0.729   1.579   1.267  0.00  0.00    -0.068 C 
BRANCH  15  16
ATOM     16  C   UNL     1       0.011   1.072   2.506  0.00  0.00    -0.041 C 
ATOM     17  C   UNL     1       0.032  -0.457   2.498  0.00  0.00    +0.009 C 
ATOM     18  C   UNL     1       0.772  -0.964   3.737  0.00  0.00    -0.010 C 
ATOM     19  C   UNL     1       2.207  -0.435   3.727  0.00  0.00    +0.007 C 
ATOM     20  C   UNL     1       2.187   1.095   3.735  0.00  0.00    -0.010 C 
ATOM     21  C   UNL     1       1.446   1.602   2.495  0.00  0.00    +0.009 C 
ATOM     22  C   UNL     1       1.470   1.589   4.994  0.00  0.00    +0.007 C 
ATOM     23  C   UNL     1       0.035   1.059   5.005  0.00  0.00    -0.010 C 
ATOM     24  C   UNL     1       0.056  -0.471   4.996  0.00  0.00    +0.007 C 
ATOM     25  C   UNL     1      -0.705   1.566   3.765  0.00  0.00    +0.009 C 
ENDBRANCH  15  16
ENDBRANCH  11  15
ENDBRANCH  10  11
ENDBRANCH   1  10
BRANCH   4  26
ATOM     26  O   UNL     1      -8.242  -0.116   0.636  0.00  0.00    -0.483 OA
BRANCH  26  27
ATOM     27  C   UNL     1      -9.245   0.617  -0.069  0.00  0.00    +0.266 C 
BRANCH  27  28
ATOM     28  C   UNL     1     -10.573  -0.080   0.078  0.00  0.00    +0.008 A 
ATOM     29  C   UNL     1     -10.969  -1.039  -0.841  0.00  0.00    +0.010 A 
ATOM     30  C   UNL     1     -12.197  -1.658  -0.663  0.00  0.00    +0.020 A 
ATOM     31  C   UNL     1     -12.985  -1.293   0.413  0.00  0.00    +0.111 A 
ATOM     32  N   UNL     1     -12.579  -0.372   1.265  0.00  0.00    -0.263 NA
ATOM     33  C   UNL     1     -11.415   0.233   1.129  0.00  0.00    +0.117 A 
ENDBRANCH  27  28
ENDBRANCH  26  27
ENDBRANCH   4  26
TORSDOF 8
