REMARK  Name = ZINC32921852
REMARK  8 active torsions:
REMARK  status: ('A' for Active; 'I' for Inactive)
REMARK    1  A    between atoms: C_1  and  C_2
REMARK    2  A    between atoms: C_4  and  S_9
REMARK    3  A    between atoms: S_9  and  N_12
REMARK    4  A    between atoms: N_12  and  C_13
REMARK    5  A    between atoms: C_16  and  C_19
REMARK    6  A    between atoms: N_21  and  C_22
REMARK    7  A    between atoms: C_22  and  C_23
REMARK    8  A    between atoms: C_23  and  C_24
REMARK                            x       y       z     vdW  Elec       q    Type
REMARK                         _______ _______ _______ _____ _____    ______ ____
ROOT
ATOM      1  C   UNL     1       1.236  -0.689   0.010  0.00  0.00    +0.048 A 
ATOM      2  C   UNL     1       0.036   0.011   0.098  0.00  0.00    +0.025 A 
ATOM      3  C   UNL     1       0.040   1.387   0.129  0.00  0.00    +0.015 A 
ATOM      4  C   UNL     1       1.251   2.082   0.071  0.00  0.00    +0.037 A 
ATOM      5  C   UNL     1       2.455   1.377  -0.018  0.00  0.00    +0.015 A 
ATOM      6  C   UNL     1       2.444   0.001  -0.048  0.00  0.00    +0.025 A 
ENDROOT
BRANCH   4   7
ATOM      7  C   UNL     1       1.259   3.557   0.103  0.00  0.00    +0.244 C 
ATOM      8  O   UNL     1       0.211   4.169   0.180  0.00  0.00    -0.270 OA
ATOM      9  N   UNL     1       2.428   4.226   0.048  0.00  0.00    -0.311 N 
ATOM     10  H   UNL     1       3.376   3.672  -0.022  0.00  0.00    +0.149 HD
BRANCH   9  11
ATOM     11  C   UNL     1       2.436   5.690   0.079  0.00  0.00    +0.109 C 
BRANCH  11  12
ATOM     12  C   UNL     1       3.878   6.194   0.004  0.00  0.00    +0.057 C 
BRANCH  12  13
ATOM     13  C   UNL     1       3.886   7.701   0.036  0.00  0.00    -0.001 A 
ATOM     14  C   UNL     1       3.922   8.417  -1.144  0.00  0.00    +0.045 A 
ATOM     15  C   UNL     1       3.930   9.801  -1.115  0.00  0.00    +0.124 A 
ATOM     16  C   UNL     1       3.903  10.469   0.098  0.00  0.00    +0.047 A 
ATOM     17  C   UNL     1       3.868   9.755   1.281  0.00  0.00    +0.023 A 
ATOM     18  C   UNL     1       3.852   8.369   1.252  0.00  0.00    +0.132 A 
ATOM     19  O   UNL     1       3.805   7.654   2.409  0.00  0.00    -0.466 OA
ATOM     20  C   UNL     1       4.137   8.352   3.613  0.00  0.00    +0.394 C 
ATOM     21  O   UNL     1       3.424   9.594   3.633  0.00  0.00    -0.339 OA
ATOM     22  C   UNL     1       3.847  10.491   2.596  0.00  0.00    +0.202 C 
ATOM     23  F   UNL     1       3.964  10.501  -2.270  0.00  0.00    -0.205 F 
ENDBRANCH  12  13
ENDBRANCH  11  12
ENDBRANCH   9  11
ENDBRANCH   4   7
BRANCH   1  24
ATOM     24  N   UNL     1       1.229  -2.079  -0.020  0.00  0.00    -0.216 N 
ATOM     25  H   UNL     1       0.610  -2.641   0.694  0.00  0.00    +0.174 HD
BRANCH  24  26
ATOM     26  S   UNL     1       2.152  -2.888  -1.131  0.00  0.00    +0.072 S 
ATOM     27  O   UNL     1       3.473  -2.378  -1.010  0.00  0.00    -0.150 OA
ATOM     28  O   UNL     1       1.852  -4.268  -0.981  0.00  0.00    -0.150 OA
BRANCH  26  32
ATOM     29  C   UNL     1       2.429   0.096  -5.413  0.00  0.00    +0.047 C 
ATOM     30  C   UNL     1       1.749  -1.022  -4.667  0.00  0.00    -0.013 A 
ATOM     31  C   UNL     1       2.200  -1.392  -3.414  0.00  0.00    +0.035 A 
ATOM     32  C   UNL     1       1.576  -2.417  -2.729  0.00  0.00    +0.109 A 
ATOM     33  C   UNL     1       0.503  -3.078  -3.298  0.00  0.00    +0.031 A 
ATOM     34  C   UNL     1       0.048  -2.707  -4.549  0.00  0.00    +0.040 A 
ATOM     35  C   UNL     1       0.672  -1.680  -5.236  0.00  0.00    +0.126 A 
ATOM     36  F   UNL     1       0.230  -1.319  -6.461  0.00  0.00    -0.205 F 
ENDBRANCH  26  32
ENDBRANCH  24  26
ENDBRANCH   1  24
TORSDOF 7
