REMARK  Name = ZINC06195036
REMARK  9 active torsions:
REMARK  status: ('A' for Active; 'I' for Inactive)
REMARK    1  A    between atoms: C_1  and  C_2
REMARK    2  A    between atoms: C_2  and  O_3
REMARK    3  A    between atoms: O_3  and  C_4
REMARK    4  A    between atoms: C_13  and  C_25
REMARK    5  A    between atoms: C_15  and  C_21
REMARK    6  A    between atoms: C_15  and  C_23
REMARK    7  A    between atoms: C_16  and  N_20
REMARK    8  A    between atoms: C_17  and  C_18
REMARK    9  A    between atoms: C_30  and  C_31
REMARK                            x       y       z     vdW  Elec       q    Type
REMARK                         _______ _______ _______ _____ _____    ______ ____
ROOT
ATOM      1  C   UNL     1      -0.129   1.391  -0.114  0.00  0.00    +0.403 C 
ATOM      2  O   UNL     1       0.924   1.997  -0.131  0.00  0.00    -0.226 OA
ATOM      3  N   UNL     1      -1.294   2.066  -0.054  0.00  0.00    -0.263 N 
ATOM      4  C   UNL     1      -2.589   1.363  -0.037  0.00  0.00    +0.138 C 
ATOM      5  C   UNL     1      -3.328   1.821   1.195  0.00  0.00    -0.003 C 
ATOM      6  C   UNL     1      -3.102   3.006   1.728  0.00  0.00    -0.026 C 
ATOM      7  C   UNL     1      -2.150   4.020   1.168  0.00  0.00    +0.048 C 
ATOM      8  C   UNL     1      -1.326   3.531   0.004  0.00  0.00    +0.120 C 
ATOM      9  C   UNL     1      -1.270   4.536   2.308  0.00  0.00    +0.068 C 
ATOM     10  C   UNL     1      -2.154   5.249   3.332  0.00  0.00    +0.188 C 
ATOM     11  C   UNL     1      -3.323   4.403   3.736  0.00  0.00    +0.054 C 
ATOM     12  C   UNL     1      -3.787   3.362   3.000  0.00  0.00    +0.074 C 
ENDROOT
BRANCH   9  13
ATOM     13  C   UNL     1      -0.251   5.503   1.760  0.00  0.00    -0.029 A 
ATOM     14  C   UNL     1      -0.659   6.570   0.983  0.00  0.00    +0.004 A 
ATOM     15  C   UNL     1       0.275   7.457   0.481  0.00  0.00    +0.000 A 
ATOM     16  C   UNL     1       1.617   7.276   0.757  0.00  0.00    +0.001 A 
ATOM     17  C   UNL     1       2.026   6.209   1.535  0.00  0.00    +0.012 A 
ATOM     18  C   UNL     1       1.091   5.325   2.041  0.00  0.00    +0.058 A 
BRANCH  18  19
ATOM     19  C   UNL     1       1.535   4.165   2.894  0.00  0.00    +0.418 C 
ATOM     20  F   UNL     1       2.926   4.197   3.036  0.00  0.00    -0.166 F 
ATOM     21  F   UNL     1       0.935   4.257   4.155  0.00  0.00    -0.166 F 
ATOM     22  F   UNL     1       1.156   2.965   2.284  0.00  0.00    -0.166 F 
ENDBRANCH  18  19
ENDBRANCH   9  13
BRANCH  11  23
ATOM     23  N   UNL     1      -3.956   4.696   4.911  0.00  0.00    -0.358 N 
ATOM     24  H   UNL     1      -4.818   4.094   5.237  0.00  0.00    +0.142 HD
ATOM     25  H   UNL     1      -3.605   5.533   5.532  0.00  0.00    +0.142 HD
ENDBRANCH  11  23
BRANCH  12  26
ATOM     26  C   UNL     1      -4.925   2.615   3.442  0.00  0.00    +0.101 C 
ATOM     27  N   UNL     1      -5.829   2.022   3.793  0.00  0.00    -0.191 NA
ENDBRANCH  12  26
BRANCH  10  28
ATOM     28  C   UNL     1      -1.351   5.561   4.525  0.00  0.00    +0.091 C 
ATOM     29  N   UNL     1      -0.731   5.802   5.446  0.00  0.00    -0.194 NA
ENDBRANCH  10  28
BRANCH  10  30
ATOM     30  C   UNL     1      -2.650   6.505   2.747  0.00  0.00    +0.091 C 
ATOM     31  N   UNL     1      -3.032   7.475   2.295  0.00  0.00    -0.194 NA
ENDBRANCH  10  30
BRANCH   1  32
ATOM     32  O   UNL     1      -0.132   0.046  -0.160  0.00  0.00    -0.451 OA
BRANCH  32  34
ATOM     33  C   UNL     1       0.956  -2.130  -0.274  0.00  0.00    +0.048 C 
ATOM     34  C   UNL     1       1.159  -0.615  -0.229  0.00  0.00    +0.230 C 
ENDBRANCH  32  34
ENDBRANCH   1  32
TORSDOF 8
