REMARK  Name = ZINC61360905
REMARK  3 active torsions:
REMARK  status: ('A' for Active; 'I' for Inactive)
REMARK    1  A    between atoms: C_6  and  N_11
REMARK    2  A    between atoms: N_11  and  C_12
REMARK    3  A    between atoms: C_17  and  N_18
REMARK                            x       y       z     vdW  Elec       q    Type
REMARK                         _______ _______ _______ _____ _____    ______ ____
ROOT
ATOM      1  C   UNL     1      -2.658   0.105   1.825  0.00  0.00    +0.052 A 
ATOM      2  C   UNL     1      -2.983   1.165   0.992  0.00  0.00    +0.074 A 
ATOM      3  C   UNL     1      -3.821   2.173   1.445  0.00  0.00    +0.164 A 
ATOM      4  C   UNL     1      -4.338   2.120   2.733  0.00  0.00    +0.164 A 
ATOM      5  C   UNL     1      -4.012   1.061   3.568  0.00  0.00    +0.074 A 
ATOM      6  C   UNL     1      -3.178   0.050   3.116  0.00  0.00    +0.049 A 
ATOM      7  O   UNL     1      -5.169   3.098   3.191  0.00  0.00    -0.485 OA
ATOM      8  C   UNL     1      -5.176   4.330   2.463  0.00  0.00    +0.270 C 
ATOM      9  C   UNL     1      -5.264   4.003   0.966  0.00  0.00    +0.270 C 
ATOM     10  O   UNL     1      -4.127   3.208   0.614  0.00  0.00    -0.485 OA
ENDROOT
BRANCH   6  11
ATOM     11  N   UNL     1      -2.855  -1.023   3.959  0.00  0.00    -0.356 N 
ATOM     12  H   UNL     1      -2.268  -1.728   3.643  0.00  0.00    +0.142 HD
ATOM     13  H   UNL     1      -3.218  -1.060   4.858  0.00  0.00    +0.142 HD
ENDBRANCH   6  11
BRANCH   1  14
ATOM     14  N   UNL     1      -1.810  -0.914   1.365  0.00  0.00    -0.335 N 
ATOM     15  H   UNL     1      -1.587  -1.658   1.947  0.00  0.00    +0.147 HD
BRANCH  14  21
ATOM     16  C   UNL     1      -0.017   1.391   0.010  0.00  0.00    +0.013 A 
ATOM     17  C   UNL     1       1.145   2.084   0.002  0.00  0.00    +0.046 A 
ATOM     18  S   UNL     1       2.356   0.771  -0.016  0.00  0.00    -0.101 S 
ATOM     19  C   UNL     1       1.227  -0.595  -0.012  0.00  0.00    -0.005 A 
ATOM     20  C   UNL     1       0.002  -0.004   0.002  0.00  0.00    -0.017 A 
ATOM     21  C   UNL     1      -1.264  -0.856   0.007  0.00  0.00    +0.101 C 
ATOM     22  C   UNL     1      -0.910  -2.267  -0.467  0.00  0.00    +0.027 C 
ATOM     23  C   UNL     1       0.255  -2.821   0.358  0.00  0.00    +0.007 C 
ATOM     24  C   UNL     1       1.533  -2.058  -0.020  0.00  0.00    +0.043 C 
ENDBRANCH  14  21
ENDBRANCH   1  14
TORSDOF 3
