REMARK  Name = ZINC33658260
REMARK  6 active torsions:
REMARK  status: ('A' for Active; 'I' for Inactive)
REMARK    1  A    between atoms: C_6  and  C_7
REMARK    2  A    between atoms: C_7  and  N_8
REMARK    3  A    between atoms: C_9  and  C_11
REMARK    4  A    between atoms: C_13  and  N_22
REMARK    5  A    between atoms: C_16  and  N_17
REMARK    6  A    between atoms: N_25  and  C_26
REMARK                            x       y       z     vdW  Elec       q    Type
REMARK                         _______ _______ _______ _____ _____    ______ ____
ROOT
ATOM      1  C   UNL     1      -1.179   2.974  -0.375  0.00  0.00    +0.059 A 
ATOM      2  C   UNL     1      -0.011   3.740  -0.352  0.00  0.00    +0.038 A 
ATOM      3  C   UNL     1       1.192   3.152  -0.005  0.00  0.00    +0.036 A 
ATOM      4  C   UNL     1       1.242   1.800   0.321  0.00  0.00    +0.025 A 
ATOM      5  C   UNL     1       0.094   1.036   0.302  0.00  0.00    +0.026 A 
ATOM      6  C   UNL     1      -1.121   1.610  -0.050  0.00  0.00    +0.042 A 
ENDROOT
BRANCH   3   7
ATOM      7  N   UNL     1       2.364   3.920   0.018  0.00  0.00    -0.269 N 
ATOM      8  C   UNL     1       3.536   3.372  -0.360  0.00  0.00    +0.304 C 
ATOM      9  O   UNL     1       3.593   2.191  -0.641  0.00  0.00    -0.252 OA
ATOM     10  N   UNL     1       4.646   4.135  -0.426  0.00  0.00    -0.294 N 
ATOM     11  H   UNL     1       2.328   4.970   0.345  0.00  0.00    +0.156 HD
ATOM     12  H   UNL     1       4.595   5.204  -0.172  0.00  0.00    +0.151 HD
BRANCH  10  13
ATOM     13  C   UNL     1       5.920   3.539  -0.837  0.00  0.00    +0.037 C 
ATOM     14  C   UNL     1       6.298   2.420   0.136  0.00  0.00    +0.029 C 
ATOM     15  C   UNL     1       7.628   1.799  -0.294  0.00  0.00    -0.008 C 
ATOM     16  C   UNL     1       8.719   2.872  -0.285  0.00  0.00    +0.007 C 
ATOM     17  C   UNL     1       8.341   3.990  -1.258  0.00  0.00    -0.008 C 
ATOM     18  C   UNL     1       7.011   4.612  -0.829  0.00  0.00    +0.029 C 
ATOM     19  C   UNL     1       8.203   3.414  -2.669  0.00  0.00    +0.007 C 
ATOM     20  C   UNL     1       7.113   2.341  -2.677  0.00  0.00    -0.008 C 
ATOM     21  C   UNL     1       7.490   1.223  -1.704  0.00  0.00    +0.007 C 
ATOM     22  C   UNL     1       5.782   2.963  -2.248  0.00  0.00    +0.029 C 
ENDBRANCH  10  13
ENDBRANCH   3   7
BRANCH   6  23
ATOM     23  N   UNL     1      -2.277   0.837  -0.075  0.00  0.00    -0.329 N 
ATOM     24  C   UNL     1      -2.093  -0.368  -0.923  0.00  0.00    +0.105 C 
ATOM     25  C   UNL     1      -3.206  -1.325  -0.427  0.00  0.00    +0.020 C 
ATOM     26  C   UNL     1      -3.233  -1.062   1.097  0.00  0.00    +0.020 C 
ATOM     27  C   UNL     1      -2.607   0.333   1.276  0.00  0.00    +0.105 C 
ENDBRANCH   6  23
BRANCH   1  29
ATOM     28  N   UNL     1      -2.500   4.873  -1.166  0.00  0.00    -0.307 N 
ATOM     29  C   UNL     1      -2.465   3.594  -0.744  0.00  0.00    +0.246 C 
ATOM     30  O   UNL     1      -3.494   2.951  -0.666  0.00  0.00    -0.270 OA
ATOM     31  H   UNL     1      -1.569   5.455  -1.236  0.00  0.00    +0.149 HD
BRANCH  28  32
ATOM     32  C   UNL     1      -3.778   5.489  -1.533  0.00  0.00    +0.139 C 
BRANCH  32  38
ATOM     33  C   UNL     1      -3.587   7.935  -1.038  0.00  0.00    +0.008 A 
ATOM     34  C   UNL     1      -3.367   9.240  -1.435  0.00  0.00    +0.038 A 
ATOM     35  C   UNL     1      -3.112   9.525  -2.766  0.00  0.00    +0.123 A 
ATOM     36  C   UNL     1      -3.074   8.501  -3.697  0.00  0.00    +0.038 A 
ATOM     37  C   UNL     1      -3.289   7.196  -3.297  0.00  0.00    +0.008 A 
ATOM     38  C   UNL     1      -3.543   6.912  -1.968  0.00  0.00    -0.030 A 
ATOM     39  F   UNL     1      -2.902  10.801  -3.156  0.00  0.00    -0.205 F 
ENDBRANCH  32  38
ENDBRANCH  28  32
ENDBRANCH   1  29
TORSDOF 6
