REMARK  Name = ZINC28822935
REMARK  5 active torsions:
REMARK  status: ('A' for Active; 'I' for Inactive)
REMARK    1  A    between atoms: N_4  and  C_8
REMARK    2  A    between atoms: C_11  and  C_15
REMARK    3  A    between atoms: N_17  and  C_18
REMARK    4  A    between atoms: C_23  and  N_25
REMARK    5  A    between atoms: C_26  and  C_28
REMARK                            x       y       z     vdW  Elec       q    Type
REMARK                         _______ _______ _______ _____ _____    ______ ____
ROOT
ATOM      1  C   UNL     1      -2.519   3.873   0.050  0.00  0.00    +0.247 C 
ATOM      2  O   UNL     1      -3.522   3.341  -0.385  0.00  0.00    -0.270 OA
ATOM      3  N   UNL     1      -2.580   5.124   0.548  0.00  0.00    -0.307 N 
ATOM      4  H   UNL     1      -1.673   5.604   0.941  0.00  0.00    +0.149 HD
ENDROOT
BRANCH   1   8
ATOM      5  C   UNL     1       1.181   1.786   0.000  0.00  0.00    +0.052 A 
ATOM      6  C   UNL     1       1.118   3.078   0.514  0.00  0.00    +0.027 A 
ATOM      7  C   UNL     1      -0.079   3.757   0.532  0.00  0.00    +0.018 A 
ATOM      8  C   UNL     1      -1.234   3.148   0.033  0.00  0.00    +0.072 A 
ATOM      9  C   UNL     1      -1.167   1.851  -0.489  0.00  0.00    +0.137 A 
ATOM     10  C   UNL     1       0.037   1.175  -0.498  0.00  0.00    +0.065 A 
ATOM     11  F   UNL     1      -2.278   1.260  -0.979  0.00  0.00    -0.205 F 
BRANCH   5  15
ATOM     12  C   UNL     1       4.795  -0.242  -0.047  0.00  0.00    +0.007 A 
ATOM     13  C   UNL     1       4.404   0.560  -1.129  0.00  0.00    +0.018 A 
ATOM     14  C   UNL     1       3.220   1.213  -1.093  0.00  0.00    +0.095 A 
ATOM     15  N   UNL     1       2.399   1.102  -0.015  0.00  0.00    -0.284 N 
ATOM     16  C   UNL     1       2.749   0.343   1.042  0.00  0.00    +0.256 A 
ATOM     17  O   UNL     1       2.004   0.257   2.004  0.00  0.00    -0.267 OA
ATOM     18  C   UNL     1       3.970  -0.352   1.034  0.00  0.00    +0.071 A 
ENDBRANCH   5  15
ENDBRANCH   1   8
BRANCH   3  19
ATOM     19  C   UNL     1      -3.856   5.843   0.565  0.00  0.00    +0.093 C 
ATOM     20  C   UNL     1      -4.612   5.576   1.890  0.00  0.00    +0.024 C 
ATOM     21  C   UNL     1      -5.545   6.807   2.006  0.00  0.00    +0.004 C 
ATOM     22  C   UNL     1      -4.690   7.980   1.483  0.00  0.00    +0.024 C 
ATOM     23  C   UNL     1      -3.617   7.367   0.567  0.00  0.00    +0.093 C 
BRANCH  23  24
ATOM     24  N   UNL     1      -2.281   7.665   1.090  0.00  0.00    -0.306 N 
ATOM     25  C   UNL     1      -1.658   8.807   0.738  0.00  0.00    +0.251 C 
ATOM     26  O   UNL     1      -2.205   9.591  -0.015  0.00  0.00    -0.270 OA
ATOM     27  H   UNL     1      -1.787   6.955   1.770  0.00  0.00    +0.149 HD
BRANCH  25  28
ATOM     28  C   UNL     1      -0.323   9.104   1.261  0.00  0.00    +0.075 A 
ATOM     29  C   UNL     1       0.484  10.206   1.022  0.00  0.00    +0.022 A 
ATOM     30  C   UNL     1       1.703  10.236   1.650  0.00  0.00    +0.028 A 
ATOM     31  C   UNL     1       2.062   9.198   2.454  0.00  0.00    +0.079 A 
ATOM     32  S   UNL     1       0.692   8.139   2.365  0.00  0.00    -0.072 S 
ATOM     33 CL   UNL     1       3.533   8.987   3.350  0.00  0.00    -0.076 Cl
ENDBRANCH  25  28
ENDBRANCH  23  24
ENDBRANCH   3  19
TORSDOF 5
