REMARK  Name = ZINC26817032
REMARK  4 active torsions:
REMARK  status: ('A' for Active; 'I' for Inactive)
REMARK    1  A    between atoms: C_1  and  C_2
REMARK    2  A    between atoms: C_13  and  C_16
REMARK    3  A    between atoms: C_16  and  C_17
REMARK    4  A    between atoms: N_29  and  C_32
REMARK                            x       y       z     vdW  Elec       q    Type
REMARK                         _______ _______ _______ _____ _____    ______ ____
ROOT
ATOM      1  C   UNL     1      -0.018   1.503   0.010  0.00  0.00    +0.044 C 
ATOM      2  C   UNL     1       0.002  -0.004   0.002  0.00  0.00    -0.050 A 
ATOM      3  C   UNL     1       0.006  -0.691  -1.199  0.00  0.00    +0.005 A 
ATOM      4  C   UNL     1       0.024  -2.070  -1.210  0.00  0.00    +0.024 A 
ATOM      5  C   UNL     1       0.039  -2.781  -0.013  0.00  0.00    +0.039 A 
ATOM      6  C   UNL     1       0.036  -2.081   1.191  0.00  0.00    +0.004 A 
ATOM      7  C   UNL     1       0.023  -0.704   1.195  0.00  0.00    +0.011 A 
ATOM      8  C   UNL     1       0.051  -3.123   2.270  0.00  0.00    +0.136 C 
ATOM      9  C   UNL     1       1.216  -2.982   3.228  0.00  0.00    +0.123 C 
ATOM     10  C   UNL     1       0.616  -1.808   4.095  0.00  0.00    +0.108 C 
ATOM     11  C   UNL     1      -0.758  -2.247   4.373  0.00  0.00    +0.072 C 
ATOM     12  N   UNL     1      -1.157  -3.015   3.134  0.00  0.00    -0.295 NA
ATOM     13  C   UNL     1       1.784  -1.323   4.789  0.00  0.00    +0.232 C 
ATOM     14  O   UNL     1       1.841  -0.867   5.911  0.00  0.00    -0.274 OA
ATOM     15  N   UNL     1       2.818  -1.491   3.901  0.00  0.00    -0.210 N 
ATOM     16  C   UNL     1       2.485  -2.294   2.831  0.00  0.00    +0.233 C 
ATOM     17  O   UNL     1       3.084  -2.418   1.784  0.00  0.00    -0.274 OA
ATOM     18  C   UNL     1       0.062  -4.441   1.545  0.00  0.00    +0.243 C 
ATOM     19  O   UNL     1       0.074  -5.545   2.048  0.00  0.00    -0.273 OA
ATOM     20  N   UNL     1       0.056  -4.157   0.228  0.00  0.00    -0.283 N 
ATOM     21  H   UNL     1      -1.912  -2.559   2.645  0.00  0.00    +0.124 HD
ATOM     22  H   UNL     1       0.063  -4.829  -0.471  0.00  0.00    +0.155 HD
ENDROOT
BRANCH  15  23
ATOM     23  C   UNL     1       4.087  -0.917   4.069  0.00  0.00    +0.044 A 
ATOM     24  C   UNL     1       5.077  -1.132   3.120  0.00  0.00    +0.027 A 
ATOM     25  C   UNL     1       6.326  -0.566   3.286  0.00  0.00    +0.040 A 
ATOM     26  C   UNL     1       6.590   0.216   4.399  0.00  0.00    +0.124 A 
ATOM     27  C   UNL     1       5.604   0.431   5.346  0.00  0.00    +0.040 A 
ATOM     28  C   UNL     1       4.352  -0.129   5.180  0.00  0.00    +0.027 A 
ATOM     29  F   UNL     1       7.812   0.768   4.560  0.00  0.00    -0.205 F 
ENDBRANCH  15  23
BRANCH  11  30
ATOM     30  C   UNL     1      -0.793  -3.135   5.617  0.00  0.00    +0.056 C 
BRANCH  30  31
ATOM     31  C   UNL     1      -2.223  -3.472   5.954  0.00  0.00    -0.021 A 
ATOM     32  C   UNL     1      -3.013  -2.823   6.824  0.00  0.00    +0.087 A 
ATOM     33  N   UNL     1      -4.245  -3.416   6.867  0.00  0.00    -0.360 N 
ATOM     34  H   UNL     1      -4.985  -3.124   7.423  0.00  0.00    +0.165 HD
ATOM     35  C   UNL     1      -4.280  -4.487   6.003  0.00  0.00    +0.047 A 
ATOM     36  C   UNL     1      -3.017  -4.566   5.388  0.00  0.00    +0.003 A 
ATOM     37  C   UNL     1      -2.760  -5.566   4.449  0.00  0.00    +0.010 A 
ATOM     38  C   UNL     1      -3.740  -6.463   4.128  0.00  0.00    +0.001 A 
ATOM     39  C   UNL     1      -4.989  -6.387   4.728  0.00  0.00    +0.002 A 
ATOM     40  C   UNL     1      -5.261  -5.414   5.665  0.00  0.00    +0.026 A 
ENDBRANCH  30  31
ENDBRANCH  11  30
TORSDOF 3
