REMARK  Name = ZINC10768220
REMARK  8 active torsions:
REMARK  status: ('A' for Active; 'I' for Inactive)
REMARK    1  A    between atoms: C_4  and  C_7
REMARK    2  A    between atoms: C_7  and  C_9
REMARK    3  A    between atoms: C_7  and  N_22
REMARK    4  A    between atoms: N_11  and  C_12
REMARK    5  A    between atoms: C_16  and  C_18
REMARK    6  A    between atoms: N_22  and  C_23
REMARK    7  A    between atoms: C_26  and  N_29
REMARK    8  A    between atoms: C_30  and  C_32
REMARK                            x       y       z     vdW  Elec       q    Type
REMARK                         _______ _______ _______ _____ _____    ______ ____
ROOT
ATOM      1  C   UNL     1       1.082   7.418   0.251  0.00  0.00    +0.188 C 
ENDROOT
BRANCH   1   5
ATOM      2  C   UNL     1      -0.801   9.068  -3.211  0.00  0.00    +0.000 A 
ATOM      3  C   UNL     1      -1.514   8.934  -2.034  0.00  0.00    +0.000 A 
ATOM      4  C   UNL     1      -0.904   8.400  -0.914  0.00  0.00    +0.006 A 
ATOM      5  C   UNL     1       0.417   8.000  -0.971  0.00  0.00    -0.018 A 
ATOM      6  C   UNL     1       1.132   8.139  -2.146  0.00  0.00    +0.006 A 
ATOM      7  C   UNL     1       0.521   8.668  -3.267  0.00  0.00    +0.000 A 
ENDBRANCH   1   5
BRANCH   1   8
ATOM      8  C   UNL     1       1.108   5.916   0.141  0.00  0.00    +0.242 C 
ATOM      9  O   UNL     1       2.168   5.326   0.144  0.00  0.00    -0.273 OA
ATOM     10  N   UNL     1      -0.046   5.227   0.039  0.00  0.00    -0.284 N 
ATOM     11  H   UNL     1      -0.889   5.701  -0.038  0.00  0.00    +0.155 HD
BRANCH  10  12
ATOM     12  C   UNL     1      -0.029   3.828   0.043  0.00  0.00    +0.034 A 
ATOM     13  C   UNL     1       0.920   3.146   0.795  0.00  0.00    +0.023 A 
ATOM     14  C   UNL     1       0.934   1.766   0.798  0.00  0.00    +0.002 A 
ATOM     15  C   UNL     1       0.006   1.061   0.052  0.00  0.00    +0.012 A 
ATOM     16  C   UNL     1      -0.936   1.737  -0.701  0.00  0.00    +0.057 A 
ATOM     17  C   UNL     1      -0.959   3.118  -0.704  0.00  0.00    +0.035 A 
BRANCH  16  18
ATOM     18  C   UNL     1      -1.941   0.966  -1.517  0.00  0.00    +0.417 C 
ATOM     19  F   UNL     1      -1.723  -0.406  -1.351  0.00  0.00    -0.166 F 
ATOM     20  F   UNL     1      -3.234   1.287  -1.088  0.00  0.00    -0.166 F 
ATOM     21  F   UNL     1      -1.801   1.300  -2.868  0.00  0.00    -0.166 F 
ENDBRANCH  16  18
ENDBRANCH  10  12
ENDBRANCH   1   8
BRANCH   1  22
ATOM     22  N   UNL     1       2.453   7.925   0.349  0.00  0.00    -0.329 N 
ATOM     23  H   UNL     1       3.188   7.407  -0.013  0.00  0.00    +0.147 HD
BRANCH  22  24
ATOM     24  C   UNL     1       2.701   9.156   0.965  0.00  0.00    +0.028 A 
ATOM     25  C   UNL     1       1.647   9.901   1.479  0.00  0.00    +0.025 A 
ATOM     26  C   UNL     1       1.893  11.113   2.092  0.00  0.00    +0.025 A 
ATOM     27  C   UNL     1       3.193  11.593   2.185  0.00  0.00    +0.034 A 
ATOM     28  C   UNL     1       4.246  10.851   1.666  0.00  0.00    +0.025 A 
ATOM     29  C   UNL     1       4.001   9.636   1.058  0.00  0.00    +0.025 A 
BRANCH  27  30
ATOM     30  N   UNL     1       3.442  12.827   2.802  0.00  0.00    -0.285 N 
ATOM     31  C   UNL     1       4.418  13.630   2.334  0.00  0.00    +0.220 C 
ATOM     32  O   UNL     1       5.136  13.249   1.433  0.00  0.00    -0.275 OA
ATOM     33  H   UNL     1       2.911  13.103   3.565  0.00  0.00    +0.155 HD
BRANCH  31  34
ATOM     34  C   UNL     1       4.618  14.999   2.930  0.00  0.00    +0.075 C 
ATOM     35  C   UNL     1       4.283  16.207   2.053  0.00  0.00    +0.013 C 
ATOM     36  C   UNL     1       5.743  15.862   2.355  0.00  0.00    +0.013 C 
ENDBRANCH  31  34
ENDBRANCH  27  30
ENDBRANCH  22  24
ENDBRANCH   1  22
TORSDOF 8
