REMARK  Name = ZINC04100113
REMARK  6 active torsions:
REMARK  status: ('A' for Active; 'I' for Inactive)
REMARK    1  A    between atoms: C_9  and  O_32
REMARK    2  A    between atoms: C_10  and  C_11
REMARK    3  A    between atoms: N_12  and  N_13
REMARK    4  A    between atoms: C_14  and  S_16
REMARK    5  A    between atoms: S_16  and  C_17
REMARK    6  A    between atoms: N_22  and  C_25
REMARK                            x       y       z     vdW  Elec       q    Type
REMARK                         _______ _______ _______ _____ _____    ______ ____
ROOT
ATOM      1  N   UNL     1       7.577   1.025   0.272  0.00  0.00    -0.217 N 
ATOM      2  C   UNL     1       8.617   0.126   0.198  0.00  0.00    +0.146 C 
ATOM      3  N   UNL     1       8.378  -1.155   0.266  0.00  0.00    -0.380 N 
ATOM      4  H   UNL     1       7.755   1.977   0.221  0.00  0.00    +0.176 HD
ATOM      5  H   UNL     1       9.110  -1.789   0.214  0.00  0.00    +0.158 HD
ATOM      6  H   UNL     1       7.467  -1.474   0.369  0.00  0.00    +0.158 HD
ENDROOT
BRANCH   1   8
ATOM      7  C   UNL     1       5.281   1.414   0.492  0.00  0.00    +0.142 C 
ATOM      8  N   UNL     1       6.263   0.565   0.421  0.00  0.00    -0.188 NA
BRANCH   7  18
ATOM      9  C   UNL     1       0.629   3.603   0.888  0.00  0.00    +0.001 A 
ATOM     10  C   UNL     1       1.923   4.099   0.741  0.00  0.00    +0.001 A 
ATOM     11  C   UNL     1       2.990   3.255   0.661  0.00  0.00    +0.009 A 
ATOM     12  C   UNL     1       2.786   1.872   0.729  0.00  0.00    -0.006 A 
ATOM     13  C   UNL     1       1.472   1.365   0.879  0.00  0.00    -0.017 A 
ATOM     14  C   UNL     1       0.395   2.264   0.957  0.00  0.00    +0.008 A 
ATOM     15  C   UNL     1       1.269  -0.025   0.947  0.00  0.00    +0.012 A 
ATOM     16  C   UNL     1       2.318  -0.886   0.871  0.00  0.00    +0.046 A 
ATOM     17  C   UNL     1       3.628  -0.435   0.723  0.00  0.00    +0.126 A 
ATOM     18  C   UNL     1       3.901   0.931   0.648  0.00  0.00    +0.044 A 
BRANCH  17  19
ATOM     19  O   UNL     1       4.646  -1.331   0.651  0.00  0.00    -0.506 OA
ATOM     20  H   UNL     1       4.852  -1.621  -0.248  0.00  0.00    +0.292 HD
ENDBRANCH  17  19
ENDBRANCH   7  18
ENDBRANCH   1   8
BRANCH   2  21
ATOM     21  S   UNL     1      10.271   0.704   0.010  0.00  0.00    -0.078 S 
BRANCH  21  22
ATOM     22  C   UNL     1      11.264  -0.813  -0.038  0.00  0.00    +0.149 C 
ATOM     23  C   UNL     1      12.751  -0.481  -0.273  0.00  0.00    +0.120 C 
ATOM     24  C   UNL     1      13.433  -1.010   0.971  0.00  0.00    +0.228 C 
ATOM     25  O   UNL     1      14.622  -0.952   1.197  0.00  0.00    -0.275 OA
ATOM     26  N   UNL     1      12.514  -1.550   1.780  0.00  0.00    -0.209 N 
ATOM     27  C   UNL     1      11.258  -1.497   1.312  0.00  0.00    +0.240 C 
ATOM     28  O   UNL     1      10.275  -1.925   1.877  0.00  0.00    -0.274 OA
BRANCH  26  29
ATOM     29  C   UNL     1      12.838  -2.127   3.017  0.00  0.00    +0.044 A 
ATOM     30  C   UNL     1      12.697  -3.495   3.204  0.00  0.00    +0.025 A 
ATOM     31  C   UNL     1      13.016  -4.061   4.423  0.00  0.00    +0.017 A 
ATOM     32  C   UNL     1      13.477  -3.265   5.457  0.00  0.00    +0.018 A 
ATOM     33  C   UNL     1      13.618  -1.901   5.273  0.00  0.00    +0.017 A 
ATOM     34  C   UNL     1      13.305  -1.331   4.054  0.00  0.00    +0.025 A 
ATOM     35 BR   UNL     1      13.912  -4.043   7.124  0.00  0.00    -0.050 Br
ENDBRANCH  26  29
ENDBRANCH  21  22
ENDBRANCH   2  21
TORSDOF 6
