REMARK  Name = ZINC14740636
REMARK  10 active torsions:
REMARK  status: ('A' for Active; 'I' for Inactive)
REMARK    1  A    between atoms: C_1  and  C_2
REMARK    2  A    between atoms: C_2  and  C_3
REMARK    3  A    between atoms: C_3  and  C_4
REMARK    4  A    between atoms: C_4  and  C_5
REMARK    5  A    between atoms: C_9  and  C_11
REMARK    6  A    between atoms: C_11  and  N_12
REMARK    7  A    between atoms: C_18  and  C_31
REMARK    8  A    between atoms: N_21  and  C_22
REMARK    9  A    between atoms: C_22  and  C_23
REMARK   10  A    between atoms: C_24  and  C_25
REMARK                            x       y       z     vdW  Elec       q    Type
REMARK                         _______ _______ _______ _____ _____    ______ ____
ROOT
ATOM      1  N   UNL     1      -6.655  -2.522  -1.952  0.00  0.00    +0.386 N 
ATOM      2  C   UNL     1      -7.815  -2.934  -2.757  0.00  0.00    -0.072 C 
ATOM      3  C   UNL     1      -8.752  -1.735  -2.904  0.00  0.00    +0.035 C 
ATOM      4  C   UNL     1      -7.978  -0.531  -3.381  0.00  0.00    +0.022 A 
ATOM      5  C   UNL     1      -6.628  -0.484  -3.304  0.00  0.00    -0.044 A 
ATOM      6  C   UNL     1      -5.943   0.656  -3.751  0.00  0.00    +0.017 A 
ATOM      7  C   UNL     1      -6.657   1.723  -4.270  0.00  0.00    +0.047 A 
ATOM      8  C   UNL     1      -8.069   1.628  -4.336  0.00  0.00    +0.260 A 
ATOM      9  O   UNL     1      -8.725   2.551  -4.790  0.00  0.00    -0.267 OA
ATOM     10  N   UNL     1      -8.681   0.516  -3.895  0.00  0.00    -0.308 N 
ATOM     11  C   UNL     1      -5.817  -1.628  -2.755  0.00  0.00    -0.041 C 
ATOM     12  H   UNL     1      -6.970  -2.038  -1.125  0.00  0.00    -0.081 HD
ENDROOT
BRANCH   7  13
ATOM     13  C   UNL     1      -5.959   2.938  -4.747  0.00  0.00    -0.010 A 
ATOM     14  C   UNL     1      -5.245   3.752  -3.861  0.00  0.00    +0.028 A 
ATOM     15  C   UNL     1      -4.609   4.874  -4.347  0.00  0.00    +0.111 A 
ATOM     16  N   UNL     1      -4.668   5.184  -5.629  0.00  0.00    -0.263 NA
ATOM     17  C   UNL     1      -5.330   4.445  -6.498  0.00  0.00    +0.111 A 
ATOM     18  C   UNL     1      -5.990   3.302  -6.098  0.00  0.00    +0.028 A 
ENDBRANCH   7  13
BRANCH   1  19
ATOM     19  C   UNL     1      -5.879  -3.707  -1.563  0.00  0.00    -0.023 C 
BRANCH  19  24
ATOM     20  C   UNL     1      -2.826  -2.585   0.015  0.00  0.00    +0.084 A 
ATOM     21  N   UNL     1      -3.556  -2.858   1.118  0.00  0.00    -0.350 N 
ATOM     22  H   UNL     1      -3.269  -2.755   2.039  0.00  0.00    +0.166 HD
ATOM     23  C   UNL     1      -4.778  -3.307   0.694  0.00  0.00    +0.103 A 
ATOM     24  C   UNL     1      -4.752  -3.293  -0.652  0.00  0.00    +0.017 A 
ATOM     25  N   UNL     1      -3.550  -2.843  -1.040  0.00  0.00    -0.349 N 
ATOM     26  H   UNL     1      -3.263  -2.728  -1.959  0.00  0.00    +0.167 HD
BRANCH  20  27
ATOM     27  C   UNL     1      -1.413  -2.063   0.004  0.00  0.00    +0.072 C 
BRANCH  27  28
ATOM     28  C   UNL     1      -1.433  -0.534   0.013  0.00  0.00    +0.007 C 
BRANCH  28  30
ATOM     29  C   UNL     1      -0.019   1.526   0.010  0.00  0.00    +0.004 C 
ATOM     30  C   UNL     1       0.002  -0.004   0.002  0.00  0.00    -0.003 C 
ENDBRANCH  28  30
ENDBRANCH  27  28
ENDBRANCH  20  27
ENDBRANCH  19  24
ENDBRANCH   1  19
BRANCH  10  31
ATOM     31  C   UNL     1     -10.142   0.429  -3.968  0.00  0.00    +0.152 C 
BRANCH  31  32
ATOM     32  C   UNL     1     -10.742   0.968  -2.696  0.00  0.00    -0.005 C 
ATOM     33  C   UNL     1     -11.643   1.940  -2.747  0.00  0.00    +0.005 C 
BRANCH  33  34
ATOM     34  C   UNL     1     -12.231   2.469  -1.499  0.00  0.00    -0.025 A 
ATOM     35  C   UNL     1     -11.838   1.952  -0.264  0.00  0.00    +0.008 A 
ATOM     36  C   UNL     1     -12.391   2.450   0.897  0.00  0.00    +0.001 A 
ATOM     37  C   UNL     1     -13.335   3.460   0.840  0.00  0.00    +0.000 A 
ATOM     38  C   UNL     1     -13.730   3.977  -0.381  0.00  0.00    +0.001 A 
ATOM     39  C   UNL     1     -13.179   3.492  -1.550  0.00  0.00    +0.008 A 
ENDBRANCH  33  34
ENDBRANCH  31  32
ENDBRANCH  10  31
TORSDOF 9
