REMARK  Name = ZINC38796911
REMARK  8 active torsions:
REMARK  status: ('A' for Active; 'I' for Inactive)
REMARK    1  A    between atoms: C_1  and  N_2
REMARK    2  A    between atoms: N_2  and  C_3
REMARK    3  A    between atoms: N_2  and  C_14
REMARK    4  A    between atoms: C_3  and  C_4
REMARK    5  A    between atoms: N_6  and  C_7
REMARK    6  A    between atoms: C_14  and  C_16
REMARK    7  A    between atoms: C_14  and  C_22
REMARK    8  A    between atoms: C_22  and  C_24
REMARK                            x       y       z     vdW  Elec       q    Type
REMARK                         _______ _______ _______ _____ _____    ______ ____
ROOT
ATOM      1  C   UNL     1       0.580  -0.543  -1.240  0.00  0.00    +0.159 C 
ENDROOT
BRANCH   1   2
ATOM      2  C   UNL     1       0.490  -2.047  -1.246  0.00  0.00    -0.023 A 
ATOM      3  C   UNL     1      -0.651  -2.673  -0.780  0.00  0.00    +0.005 A 
ATOM      4  C   UNL     1      -0.734  -4.053  -0.786  0.00  0.00    +0.000 A 
ATOM      5  C   UNL     1       0.324  -4.807  -1.259  0.00  0.00    +0.000 A 
ATOM      6  C   UNL     1       1.464  -4.181  -1.726  0.00  0.00    +0.000 A 
ATOM      7  C   UNL     1       1.546  -2.801  -1.724  0.00  0.00    +0.005 A 
ENDBRANCH   1   2
BRANCH   1   9
ATOM      8  C   UNL     1      -0.025   1.446   0.001  0.00  0.00    +0.106 C 
ATOM      9  N   UNL     1      -0.010  -0.022   0.001  0.00  0.00    -0.284 NA
BRANCH   9  10
ATOM     10  C   UNL     1       0.697  -0.542   1.179  0.00  0.00    +0.181 C 
BRANCH  10  11
ATOM     11  C   UNL     1      -0.077  -0.191   2.424  0.00  0.00    +0.231 C 
ATOM     12  O   UNL     1      -1.115   0.430   2.338  0.00  0.00    -0.274 OA
ATOM     13  N   UNL     1       0.385  -0.568   3.632  0.00  0.00    -0.284 N 
ATOM     14  H   UNL     1       1.179  -1.121   3.697  0.00  0.00    +0.155 HD
BRANCH  13  15
ATOM     15  C   UNL     1      -0.282  -0.163   4.794  0.00  0.00    +0.047 A 
ATOM     16  C   UNL     1      -1.665  -0.039   4.795  0.00  0.00    +0.024 A 
ATOM     17  C   UNL     1      -2.321   0.361   5.943  0.00  0.00    +0.002 A 
ATOM     18  C   UNL     1      -1.601   0.639   7.091  0.00  0.00    +0.001 A 
ATOM     19  C   UNL     1      -0.224   0.517   7.094  0.00  0.00    +0.017 A 
ATOM     20  C   UNL     1       0.437   0.112   5.950  0.00  0.00    +0.039 A 
ATOM     21 BR   UNL     1       2.320  -0.062   5.957  0.00  0.00    -0.048 Br
ENDBRANCH  13  15
ENDBRANCH  10  11
ENDBRANCH   9  10
ENDBRANCH   1   9
BRANCH   1  22
ATOM     22  C   UNL     1      -0.169   0.011  -2.424  0.00  0.00    +0.183 C 
ATOM     23  O   UNL     1      -1.253   0.535  -2.266  0.00  0.00    -0.290 OA
BRANCH  22  24
ATOM     24  C   UNL     1       0.388  -0.080  -3.717  0.00  0.00    +0.025 C 
ATOM     25  C   UNL     1      -0.163   0.379  -4.900  0.00  0.00    +0.006 A 
ATOM     26  C   UNL     1      -1.375   1.043  -5.203  0.00  0.00    +0.010 A 
ATOM     27  C   UNL     1      -1.665   1.383  -6.479  0.00  0.00    +0.001 A 
ATOM     28  C   UNL     1      -0.800   1.102  -7.549  0.00  0.00    +0.002 A 
ATOM     29  C   UNL     1       0.380   0.472  -7.367  0.00  0.00    +0.026 A 
ATOM     30  C   UNL     1       0.774   0.067  -6.008  0.00  0.00    +0.043 A 
ATOM     31  N   UNL     1       1.832  -0.541  -5.553  0.00  0.00    -0.380 N 
ATOM     32  C   UNL     1       1.717  -0.695  -4.100  0.00  0.00    +0.152 C 
ATOM     33  H   UNL     1       2.580  -0.843  -6.092  0.00  0.00    +0.160 HD
ENDBRANCH  22  24
ENDBRANCH   1  22
TORSDOF 7
