REMARK  Name = ZINC39946110
REMARK  10 active torsions:
REMARK  status: ('A' for Active; 'I' for Inactive)
REMARK    1  A    between atoms: C_1  and  C_2
REMARK    2  A    between atoms: C_2  and  C_3
REMARK    3  A    between atoms: C_3  and  C_4
REMARK    4  A    between atoms: C_4  and  C_6
REMARK    5  A    between atoms: C_4  and  C_27
REMARK    6  A    between atoms: C_6  and  N_7
REMARK    7  A    between atoms: C_8  and  C_10
REMARK    8  A    between atoms: C_10  and  S_11
REMARK    9  A    between atoms: S_11  and  C_12
REMARK   10  A    between atoms: C_16  and  C_18
REMARK                            x       y       z     vdW  Elec       q    Type
REMARK                         _______ _______ _______ _____ _____    ______ ____
ROOT
ATOM      1  C   UNL     1       1.354  -1.980  -3.569  0.00  0.00    +0.170 C 
ENDROOT
BRANCH   1   3
ATOM      2  N   UNL     1       1.229  -2.139  -1.104  0.00  0.00    -0.314 N 
ATOM      3  C   UNL     1       1.925  -2.378  -2.233  0.00  0.00    +0.223 C 
ATOM      4  O   UNL     1       3.012  -2.913  -2.173  0.00  0.00    -0.275 OA
ATOM      5  H   UNL     1       0.360  -1.710  -1.152  0.00  0.00    +0.149 HD
BRANCH   2   6
ATOM      6  C   UNL     1       1.784  -2.526   0.195  0.00  0.00    +0.112 C 
BRANCH   6   7
ATOM      7  C   UNL     1       0.847  -2.058   1.310  0.00  0.00    +0.038 C 
BRANCH   7   8
ATOM      8  C   UNL     1       1.346  -2.575   2.635  0.00  0.00    -0.024 A 
ATOM      9  C   UNL     1       2.602  -2.217   3.088  0.00  0.00    +0.007 A 
ATOM     10  C   UNL     1       3.060  -2.691   4.303  0.00  0.00    +0.020 A 
ATOM     11  C   UNL     1       2.261  -3.524   5.067  0.00  0.00    +0.042 A 
ATOM     12  C   UNL     1       1.004  -3.882   4.614  0.00  0.00    +0.040 A 
ATOM     13  C   UNL     1       0.544  -3.404   3.400  0.00  0.00    +0.046 A 
ATOM     14 CL   UNL     1      -1.035  -3.848   2.834  0.00  0.00    -0.083 Cl
ATOM     15 CL   UNL     1       2.837  -4.119   6.593  0.00  0.00    -0.083 Cl
ENDBRANCH   7   8
BRANCH   7  16
ATOM     16  C   UNL     1       0.813  -0.529   1.340  0.00  0.00    +0.009 C 
BRANCH  16  18
ATOM     17  C   UNL     1      -0.346   1.462   2.306  0.00  0.00    +0.004 C 
ATOM     18  C   UNL     1      -0.221  -0.061   2.366  0.00  0.00    -0.003 C 
ENDBRANCH  16  18
ENDBRANCH   7  16
ENDBRANCH   6   7
ENDBRANCH   2   6
ENDBRANCH   1   3
BRANCH   1  19
ATOM     19  S   UNL     1       2.519  -2.431  -4.884  0.00  0.00    -0.087 S 
BRANCH  19  20
ATOM     20  C   UNL     1       1.693  -1.892  -6.407  0.00  0.00    +0.339 C 
ATOM     21  N   UNL     1       1.410  -0.448  -6.354  0.00  0.00    -0.219 N 
ATOM     22  N   UNL     1       0.015  -0.335  -6.439  0.00  0.00    -0.145 NA
ATOM     23  C   UNL     1      -0.527  -1.520  -6.533  0.00  0.00    +0.238 C 
ATOM     24  O   UNL     1       0.403  -2.509  -6.522  0.00  0.00    -0.443 OA
ATOM     25  H   UNL     1       2.053   0.274  -6.277  0.00  0.00    +0.173 HD
BRANCH  23  26
ATOM     26  C   UNL     1      -1.907  -1.745  -6.633  0.00  0.00    +0.043 C 
ATOM     27  C   UNL     1      -2.919  -0.784  -6.658  0.00  0.00    +0.008 A 
ATOM     28  C   UNL     1      -2.897   0.625  -6.595  0.00  0.00    +0.010 A 
ATOM     29  C   UNL     1      -4.063   1.320  -6.641  0.00  0.00    +0.001 A 
ATOM     30  C   UNL     1      -5.295   0.674  -6.752  0.00  0.00    +0.002 A 
ATOM     31  C   UNL     1      -5.391  -0.677  -6.818  0.00  0.00    +0.026 A 
ATOM     32  C   UNL     1      -4.216  -1.470  -6.774  0.00  0.00    +0.043 A 
ATOM     33  N   UNL     1      -4.043  -2.777  -6.821  0.00  0.00    -0.380 N 
ATOM     34  C   UNL     1      -2.611  -3.079  -6.745  0.00  0.00    +0.154 C 
ATOM     35  H   UNL     1      -4.753  -3.435  -6.896  0.00  0.00    +0.160 HD
ENDBRANCH  23  26
ENDBRANCH  19  20
ENDBRANCH   1  19
TORSDOF 9
