REMARK  Name = ZINC66888435
REMARK  7 active torsions:
REMARK  status: ('A' for Active; 'I' for Inactive)
REMARK    1  A    between atoms: C_1  and  C_2
REMARK    2  A    between atoms: C_2  and  C_4
REMARK    3  A    between atoms: C_2  and  N_11
REMARK    4  A    between atoms: N_14  and  C_15
REMARK    5  A    between atoms: C_15  and  C_16
REMARK    6  A    between atoms: C_21  and  N_22
REMARK    7  A    between atoms: N_25  and  C_28
REMARK                            x       y       z     vdW  Elec       q    Type
REMARK                         _______ _______ _______ _____ _____    ______ ____
ROOT
ATOM      1  N   UNL     1       0.908  -0.252   1.076  0.00  0.00    -0.293 N 
ATOM      2  C   UNL     1       2.235  -0.484   1.080  0.00  0.00    +0.300 C 
ATOM      3  O   UNL     1       2.891  -0.281   0.076  0.00  0.00    -0.253 OA
ATOM      4  N   UNL     1       2.836  -0.942   2.196  0.00  0.00    -0.295 N 
ATOM      5  H   UNL     1       0.384  -0.414   1.876  0.00  0.00    +0.151 HD
ATOM      6  H   UNL     1       2.312  -1.104   2.997  0.00  0.00    +0.151 HD
ENDROOT
BRANCH   1   8
ATOM      7  C   UNL     1       0.374   1.770  -0.192  0.00  0.00    +0.033 C 
ATOM      8  C   UNL     1       0.255   0.246  -0.138  0.00  0.00    +0.102 C 
BRANCH   8   9
ATOM      9  C   UNL     1      -1.201  -0.144  -0.121  0.00  0.00    -0.027 A 
ATOM     10  C   UNL     1      -1.921  -0.075   1.057  0.00  0.00    +0.008 A 
ATOM     11  C   UNL     1      -3.256  -0.432   1.073  0.00  0.00    +0.038 A 
ATOM     12  C   UNL     1      -3.872  -0.859  -0.091  0.00  0.00    +0.123 A 
ATOM     13  C   UNL     1      -3.150  -0.928  -1.270  0.00  0.00    +0.038 A 
ATOM     14  C   UNL     1      -1.816  -0.566  -1.285  0.00  0.00    +0.008 A 
ATOM     15  F   UNL     1      -5.177  -1.209  -0.076  0.00  0.00    -0.205 F 
ENDBRANCH   8   9
ENDBRANCH   1   8
BRANCH   4  16
ATOM     16  C   UNL     1       4.279  -1.195   2.200  0.00  0.00    +0.144 C 
BRANCH  16  17
ATOM     17  C   UNL     1       4.697  -1.698   3.558  0.00  0.00    +0.010 A 
ATOM     18  C   UNL     1       5.298  -0.845   4.467  0.00  0.00    +0.010 A 
ATOM     19  C   UNL     1       5.666  -1.350   5.707  0.00  0.00    +0.020 A 
ATOM     20  C   UNL     1       5.424  -2.679   5.994  0.00  0.00    +0.113 A 
ATOM     21  N   UNL     1       4.850  -3.470   5.108  0.00  0.00    -0.240 NA
ATOM     22  C   UNL     1       4.478  -3.024   3.917  0.00  0.00    +0.126 A 
BRANCH  22  23
ATOM     23  N   UNL     1       3.870  -3.890   3.016  0.00  0.00    -0.318 N 
ATOM     24  C   UNL     1       4.673  -4.712   2.098  0.00  0.00    +0.088 C 
ATOM     25  C   UNL     1       4.198  -6.165   2.205  0.00  0.00    -0.060 C 
ATOM     26  N   UNL     1       2.751  -6.225   1.964  0.00  0.00    +0.380 N 
ATOM     27  C   UNL     1       2.037  -5.497   3.021  0.00  0.00    -0.060 C 
ATOM     28  C   UNL     1       2.405  -4.015   2.958  0.00  0.00    +0.088 C 
ATOM     29  C   UNL     1       2.315  -7.628   1.958  0.00  0.00    -0.096 C 
ATOM     30  H   UNL     1       2.542  -5.807   1.070  0.00  0.00    -0.082 HD
ENDBRANCH  22  23
ENDBRANCH  16  17
ENDBRANCH   4  16
TORSDOF 5
