REMARK  Name = ZINC35780122
REMARK  10 active torsions:
REMARK  status: ('A' for Active; 'I' for Inactive)
REMARK    1  A    between atoms: C_1  and  O_2
REMARK    2  A    between atoms: O_2  and  C_3
REMARK    3  A    between atoms: C_5  and  N_11
REMARK    4  A    between atoms: C_7  and  O_9
REMARK    5  A    between atoms: O_9  and  C_10
REMARK    6  A    between atoms: C_12  and  C_14
REMARK    7  A    between atoms: C_14  and  C_16
REMARK    8  A    between atoms: C_14  and  N_21
REMARK    9  A    between atoms: C_27  and  C_29
REMARK   10  A    between atoms: C_34  and  C_35
REMARK                            x       y       z     vdW  Elec       q    Type
REMARK                         _______ _______ _______ _____ _____    ______ ____
ROOT
ATOM      1  C   UNL     1      -4.416  -5.207   1.187  0.00  0.00    +0.023 C 
ENDROOT
BRANCH   1   2
ATOM      2  N   UNL     1      -5.767  -5.761   1.028  0.00  0.00    +0.390 N 
ATOM      3  C   UNL     1      -5.790  -7.143   1.521  0.00  0.00    -0.058 C 
ATOM      4  C   UNL     1      -7.223  -7.683   1.461  0.00  0.00    +0.089 C 
ATOM      5  N   UNL     1      -7.726  -7.519   0.088  0.00  0.00    -0.301 N 
ATOM      6  C   UNL     1      -7.593  -6.199  -0.546  0.00  0.00    +0.089 C 
ATOM      7  C   UNL     1      -6.142  -5.730  -0.392  0.00  0.00    -0.058 C 
ATOM      8  C   UNL     1      -8.292  -8.551  -0.570  0.00  0.00    +0.247 C 
ATOM      9  O   UNL     1      -8.584  -8.435  -1.744  0.00  0.00    -0.270 OA
ATOM     10  H   UNL     1      -6.421  -5.206   1.559  0.00  0.00    -0.081 HD
BRANCH   8  11
ATOM     11  C   UNL     1      -8.557  -9.822   0.137  0.00  0.00    +0.049 A 
ATOM     12  C   UNL     1      -9.164  -9.812   1.394  0.00  0.00    +0.013 A 
ATOM     13  C   UNL     1      -9.409 -11.002   2.048  0.00  0.00    +0.001 A 
ATOM     14  C   UNL     1      -9.054 -12.203   1.460  0.00  0.00    +0.001 A 
ATOM     15  C   UNL     1      -8.453 -12.220   0.214  0.00  0.00    +0.013 A 
ATOM     16  C   UNL     1      -8.207 -11.037  -0.453  0.00  0.00    +0.067 A 
BRANCH  16  17
ATOM     17  C   UNL     1      -7.558 -11.058  -1.812  0.00  0.00    +0.418 C 
ATOM     18  F   UNL     1      -7.304 -12.382  -2.188  0.00  0.00    -0.166 F 
ATOM     19  F   UNL     1      -8.412 -10.464  -2.747  0.00  0.00    -0.166 F 
ATOM     20  F   UNL     1      -6.353 -10.348  -1.764  0.00  0.00    -0.166 F 
ENDBRANCH  16  17
ENDBRANCH   8  11
ENDBRANCH   1   2
BRANCH   1  21
ATOM     21  C   UNL     1      -4.041  -5.197   2.671  0.00  0.00    -0.016 C 
ATOM     22  C   UNL     1      -5.053  -4.344   3.465  0.00  0.00    +0.002 C 
ATOM     23  C   UNL     1      -4.191  -3.632   4.537  0.00  0.00    +0.000 C 
ATOM     24  C   UNL     1      -2.888  -3.306   3.765  0.00  0.00    +0.000 C 
ATOM     25  C   UNL     1      -2.665  -4.536   2.862  0.00  0.00    +0.002 C 
ENDBRANCH   1  21
BRANCH   1  27
ATOM     26  N   UNL     1      -3.237  -3.297   0.148  0.00  0.00    -0.287 N 
ATOM     27  C   UNL     1      -4.382  -3.800   0.650  0.00  0.00    +0.204 C 
ATOM     28  O   UNL     1      -5.386  -3.119   0.670  0.00  0.00    -0.277 OA
ATOM     29  H   UNL     1      -2.470  -3.876   0.018  0.00  0.00    +0.155 HD
BRANCH  26  32
ATOM     30  C   UNL     1      -1.847   0.051  -0.495  0.00  0.00    +0.125 A 
ATOM     31  C   UNL     1      -1.928  -1.293  -0.164  0.00  0.00    +0.069 A 
ATOM     32  C   UNL     1      -3.155  -1.941  -0.186  0.00  0.00    +0.040 A 
ATOM     33  C   UNL     1      -4.302  -1.243  -0.539  0.00  0.00    +0.069 A 
ATOM     34  C   UNL     1      -4.220   0.101  -0.871  0.00  0.00    +0.125 A 
ATOM     35  C   UNL     1      -2.994   0.749  -0.844  0.00  0.00    +0.091 A 
BRANCH  30  37
ATOM     36  C   UNL     1      -0.638   2.071  -0.820  0.00  0.00    +0.277 C 
ATOM     37  O   UNL     1      -0.646   0.685  -0.474  0.00  0.00    -0.495 OA
ENDBRANCH  30  37
BRANCH  34  38
ATOM     38  O   UNL     1      -5.342   0.785  -1.217  0.00  0.00    -0.495 OA
ATOM     39  C   UNL     1      -5.184   2.167  -1.546  0.00  0.00    +0.277 C 
ENDBRANCH  34  38
ENDBRANCH  26  32
ENDBRANCH   1  27
TORSDOF 8
