REMARK  Name = ZINC10186304
REMARK  7 active torsions:
REMARK  status: ('A' for Active; 'I' for Inactive)
REMARK    1  A    between atoms: C_3  and  C_25
REMARK    2  A    between atoms: C_5  and  N_7
REMARK    3  A    between atoms: C_8  and  C_10
REMARK    4  A    between atoms: C_10  and  S_11
REMARK    5  A    between atoms: S_11  and  C_12
REMARK    6  A    between atoms: C_15  and  C_18
REMARK    7  A    between atoms: N_16  and  N_17
REMARK                            x       y       z     vdW  Elec       q    Type
REMARK                         _______ _______ _______ _____ _____    ______ ____
ROOT
ATOM      1  S   UNL     1      -3.876   2.162   0.367  0.00  0.00    -0.075 S 
ENDROOT
BRANCH   1   2
ATOM      2  C   UNL     1      -5.243   1.050   0.372  0.00  0.00    +0.209 A 
ATOM      3  N   UNL     1      -5.183  -0.260   0.286  0.00  0.00    -0.121 NA
ATOM      4  N   UNL     1      -6.366  -0.760   0.323  0.00  0.00    -0.127 NA
ATOM      5  C   UNL     1      -7.255   0.200   0.426  0.00  0.00    +0.182 A 
ATOM      6  N   UNL     1      -6.563   1.389   0.461  0.00  0.00    -0.224 N 
BRANCH   5   7
ATOM      7  C   UNL     1      -8.723   0.036   0.492  0.00  0.00    +0.021 A 
ATOM      8  C   UNL     1      -9.275  -1.209   0.796  0.00  0.00    +0.013 A 
ATOM      9  C   UNL     1     -10.645  -1.355   0.863  0.00  0.00    +0.021 A 
ATOM     10  C   UNL     1     -11.472  -0.272   0.616  0.00  0.00    +0.041 A 
ATOM     11  C   UNL     1     -10.930   0.964   0.308  0.00  0.00    +0.021 A 
ATOM     12  C   UNL     1      -9.562   1.124   0.245  0.00  0.00    +0.013 A 
ATOM     13 CL   UNL     1     -13.196  -0.466   0.694  0.00  0.00    -0.084 Cl
ENDBRANCH   5   7
BRANCH   6  14
ATOM     14  N   UNL     1      -7.087   2.646   0.563  0.00  0.00    -0.295 N 
ATOM     15  H   UNL     1      -7.361   2.998  -0.343  0.00  0.00    +0.163 HD
ATOM     16  H   UNL     1      -7.863   2.664   1.207  0.00  0.00    +0.163 HD
ENDBRANCH   6  14
ENDBRANCH   1   2
BRANCH   1  17
ATOM     17  C   UNL     1      -2.511   0.981   0.226  0.00  0.00    +0.173 C 
BRANCH  17  19
ATOM     18  N   UNL     1      -0.042   1.049   0.102  0.00  0.00    -0.285 N 
ATOM     19  C   UNL     1      -1.202   1.727   0.203  0.00  0.00    +0.227 C 
ATOM     20  O   UNL     1      -1.193   2.938   0.274  0.00  0.00    -0.275 OA
ATOM     21  H   UNL     1      -0.051   0.087  -0.022  0.00  0.00    +0.155 HD
BRANCH  18  26
ATOM     22  C   UNL     1       2.494   3.681  -0.295  0.00  0.00    +0.002 A 
ATOM     23  C   UNL     1       3.586   3.086   0.311  0.00  0.00    +0.012 A 
ATOM     24  C   UNL     1       3.476   1.817   0.847  0.00  0.00    +0.057 A 
ATOM     25  C   UNL     1       2.275   1.139   0.780  0.00  0.00    +0.035 A 
ATOM     26  C   UNL     1       1.177   1.733   0.172  0.00  0.00    +0.034 A 
ATOM     27  C   UNL     1       1.292   3.007  -0.371  0.00  0.00    +0.023 A 
BRANCH  24  28
ATOM     28  C   UNL     1       4.668   1.172   1.506  0.00  0.00    +0.417 C 
ATOM     29  F   UNL     1       5.396   0.453   0.552  0.00  0.00    -0.166 F 
ATOM     30  F   UNL     1       5.484   2.162   2.066  0.00  0.00    -0.166 F 
ATOM     31  F   UNL     1       4.232   0.304   2.513  0.00  0.00    -0.166 F 
ENDBRANCH  24  28
ENDBRANCH  18  26
ENDBRANCH  17  19
ENDBRANCH   1  17
TORSDOF 7
