REMARK  Name = ZINC15967917
REMARK  5 active torsions:
REMARK  status: ('A' for Active; 'I' for Inactive)
REMARK    1  A    between atoms: C_1  and  C_2
REMARK    2  A    between atoms: C_5  and  C_8
REMARK    3  A    between atoms: C_8  and  C_10
REMARK    4  A    between atoms: C_31  and  C_39
REMARK    5  A    between atoms: C_33  and  C_38
REMARK                            x       y       z     vdW  Elec       q    Type
REMARK                         _______ _______ _______ _____ _____    ______ ____
ROOT
ATOM      1  C   UNL     1       0.075  -5.006   1.280  0.00  0.00    +0.099 C 
ATOM      2  C   UNL     1      -1.361  -5.253   1.775  0.00  0.00    +0.070 C 
ATOM      3  C   UNL     1      -1.421  -5.032   3.300  0.00  0.00    +0.021 C 
ATOM      4  C   UNL     1      -2.352  -6.176   3.780  0.00  0.00    +0.017 C 
ATOM      5  C   UNL     1      -1.951  -7.327   2.825  0.00  0.00    +0.086 C 
ATOM      6  N   UNL     1      -1.694  -6.669   1.513  0.00  0.00    -0.281 NA
ATOM      7  C   UNL     1      -0.554  -7.304   0.839  0.00  0.00    +0.145 C 
ATOM      8  C   UNL     1       0.662  -6.408   1.072  0.00  0.00    +0.116 C 
ATOM      9  C   UNL     1       1.472  -6.852   2.256  0.00  0.00    -0.008 A 
ATOM     10  C   UNL     1       1.183  -7.036   3.590  0.00  0.00    +0.006 A 
ATOM     11  C   UNL     1       2.168  -7.468   4.459  0.00  0.00    +0.000 A 
ATOM     12  C   UNL     1       3.444  -7.715   3.986  0.00  0.00    +0.002 A 
ATOM     13  C   UNL     1       3.739  -7.532   2.651  0.00  0.00    +0.023 A 
ATOM     14  C   UNL     1       2.753  -7.098   1.768  0.00  0.00    +0.038 A 
ATOM     15  N   UNL     1       2.804  -6.845   0.396  0.00  0.00    -0.284 N 
ATOM     16  C   UNL     1       1.616  -6.437  -0.090  0.00  0.00    +0.231 C 
ATOM     17  O   UNL     1       1.364  -6.149  -1.241  0.00  0.00    -0.274 OA
ATOM     18  C   UNL     1      -0.315  -8.694   1.367  0.00  0.00    +0.005 A 
ATOM     19  C   UNL     1      -0.023  -9.191   2.617  0.00  0.00    +0.011 A 
ATOM     20  C   UNL     1       0.148 -10.553   2.797  0.00  0.00    -0.050 A 
ATOM     21  C   UNL     1       0.026 -11.410   1.719  0.00  0.00    +0.008 A 
ATOM     22  C   UNL     1      -0.268 -10.915   0.465  0.00  0.00    -0.029 A 
ATOM     23  C   UNL     1      -0.442  -9.546   0.275  0.00  0.00    +0.042 A 
ATOM     24  N   UNL     1      -0.740  -8.814  -0.876  0.00  0.00    -0.283 N 
ATOM     25  C   UNL     1      -0.824  -7.493  -0.631  0.00  0.00    +0.244 C 
ATOM     26  O   UNL     1      -1.071  -6.623  -1.439  0.00  0.00    -0.273 OA
ATOM     27  C   UNL     1      -0.401 -11.858  -0.703  0.00  0.00    +0.045 C 
ATOM     28  C   UNL     1       0.469 -11.100   4.164  0.00  0.00    +0.044 C 
ATOM     29  H   UNL     1       3.603  -6.950  -0.144  0.00  0.00    +0.155 HD
ATOM     30  H   UNL     1      -0.871  -9.212  -1.751  0.00  0.00    +0.155 HD
ENDROOT
BRANCH   1  31
ATOM     31  C   UNL     1       0.058  -4.245  -0.021  0.00  0.00    +0.169 C 
ATOM     32  O   UNL     1      -0.923  -4.283  -0.733  0.00  0.00    -0.292 OA
BRANCH  31  37
ATOM     33  C   UNL     1       4.644  -1.163  -1.607  0.00  0.00    +0.044 C 
ATOM     34  C   UNL     1       3.442  -1.972  -1.192  0.00  0.00    -0.050 A 
ATOM     35  C   UNL     1       2.325  -2.013  -2.008  0.00  0.00    +0.004 A 
ATOM     36  C   UNL     1       1.221  -2.750  -1.634  0.00  0.00    +0.011 A 
ATOM     37  C   UNL     1       1.232  -3.457  -0.428  0.00  0.00    +0.018 A 
ATOM     38  C   UNL     1       2.365  -3.410   0.391  0.00  0.00    +0.011 A 
ATOM     39  C   UNL     1       3.463  -2.673   0.001  0.00  0.00    +0.004 A 
ENDBRANCH  31  37
ENDBRANCH   1  31
TORSDOF 2
