REMARK  Name = ZINC33422175
REMARK  6 active torsions:
REMARK  status: ('A' for Active; 'I' for Inactive)
REMARK    1  A    between atoms: C_3  and  C_14
REMARK    2  A    between atoms: C_5  and  N_7
REMARK    3  A    between atoms: C_8  and  C_10
REMARK    4  A    between atoms: C_17  and  C_19
REMARK    5  A    between atoms: C_23  and  N_25
REMARK    6  A    between atoms: C_26  and  C_28
REMARK                            x       y       z     vdW  Elec       q    Type
REMARK                         _______ _______ _______ _____ _____    ______ ____
ROOT
ATOM      1  C   UNL     1       3.831   2.588  -0.082  0.00  0.00    +0.249 A 
ATOM      2  N   UNL     1       5.029   2.103  -0.315  0.00  0.00    -0.107 NA
ATOM      3  N   UNL     1       5.860   3.072  -0.473  0.00  0.00    -0.107 NA
ATOM      4  C   UNL     1       5.225   4.215  -0.347  0.00  0.00    +0.249 A 
ATOM      5  O   UNL     1       3.929   3.933  -0.103  0.00  0.00    -0.416 OA
ENDROOT
BRANCH   1   8
ATOM      6  C   UNL     1       0.240   1.722   0.603  0.00  0.00    +0.003 A 
ATOM      7  C   UNL     1       1.388   2.457   0.384  0.00  0.00    +0.013 A 
ATOM      8  C   UNL     1       2.601   1.804   0.154  0.00  0.00    +0.040 A 
ATOM      9  C   UNL     1       2.647   0.410   0.147  0.00  0.00    +0.036 A 
ATOM     10  C   UNL     1       1.489  -0.318   0.368  0.00  0.00    +0.034 A 
ATOM     11  C   UNL     1       0.286   0.341   0.596  0.00  0.00    +0.023 A 
BRANCH  10  12
ATOM     12  N   UNL     1       1.530  -1.717   0.362  0.00  0.00    -0.278 N 
ATOM     13  C   UNL     1       2.626  -2.361   0.810  0.00  0.00    +0.321 C 
ATOM     14  O   UNL     1       3.539  -1.733   1.303  0.00  0.00    -0.266 OA
ATOM     15  H   UNL     1       0.769  -2.223   0.036  0.00  0.00    +0.155 HD
BRANCH  13  16
ATOM     16  C   UNL     1       2.717  -3.861   0.697  0.00  0.00    +0.470 C 
ATOM     17  F   UNL     1       3.938  -4.295   1.225  0.00  0.00    -0.162 F 
ATOM     18  F   UNL     1       1.666  -4.447   1.411  0.00  0.00    -0.162 F 
ATOM     19  F   UNL     1       2.632  -4.234  -0.648  0.00  0.00    -0.162 F 
ENDBRANCH  13  16
ENDBRANCH  10  12
ENDBRANCH   1   8
BRANCH   4  20
ATOM     20  C   UNL     1       5.820   5.563  -0.458  0.00  0.00    +0.040 A 
ATOM     21  C   UNL     1       5.022   6.697  -0.293  0.00  0.00    +0.013 A 
ATOM     22  C   UNL     1       5.580   7.955  -0.398  0.00  0.00    +0.003 A 
ATOM     23  C   UNL     1       6.929   8.097  -0.665  0.00  0.00    +0.023 A 
ATOM     24  C   UNL     1       7.732   6.975  -0.830  0.00  0.00    +0.034 A 
ATOM     25  C   UNL     1       7.183   5.707  -0.721  0.00  0.00    +0.036 A 
BRANCH  24  26
ATOM     26  N   UNL     1       9.097   7.125  -1.100  0.00  0.00    -0.278 N 
ATOM     27  C   UNL     1       9.722   6.253  -1.917  0.00  0.00    +0.321 C 
ATOM     28  O   UNL     1       9.123   5.292  -2.351  0.00  0.00    -0.266 OA
ATOM     29  H   UNL     1       9.594   7.856  -0.700  0.00  0.00    +0.155 HD
BRANCH  27  30
ATOM     30  C   UNL     1      11.165   6.473  -2.291  0.00  0.00    +0.470 C 
ATOM     31  F   UNL     1      11.588   5.446  -3.140  0.00  0.00    -0.162 F 
ATOM     32  F   UNL     1      11.295   7.703  -2.946  0.00  0.00    -0.162 F 
ATOM     33  F   UNL     1      11.952   6.476  -1.134  0.00  0.00    -0.162 F 
ENDBRANCH  27  30
ENDBRANCH  24  26
ENDBRANCH   4  20
TORSDOF 6
