REMARK  Name = ZINC02501765
REMARK  8 active torsions:
REMARK  status: ('A' for Active; 'I' for Inactive)
REMARK    1  A    between atoms: C_1  and  C_2
REMARK    2  A    between atoms: C_2  and  S_3
REMARK    3  A    between atoms: S_3  and  C_4
REMARK    4  A    between atoms: C_8  and  C_9
REMARK    5  A    between atoms: C_11  and  C_31
REMARK    6  A    between atoms: C_12  and  N_30
REMARK    7  A    between atoms: N_13  and  C_21
REMARK    8  A    between atoms: C_25  and  N_27
REMARK                            x       y       z     vdW  Elec       q    Type
REMARK                         _______ _______ _______ _____ _____    ______ ____
ROOT
ATOM      1  C   UNL     1      -0.173   7.926   0.908  0.00  0.00    +0.105 C 
ATOM      2  C   UNL     1      -1.364   7.200   0.355  0.00  0.00    +0.077 C 
ATOM      3  C   UNL     1      -1.270   5.910  -0.057  0.00  0.00    +0.107 C 
ATOM      4  N   UNL     1      -0.066   5.247   0.018  0.00  0.00    -0.260 N 
ATOM      5  C   UNL     1       1.108   5.946   0.121  0.00  0.00    +0.024 C 
ATOM      6  C   UNL     1       1.112   7.229   0.536  0.00  0.00    +0.026 C 
ATOM      7  C   UNL     1       2.312   7.954   0.642  0.00  0.00    +0.162 C 
ATOM      8  O   UNL     1       2.279   9.112   1.009  0.00  0.00    -0.292 OA
ATOM      9  C   UNL     1       3.635   7.322   0.326  0.00  0.00    +0.080 C 
ATOM     10  C   UNL     1       3.545   5.814   0.583  0.00  0.00    +0.014 C 
ATOM     11  C   UNL     1       2.393   5.248  -0.251  0.00  0.00    +0.052 C 
ENDROOT
BRANCH   4  12
ATOM     12  C   UNL     1      -0.040   3.847  -0.005  0.00  0.00    +0.042 A 
ATOM     13  C   UNL     1       0.045   3.173  -1.216  0.00  0.00    +0.024 A 
ATOM     14  C   UNL     1       0.070   1.792  -1.235  0.00  0.00    +0.004 A 
ATOM     15  C   UNL     1       0.011   1.081  -0.050  0.00  0.00    +0.033 A 
ATOM     16  C   UNL     1      -0.080   1.750   1.157  0.00  0.00    +0.128 A 
ATOM     17  C   UNL     1      -0.101   3.131   1.183  0.00  0.00    +0.056 A 
BRANCH  16  18
ATOM     18  N   UNL     1      -0.150   0.985   2.422  0.00  0.00    +0.056 N 
ATOM     19  O   UNL     1      -0.127  -0.233   2.400  0.00  0.00    -0.126 OA
ATOM     20  O   UNL     1      -0.230   1.573   3.486  0.00  0.00    -0.126 OA
ENDBRANCH  16  18
ENDBRANCH   4  12
BRANCH   1  25
ATOM     21  C   UNL     1      -0.338   9.079   3.219  0.00  0.00    +0.019 A 
ATOM     22  C   UNL     1      -0.446   8.890   4.588  0.00  0.00    +0.022 A 
ATOM     23  C   UNL     1      -0.484   7.625   5.076  0.00  0.00    +0.046 A 
ATOM     24  S   UNL     1      -0.374   6.649   3.586  0.00  0.00    -0.100 S 
ATOM     25  C   UNL     1      -0.285   7.988   2.409  0.00  0.00    +0.016 A 
BRANCH  21  26
ATOM     26  S   UNL     1      -0.275  10.704   2.541  0.00  0.00    -0.125 S 
BRANCH  26  28
ATOM     27  C   UNL     1      -0.332  13.250   3.538  0.00  0.00    +0.015 C 
ATOM     28  C   UNL     1      -0.376  11.789   3.991  0.00  0.00    +0.071 C 
ENDBRANCH  26  28
ENDBRANCH  21  26
ENDBRANCH   1  25
BRANCH   3  29
ATOM     29  N   UNL     1      -2.379   5.264  -0.549  0.00  0.00    -0.345 N 
ATOM     30  H   UNL     1      -2.334   4.320  -0.766  0.00  0.00    +0.144 HD
ATOM     31  H   UNL     1      -3.206   5.753  -0.681  0.00  0.00    +0.144 HD
ENDBRANCH   3  29
BRANCH   2  32
ATOM     32  C   UNL     1      -2.621   7.879   0.262  0.00  0.00    +0.099 C 
ATOM     33  N   UNL     1      -3.618   8.418   0.188  0.00  0.00    -0.191 NA
ENDBRANCH   2  32
TORSDOF 7
