REMARK  Name = ZINC12821172
REMARK  9 active torsions:
REMARK  status: ('A' for Active; 'I' for Inactive)
REMARK    1  A    between atoms: C_1  and  C_2
REMARK    2  A    between atoms: C_2  and  N_3
REMARK    3  A    between atoms: C_7  and  C_9
REMARK    4  A    between atoms: C_9  and  C_11
REMARK    5  A    between atoms: C_9  and  S_12
REMARK    6  A    between atoms: S_12  and  C_13
REMARK    7  A    between atoms: C_17  and  C_21
REMARK    8  A    between atoms: C_18  and  C_20
REMARK    9  A    between atoms: N_24  and  C_25
REMARK                            x       y       z     vdW  Elec       q    Type
REMARK                         _______ _______ _______ _____ _____    ______ ____
ROOT
ATOM      1  C   UNL     1       2.404   0.735   0.078  0.00  0.00    +0.174 A 
ATOM      2  N   UNL     1       3.648   1.170   0.065  0.00  0.00    -0.216 NA
ATOM      3  C   UNL     1       3.915   2.468  -0.014  0.00  0.00    +0.117 A 
ATOM      4  C   UNL     1       2.897   3.436  -0.095  0.00  0.00    +0.075 A 
ATOM      5  C   UNL     1       3.364   4.810  -0.176  0.00  0.00    -0.026 A 
ATOM      6  C   UNL     1       4.682   5.056  -0.170  0.00  0.00    -0.008 A 
ATOM      7  S   UNL     1       5.405   3.430  -0.052  0.00  0.00    -0.073 S 
ATOM      8  C   UNL     1       5.384   6.387  -0.245  0.00  0.00    +0.052 C 
ATOM      9  C   UNL     1       2.377   5.946  -0.267  0.00  0.00    +0.045 C 
ATOM     10  C   UNL     1       1.558   2.934  -0.085  0.00  0.00    +0.263 A 
ATOM     11  O   UNL     1       0.611   3.699  -0.150  0.00  0.00    -0.267 OA
ATOM     12  N   UNL     1       1.357   1.606  -0.002  0.00  0.00    -0.284 N 
ENDROOT
BRANCH  12  13
ATOM     13  C   UNL     1      -0.013   1.086   0.008  0.00  0.00    +0.093 C 
ATOM     14  C   UNL     1      -0.739   1.534   1.293  0.00  0.00    +0.025 C 
ATOM     15  C   UNL     1      -1.515   2.805   0.866  0.00  0.00    +0.002 C 
ATOM     16  C   UNL     1      -1.989   2.453  -0.566  0.00  0.00    +0.002 C 
ATOM     17  C   UNL     1      -0.807   1.670  -1.173  0.00  0.00    +0.025 C 
ENDBRANCH  12  13
BRANCH   1  18
ATOM     18  S   UNL     1       2.090  -0.995   0.192  0.00  0.00    -0.075 S 
BRANCH  18  19
ATOM     19  C   UNL     1       3.787  -1.619   0.267  0.00  0.00    +0.137 C 
ATOM     20  C   UNL     1       4.452  -1.134   1.556  0.00  0.00    +0.029 C 
BRANCH  19  25
ATOM     21  N   UNL     1       5.968  -5.838  -0.479  0.00  0.00    -0.299 N 
ATOM     22  C   UNL     1       4.861  -5.155  -0.125  0.00  0.00    +0.306 C 
ATOM     23  O   UNL     1       3.849  -5.756   0.178  0.00  0.00    -0.252 OA
ATOM     24  N   UNL     1       4.877  -3.808  -0.107  0.00  0.00    -0.239 N 
ATOM     25  C   UNL     1       3.770  -3.126   0.247  0.00  0.00    +0.233 C 
ATOM     26  O   UNL     1       2.760  -3.724   0.549  0.00  0.00    -0.274 OA
ATOM     27  H   UNL     1       6.777  -5.359  -0.722  0.00  0.00    +0.150 HD
ATOM     28  H   UNL     1       5.685  -3.329  -0.349  0.00  0.00    +0.159 HD
BRANCH  21  30
ATOM     29  C   UNL     1       7.324  -7.822  -0.932  0.00  0.00    +0.024 C 
ATOM     30  C   UNL     1       5.952  -7.302  -0.499  0.00  0.00    +0.102 C 
ENDBRANCH  21  30
ENDBRANCH  19  25
ENDBRANCH  18  19
ENDBRANCH   1  18
TORSDOF 5
