REMARK  Name = ZINC63426685
REMARK  5 active torsions:
REMARK  status: ('A' for Active; 'I' for Inactive)
REMARK    1  A    between atoms: C_3  and  C_6
REMARK    2  A    between atoms: C_6  and  N_7
REMARK    3  A    between atoms: C_15  and  O_39
REMARK    4  A    between atoms: C_16  and  C_20
REMARK    5  A    between atoms: C_26  and  C_29
REMARK                            x       y       z     vdW  Elec       q    Type
REMARK                         _______ _______ _______ _____ _____    ______ ____
ROOT
ATOM      1  N   UNL     1       4.101   0.607   1.347  0.00  0.00    -0.286 N 
ATOM      2  C   UNL     1       4.491   1.834   2.047  0.00  0.00    +0.106 C 
ATOM      3  C   UNL     1       4.249   3.074   1.230  0.00  0.00    +0.027 C 
ATOM      4  C   UNL     1       3.067   3.889   1.748  0.00  0.00    +0.002 C 
ATOM      5  C   UNL     1       3.337   4.236   3.220  0.00  0.00    +0.005 C 
ATOM      6  C   UNL     1       3.151   2.957   4.038  0.00  0.00    +0.036 C 
ATOM      7  C   UNL     1       3.909   1.835   3.423  0.00  0.00    -0.011 C 
ATOM      8  C   UNL     1       4.052   0.717   4.141  0.00  0.00    +0.116 C 
ATOM      9  C   UNL     1       4.768  -0.437   3.467  0.00  0.00    +0.226 C 
ATOM     10  C   UNL     1       4.226  -0.554   2.054  0.00  0.00    +0.236 C 
ATOM     11  O   UNL     1       3.924  -1.627   1.576  0.00  0.00    -0.274 OA
ENDROOT
BRANCH   9  12
ATOM     12  C   UNL     1       6.250  -0.167   3.431  0.00  0.00    +0.238 C 
ATOM     13  O   UNL     1       6.691   0.859   3.904  0.00  0.00    -0.274 OA
ATOM     14  N   UNL     1       7.086  -1.066   2.873  0.00  0.00    -0.264 N 
ATOM     15  C   UNL     1       8.453  -0.817   2.840  0.00  0.00    +0.165 A 
ATOM     16  N   UNL     1       9.409  -1.568   2.338  0.00  0.00    -0.229 NA
ATOM     17  H   UNL     1       6.733  -1.886   2.495  0.00  0.00    +0.157 HD
ATOM     18  C   UNL     1      10.672  -1.187   2.385  0.00  0.00    +0.057 A 
ATOM     19  C   UNL     1      10.934   0.006   2.972  0.00  0.00    +0.072 A 
ATOM     20  S   UNL     1       9.286   0.523   3.427  0.00  0.00    -0.060 S 
BRANCH  18  21
ATOM     21  C   UNL     1      11.773  -2.042   1.813  0.00  0.00    +0.014 C 
ATOM     22  C   UNL     1      12.252  -1.438   0.491  0.00  0.00    +0.016 C 
ATOM     23  C   UNL     1      13.371  -2.305  -0.090  0.00  0.00    -0.010 C 
ATOM     24  C   UNL     1      12.843  -3.720  -0.337  0.00  0.00    +0.007 C 
ATOM     25  C   UNL     1      12.364  -4.324   0.985  0.00  0.00    -0.010 C 
ATOM     26  C   UNL     1      11.245  -3.456   1.566  0.00  0.00    +0.016 C 
ATOM     27  C   UNL     1      13.531  -4.380   1.973  0.00  0.00    +0.007 C 
ATOM     28  C   UNL     1      14.059  -2.966   2.220  0.00  0.00    -0.010 C 
ATOM     29  C   UNL     1      14.538  -2.362   0.898  0.00  0.00    +0.007 C 
ATOM     30  C   UNL     1      12.940  -2.098   2.801  0.00  0.00    +0.016 C 
ENDBRANCH  18  21
ENDBRANCH   9  12
BRANCH   8  31
ATOM     31  O   UNL     1       3.581   0.620   5.409  0.00  0.00    -0.510 OA
ATOM     32  H   UNL     1       3.744  -0.238   5.825  0.00  0.00    +0.292 HD
ENDBRANCH   8  31
BRANCH   1  33
ATOM     33  C   UNL     1       3.599   0.625  -0.029  0.00  0.00    +0.182 C 
BRANCH  33  36
ATOM     34  C   UNL     1       6.391  -0.028  -2.345  0.00  0.00    +0.041 A 
ATOM     35  C   UNL     1       5.353  -0.479  -1.498  0.00  0.00    +0.046 A 
ATOM     36  C   UNL     1       4.761   0.616  -0.988  0.00  0.00    +0.122 A 
ATOM     37  O   UNL     1       5.383   1.701  -1.479  0.00  0.00    -0.466 OA
ATOM     38  C   UNL     1       6.372   1.317  -2.303  0.00  0.00    +0.195 A 
ENDBRANCH  33  36
ENDBRANCH   1  33
TORSDOF 5
