REMARK  Name = ZINC09382053
REMARK  6 active torsions:
REMARK  status: ('A' for Active; 'I' for Inactive)
REMARK    1  A    between atoms: C_6  and  C_7
REMARK    2  A    between atoms: C_7  and  S_8
REMARK    3  A    between atoms: S_8  and  C_9
REMARK    4  A    between atoms: C_12  and  C_21
REMARK    5  A    between atoms: N_13  and  C_14
REMARK    6  A    between atoms: C_21  and  C_22
REMARK                            x       y       z     vdW  Elec       q    Type
REMARK                         _______ _______ _______ _____ _____    ______ ____
ROOT
ATOM      1  C   UNL     1       1.246  -4.520  -1.449  0.00  0.00    +0.196 A 
ATOM      2  N   UNL     1       1.270  -5.122  -0.283  0.00  0.00    -0.122 NA
ATOM      3  N   UNL     1       1.280  -6.397  -0.448  0.00  0.00    -0.133 NA
ATOM      4  C   UNL     1       1.272  -6.684  -1.719  0.00  0.00    +0.144 A 
ATOM      5  N   UNL     1       1.250  -5.498  -2.405  0.00  0.00    -0.274 N 
ENDROOT
BRANCH   5   6
ATOM      6  C   UNL     1       1.235  -5.324  -3.797  0.00  0.00    +0.050 A 
ATOM      7  C   UNL     1       0.147  -5.761  -4.540  0.00  0.00    +0.029 A 
ATOM      8  C   UNL     1       0.131  -5.583  -5.910  0.00  0.00    +0.040 A 
ATOM      9  C   UNL     1       1.205  -4.980  -6.543  0.00  0.00    +0.124 A 
ATOM     10  C   UNL     1       2.294  -4.549  -5.804  0.00  0.00    +0.040 A 
ATOM     11  C   UNL     1       2.310  -4.720  -4.433  0.00  0.00    +0.029 A 
ATOM     12  F   UNL     1       1.190  -4.812  -7.883  0.00  0.00    -0.205 F 
ENDBRANCH   5   6
BRANCH   1  13
ATOM     13  S   UNL     1       1.220  -2.781  -1.730  0.00  0.00    -0.081 S 
BRANCH  13  14
ATOM     14  C   UNL     1       1.228  -2.186  -0.020  0.00  0.00    +0.112 C 
BRANCH  14  20
ATOM     15  C   UNL     1       0.002  -0.004   0.002  0.00  0.00    +0.005 A 
ATOM     16  C   UNL     1      -0.017   1.378   0.010  0.00  0.00    +0.015 A 
ATOM     17  C   UNL     1       1.172   2.086   0.002  0.00  0.00    +0.018 A 
ATOM     18  C   UNL     1       2.379   1.410  -0.013  0.00  0.00    +0.015 A 
ATOM     19  C   UNL     1       2.396   0.028  -0.020  0.00  0.00    +0.005 A 
ATOM     20  C   UNL     1       1.208  -0.679  -0.013  0.00  0.00    -0.037 A 
ATOM     21 BR   UNL     1       1.147   3.976   0.013  0.00  0.00    -0.050 Br
ENDBRANCH  14  20
ENDBRANCH  13  14
ENDBRANCH   1  13
BRANCH   4  22
ATOM     22  C   UNL     1       1.285  -8.065  -2.323  0.00  0.00    +0.130 C 
BRANCH  22  23
ATOM     23  C   UNL     1       2.710  -8.506  -2.538  0.00  0.00    +0.033 A 
ATOM     24  C   UNL     1       3.334  -9.259  -1.607  0.00  0.00    +0.091 A 
ATOM     25  C   UNL     1       4.673  -9.661  -1.831  0.00  0.00    +0.254 A 
ATOM     26  O   UNL     1       5.256 -10.341  -1.006  0.00  0.00    -0.268 OA
ATOM     27  N   UNL     1       5.295  -9.285  -2.966  0.00  0.00    -0.275 N 
ATOM     28  H   UNL     1       6.241  -9.566  -3.132  0.00  0.00    +0.173 HD
ATOM     29  C   UNL     1       4.649  -8.535  -3.878  0.00  0.00    +0.327 A 
ATOM     30  O   UNL     1       5.223  -8.203  -4.897  0.00  0.00    -0.247 OA
ATOM     31  N   UNL     1       3.375  -8.151  -3.679  0.00  0.00    -0.311 N 
ATOM     32  H   UNL     1       2.910  -7.600  -4.372  0.00  0.00    +0.170 HD
ENDBRANCH  22  23
ENDBRANCH   4  22
TORSDOF 6
