REMARK  Name = ZINC20118175
REMARK  10 active torsions:
REMARK  status: ('A' for Active; 'I' for Inactive)
REMARK    1  A    between atoms: C_1  and  C_2
REMARK    2  A    between atoms: C_2  and  C_3
REMARK    3  A    between atoms: C_3  and  O_4
REMARK    4  A    between atoms: O_4  and  C_5
REMARK    5  A    between atoms: C_10  and  C_11
REMARK    6  A    between atoms: N_13  and  C_14
REMARK    7  A    between atoms: C_17  and  C_20
REMARK    8  A    between atoms: N_22  and  C_23
REMARK    9  A    between atoms: C_23  and  C_25
REMARK   10  A    between atoms: C_23  and  C_26
REMARK                            x       y       z     vdW  Elec       q    Type
REMARK                         _______ _______ _______ _____ _____    ______ ____
ROOT
ATOM      1  C   UNL     1       3.020  -1.043  -5.557  0.00  0.00    +0.034 A 
ATOM      2  C   UNL     1       2.893   0.328  -5.353  0.00  0.00    +0.024 A 
ATOM      3  C   UNL     1       3.324   1.211  -6.316  0.00  0.00    +0.015 A 
ATOM      4  C   UNL     1       3.879   0.730  -7.505  0.00  0.00    +0.037 A 
ATOM      5  C   UNL     1       3.999  -0.647  -7.710  0.00  0.00    +0.015 A 
ATOM      6  C   UNL     1       3.572  -1.525  -6.740  0.00  0.00    +0.024 A 
ENDROOT
BRANCH   1   9
ATOM      7  C   UNL     1       2.692  -1.606  -3.274  0.00  0.00    +0.252 C 
ATOM      8  O   UNL     1       3.250  -0.576  -2.949  0.00  0.00    -0.270 OA
ATOM      9  N   UNL     1       2.588  -1.935  -4.577  0.00  0.00    -0.281 N 
ATOM     10  H   UNL     1       2.162  -2.907  -4.867  0.00  0.00    +0.155 HD
BRANCH   7  16
ATOM     11  C   UNL     1       2.236  -2.160  -0.885  0.00  0.00    +0.133 A 
ATOM     12  C   UNL     1       1.699  -3.002   0.077  0.00  0.00    +0.047 A 
ATOM     13  C   UNL     1       1.068  -4.170  -0.300  0.00  0.00    +0.019 A 
ATOM     14  C   UNL     1       0.966  -4.511  -1.640  0.00  0.00    +0.019 A 
ATOM     15  C   UNL     1       1.494  -3.686  -2.609  0.00  0.00    +0.032 A 
ATOM     16  C   UNL     1       2.130  -2.497  -2.241  0.00  0.00    +0.080 A 
ATOM     17 BR   UNL     1       0.099  -6.115  -2.139  0.00  0.00    -0.050 Br
BRANCH  11  18
ATOM     18  O   UNL     1       2.857  -1.011  -0.516  0.00  0.00    -0.491 OA
BRANCH  18  19
ATOM     19  C   UNL     1       2.922  -0.730   0.884  0.00  0.00    +0.229 C 
BRANCH  19  21
ATOM     20  C   UNL     1       3.721   0.897   2.603  0.00  0.00    +0.007 C 
ATOM     21  C   UNL     1       3.652   0.596   1.104  0.00  0.00    +0.038 C 
ENDBRANCH  19  21
ENDBRANCH  18  19
ENDBRANCH  11  18
ENDBRANCH   7  16
ENDBRANCH   1   9
BRANCH   4  22
ATOM     22  C   UNL     1       4.337   1.675  -8.543  0.00  0.00    +0.245 C 
ATOM     23  O   UNL     1       4.820   1.255  -9.576  0.00  0.00    -0.270 OA
ATOM     24  N   UNL     1       4.220   3.002  -8.344  0.00  0.00    -0.305 N 
ATOM     25  H   UNL     1       3.783   3.382  -7.409  0.00  0.00    +0.150 HD
BRANCH  24  26
ATOM     26  C   UNL     1       4.675   3.940  -9.374  0.00  0.00    +0.100 C 
ATOM     27  C   UNL     1       6.174   4.195  -9.205  0.00  0.00    +0.033 C 
BRANCH  26  28
ATOM     28  C   UNL     1       3.925   5.240  -9.236  0.00  0.00    -0.027 A 
ATOM     29  C   UNL     1       3.656   5.753  -7.981  0.00  0.00    +0.005 A 
ATOM     30  C   UNL     1       2.972   6.948  -7.855  0.00  0.00    +0.000 A 
ATOM     31  C   UNL     1       2.549   7.625  -8.983  0.00  0.00    +0.000 A 
ATOM     32  C   UNL     1       2.814   7.109 -10.239  0.00  0.00    +0.000 A 
ATOM     33  C   UNL     1       3.502   5.917 -10.365  0.00  0.00    +0.005 A 
ENDBRANCH  26  28
ENDBRANCH  24  26
ENDBRANCH   4  22
TORSDOF 8
