REMARK  Name = ZINC59038781
REMARK  8 active torsions:
REMARK  status: ('A' for Active; 'I' for Inactive)
REMARK    1  A    between atoms: C_1  and  C_2
REMARK    2  A    between atoms: C_5  and  N_9
REMARK    3  A    between atoms: C_10  and  C_12
REMARK    4  A    between atoms: C_12  and  S_13
REMARK    5  A    between atoms: S_13  and  C_14
REMARK    6  A    between atoms: N_19  and  N_20
REMARK    7  A    between atoms: C_21  and  C_22
REMARK    8  A    between atoms: C_21  and  C_23
REMARK                            x       y       z     vdW  Elec       q    Type
REMARK                         _______ _______ _______ _____ _____    ______ ____
ROOT
ATOM      1  C   UNL     1      -0.358  -8.691  -2.732  0.00  0.00    +0.211 A 
ATOM      2  N   UNL     1      -0.457  -9.563  -3.741  0.00  0.00    -0.186 NA
ATOM      3  C   UNL     1      -0.512 -10.789  -3.263  0.00  0.00    +0.232 A 
ATOM      4  N   UNL     1      -0.448 -10.715  -1.916  0.00  0.00    -0.245 N 
ATOM      5  N   UNL     1      -0.344  -9.351  -1.598  0.00  0.00    -0.144 NA
ATOM      6  N   UNL     1      -0.618 -11.948  -4.009  0.00  0.00    -0.205 N 
ATOM      7  H   UNL     1      -0.652 -12.809  -3.564  0.00  0.00    +0.177 HD
ATOM      8  H   UNL     1      -0.467 -11.457  -1.292  0.00  0.00    +0.192 HD
ENDROOT
BRANCH   6   9
ATOM      9  N   UNL     1      -0.675 -11.879  -5.407  0.00  0.00    -0.184 NA
ATOM     10  C   UNL     1      -0.775 -12.969  -6.109  0.00  0.00    +0.070 C 
ATOM     11  C   UNL     1      -0.828 -14.307  -5.418  0.00  0.00    +0.068 C 
BRANCH  10  12
ATOM     12  C   UNL     1      -0.835 -12.896  -7.572  0.00  0.00    +0.035 A 
ATOM     13  C   UNL     1      -0.796 -11.783  -8.393  0.00  0.00    +0.017 A 
ATOM     14  C   UNL     1      -0.869 -11.971  -9.754  0.00  0.00    +0.008 A 
ATOM     15  C   UNL     1      -0.976 -13.232 -10.246  0.00  0.00    +0.046 A 
ATOM     16  S   UNL     1      -0.970 -14.222  -8.761  0.00  0.00    -0.095 S 
ENDBRANCH  10  12
ENDBRANCH   6   9
BRANCH   1  17
ATOM     17  S   UNL     1      -0.257  -6.940  -2.898  0.00  0.00    -0.075 S 
BRANCH  17  18
ATOM     18  C   UNL     1      -0.136  -6.343  -1.190  0.00  0.00    +0.173 C 
BRANCH  18  20
ATOM     19  N   UNL     1       0.057  -4.171  -0.023  0.00  0.00    -0.284 N 
ATOM     20  C   UNL     1      -0.042  -4.839  -1.189  0.00  0.00    +0.228 C 
ATOM     21  O   UNL     1      -0.055  -4.230  -2.238  0.00  0.00    -0.275 OA
ATOM     22  H   UNL     1       0.149  -4.660   0.810  0.00  0.00    +0.155 HD
BRANCH  19  27
ATOM     23  C   UNL     1      -0.063   1.502   0.016  0.00  0.00    +0.044 C 
ATOM     24  C   UNL     1      -0.031  -0.005   0.006  0.00  0.00    -0.049 A 
ATOM     25  C   UNL     1      -0.622  -0.701  -1.033  0.00  0.00    +0.005 A 
ATOM     26  C   UNL     1      -0.594  -2.081  -1.045  0.00  0.00    +0.024 A 
ATOM     27  C   UNL     1       0.028  -2.771  -0.013  0.00  0.00    +0.047 A 
ATOM     28  C   UNL     1       0.621  -2.070   1.029  0.00  0.00    +0.039 A 
ATOM     29  C   UNL     1       0.595  -0.688   1.032  0.00  0.00    +0.020 A 
ATOM     30 BR   UNL     1       1.470  -3.004   2.437  0.00  0.00    -0.048 Br
ENDBRANCH  19  27
ENDBRANCH  18  20
ENDBRANCH  17  18
ENDBRANCH   1  17
TORSDOF 6
