REMARK  Name = ZINC08823395
REMARK  9 active torsions:
REMARK  status: ('A' for Active; 'I' for Inactive)
REMARK    1  A    between atoms: C_4  and  C_7
REMARK    2  A    between atoms: C_7  and  S_8
REMARK    3  A    between atoms: S_8  and  C_9
REMARK    4  A    between atoms: C_9  and  C_10
REMARK    5  A    between atoms: C_16  and  S_18
REMARK    6  A    between atoms: S_18  and  C_19
REMARK    7  A    between atoms: C_19  and  C_20
REMARK    8  A    between atoms: N_22  and  C_23
REMARK    9  A    between atoms: C_27  and  C_29
REMARK                            x       y       z     vdW  Elec       q    Type
REMARK                         _______ _______ _______ _____ _____    ______ ____
ROOT
ATOM      1  C   UNL     1      -9.096  -2.277   0.657  0.00  0.00    +0.229 C 
ATOM      2  O   UNL     1      -8.147  -3.033   0.668  0.00  0.00    -0.275 OA
ATOM      3  N   UNL     1      -8.898  -0.948   0.552  0.00  0.00    -0.263 N 
ATOM      4  C   UNL     1      -7.604  -0.442   0.457  0.00  0.00    +0.189 A 
ATOM      5  N   UNL     1      -6.442  -1.075   0.449  0.00  0.00    -0.125 NA
ATOM      6  N   UNL     1      -5.346  -0.459   0.355  0.00  0.00    -0.133 NA
ATOM      7  C   UNL     1      -5.291   0.862   0.258  0.00  0.00    +0.160 A 
ATOM      8  S   UNL     1      -7.038   1.250   0.318  0.00  0.00    -0.024 S 
ATOM      9  H   UNL     1      -9.657  -0.344   0.543  0.00  0.00    +0.157 HD
ENDROOT
BRANCH   1  10
ATOM     10  C   UNL     1     -10.496  -2.825   0.760  0.00  0.00    +0.165 C 
BRANCH  10  11
ATOM     11  S   UNL     1     -10.431  -4.633   0.887  0.00  0.00    -0.147 S 
BRANCH  11  12
ATOM     12  C   UNL     1     -12.172  -5.128   1.001  0.00  0.00    +0.104 C 
BRANCH  12  16
ATOM     13  C   UNL     1     -12.426  -9.381   1.319  0.00  0.00    +0.000 A 
ATOM     14  C   UNL     1     -12.331  -8.607   2.460  0.00  0.00    +0.000 A 
ATOM     15  C   UNL     1     -12.248  -7.231   2.357  0.00  0.00    +0.004 A 
ATOM     16  C   UNL     1     -12.261  -6.628   1.113  0.00  0.00    -0.038 A 
ATOM     17  C   UNL     1     -12.362  -7.402  -0.028  0.00  0.00    +0.004 A 
ATOM     18  C   UNL     1     -12.439  -8.778   0.074  0.00  0.00    +0.000 A 
ENDBRANCH  12  16
ENDBRANCH  11  12
ENDBRANCH  10  11
ENDBRANCH   1  10
BRANCH   7  19
ATOM     19  S   UNL     1      -3.897   1.930   0.117  0.00  0.00    -0.088 S 
BRANCH  19  20
ATOM     20  C   UNL     1      -2.476   0.802   0.132  0.00  0.00    +0.172 C 
BRANCH  20  21
ATOM     21  C   UNL     1      -1.202   1.598   0.017  0.00  0.00    +0.227 C 
ATOM     22  O   UNL     1      -1.247   2.807  -0.067  0.00  0.00    -0.275 OA
ATOM     23  N   UNL     1      -0.011   0.966   0.007  0.00  0.00    -0.285 N 
ATOM     24  H   UNL     1       0.023  -0.004   0.007  0.00  0.00    +0.155 HD
BRANCH  23  25
ATOM     25  C   UNL     1       1.175   1.708  -0.008  0.00  0.00    +0.034 A 
ATOM     26  C   UNL     1       1.238   2.906  -0.708  0.00  0.00    +0.023 A 
ATOM     27  C   UNL     1       2.408   3.639  -0.717  0.00  0.00    +0.002 A 
ATOM     28  C   UNL     1       3.520   3.176  -0.038  0.00  0.00    +0.012 A 
ATOM     29  C   UNL     1       3.463   1.981   0.656  0.00  0.00    +0.057 A 
ATOM     30  C   UNL     1       2.294   1.246   0.673  0.00  0.00    +0.035 A 
BRANCH  29  31
ATOM     31  C   UNL     1       4.677   1.481   1.395  0.00  0.00    +0.417 C 
ATOM     32  F   UNL     1       5.444   0.679   0.542  0.00  0.00    -0.166 F 
ATOM     33  F   UNL     1       5.443   2.569   1.825  0.00  0.00    -0.166 F 
ATOM     34  F   UNL     1       4.272   0.728   2.502  0.00  0.00    -0.166 F 
ENDBRANCH  29  31
ENDBRANCH  23  25
ENDBRANCH  20  21
ENDBRANCH  19  20
ENDBRANCH   7  19
TORSDOF 9
