REMARK  Name = ZINC39592692
REMARK  8 active torsions:
REMARK  status: ('A' for Active; 'I' for Inactive)
REMARK    1  A    between atoms: C_1  and  C_2
REMARK    2  A    between atoms: C_4  and  N_9
REMARK    3  A    between atoms: C_10  and  C_12
REMARK    4  A    between atoms: C_12  and  S_13
REMARK    5  A    between atoms: S_13  and  C_14
REMARK    6  A    between atoms: C_18  and  C_22
REMARK    7  A    between atoms: N_20  and  N_21
REMARK    8  A    between atoms: C_25  and  C_28
REMARK                            x       y       z     vdW  Elec       q    Type
REMARK                         _______ _______ _______ _____ _____    ______ ____
ROOT
ATOM      1  C   UNL     1      -0.239  -7.686  -5.084  0.00  0.00    +0.272 C 
ATOM      2  N   UNL     1       0.524  -7.255  -6.263  0.00  0.00    -0.159 NA
ATOM      3  N   UNL     1      -0.194  -7.206  -7.266  0.00  0.00    -0.167 NA
ATOM      4  C   UNL     1      -1.575  -7.595  -6.951  0.00  0.00    +0.244 C 
ATOM      5  N   UNL     1      -1.663  -7.517  -5.469  0.00  0.00    -0.183 NA
ENDROOT
BRANCH   4   6
ATOM      6  C   UNL     1      -1.848  -9.023  -7.427  0.00  0.00    +0.195 C 
ATOM      7  C   UNL     1      -1.620  -9.143  -8.924  0.00  0.00    +0.035 C 
ATOM      8  C   UNL     1      -2.827  -9.497  -9.406  0.00  0.00    +0.091 C 
ATOM      9  N   UNL     1      -3.730  -9.601  -8.396  0.00  0.00    -0.154 NA
ATOM     10  N   UNL     1      -3.273  -9.359  -7.273  0.00  0.00    -0.176 NA
BRANCH   8  11
ATOM     11  C   UNL     1      -3.128  -9.739 -10.839  0.00  0.00    +0.002 A 
ATOM     12  C   UNL     1      -2.123  -9.608 -11.796  0.00  0.00    +0.013 A 
ATOM     13  C   UNL     1      -2.407  -9.835 -13.127  0.00  0.00    +0.039 A 
ATOM     14  C   UNL     1      -3.689 -10.190 -13.513  0.00  0.00    +0.123 A 
ATOM     15  C   UNL     1      -4.691 -10.320 -12.565  0.00  0.00    +0.039 A 
ATOM     16  C   UNL     1      -4.415 -10.102 -11.231  0.00  0.00    +0.013 A 
ATOM     17  F   UNL     1      -3.963 -10.410 -14.817  0.00  0.00    -0.205 F 
ENDBRANCH   8  11
ENDBRANCH   4   6
BRANCH   5  18
ATOM     18  N   UNL     1      -2.167  -6.221  -5.045  0.00  0.00    -0.263 NA
ATOM     19  H   UNL     1      -2.199  -6.157  -4.039  0.00  0.00    +0.137 HD
ATOM     20  H   UNL     1      -1.616  -5.473  -5.438  0.00  0.00    +0.137 HD
ENDBRANCH   5  18
BRANCH   1  21
ATOM     21  S   UNL     1       0.158  -6.640  -3.657  0.00  0.00    -0.107 S 
BRANCH  21  22
ATOM     22  C   UNL     1       1.742  -7.292  -3.061  0.00  0.00    +0.168 C 
BRANCH  22  24
ATOM     23  N   UNL     1       3.292  -6.888  -1.176  0.00  0.00    -0.285 N 
ATOM     24  C   UNL     1       2.142  -6.568  -1.801  0.00  0.00    +0.227 C 
ATOM     25  O   UNL     1       1.427  -5.698  -1.349  0.00  0.00    -0.275 OA
ATOM     26  H   UNL     1       3.899  -7.530  -1.577  0.00  0.00    +0.155 HD
BRANCH  23  30
ATOM     27  C   UNL     1       1.825  -5.012   3.125  0.00  0.00    +0.045 C 
ATOM     28  C   UNL     1       2.919  -5.375   2.154  0.00  0.00    -0.035 A 
ATOM     29  C   UNL     1       2.602  -5.960   0.944  0.00  0.00    +0.027 A 
ATOM     30  C   UNL     1       3.611  -6.294   0.050  0.00  0.00    +0.034 A 
ATOM     31  C   UNL     1       4.936  -6.038   0.376  0.00  0.00    +0.024 A 
ATOM     32  C   UNL     1       5.248  -5.453   1.587  0.00  0.00    +0.017 A 
ATOM     33  C   UNL     1       4.240  -5.116   2.474  0.00  0.00    +0.021 A 
ATOM     34 BR   UNL     1       4.670  -4.306   4.128  0.00  0.00    -0.050 Br
ENDBRANCH  23  30
ENDBRANCH  22  24
ENDBRANCH  21  22
ENDBRANCH   1  21
TORSDOF 7
