REMARK  Name = ZINC22487203
REMARK  5 active torsions:
REMARK  status: ('A' for Active; 'I' for Inactive)
REMARK    1  A    between atoms: C_1  and  C_2
REMARK    2  A    between atoms: N_4  and  C_5
REMARK    3  A    between atoms: C_9  and  N_11
REMARK    4  A    between atoms: C_12  and  C_14
REMARK    5  A    between atoms: C_24  and  C_27
REMARK                            x       y       z     vdW  Elec       q    Type
REMARK                         _______ _______ _______ _____ _____    ______ ____
ROOT
ATOM      1  C   UNL     1      -4.910  -4.472   0.443  0.00  0.00    +0.093 C 
ATOM      2  C   UNL     1      -4.855  -6.001   0.499  0.00  0.00    +0.016 C 
ATOM      3  C   UNL     1      -6.253  -6.543   0.807  0.00  0.00    +0.020 C 
ATOM      4  C   UNL     1      -6.747  -5.948   2.127  0.00  0.00    +0.106 C 
ATOM      5  N   UNL     1      -6.783  -4.484   2.022  0.00  0.00    -0.313 N 
ATOM      6  C   UNL     1      -5.444  -3.936   1.774  0.00  0.00    +0.119 C 
ATOM      7  C   UNL     1      -7.351  -3.916   3.158  0.00  0.00    +0.144 A 
ATOM      8  C   UNL     1      -8.633  -4.295   3.561  0.00  0.00    +0.047 A 
ATOM      9  C   UNL     1      -9.156  -3.710   4.699  0.00  0.00    +0.034 A 
ATOM     10  C   UNL     1      -8.370  -2.763   5.370  0.00  0.00    +0.100 A 
ATOM     11  N   UNL     1      -7.162  -2.461   4.908  0.00  0.00    -0.147 NA
ATOM     12  N   UNL     1      -6.679  -3.012   3.854  0.00  0.00    -0.134 NA
ENDROOT
BRANCH  10  13
ATOM     13  C   UNL     1      -8.883  -2.103   6.588  0.00  0.00    +0.039 A 
ATOM     14  C   UNL     1      -8.277  -1.166   7.383  0.00  0.00    +0.018 A 
ATOM     15  C   UNL     1      -8.960  -0.685   8.478  0.00  0.00    +0.008 A 
ATOM     16  C   UNL     1     -10.204  -1.160   8.743  0.00  0.00    +0.046 A 
ATOM     17  S   UNL     1     -10.452  -2.323   7.411  0.00  0.00    -0.095 S 
ENDBRANCH  10  13
BRANCH   1  19
ATOM     18  N   UNL     1      -3.333  -2.596   0.112  0.00  0.00    -0.285 N 
ATOM     19  C   UNL     1      -3.527  -3.926   0.200  0.00  0.00    +0.222 C 
ATOM     20  O   UNL     1      -2.588  -4.685   0.083  0.00  0.00    -0.275 OA
ATOM     21  H   UNL     1      -4.193  -1.911   0.142  0.00  0.00    +0.155 HD
BRANCH  18  26
ATOM     22  C   UNL     1      -0.415  -0.377   0.455  0.00  0.00    +0.035 A 
ATOM     23  C   UNL     1       0.533  -1.080  -0.277  0.00  0.00    +0.023 A 
ATOM     24  C   UNL     1       0.197  -2.279  -0.876  0.00  0.00    +0.004 A 
ATOM     25  C   UNL     1      -1.083  -2.783  -0.748  0.00  0.00    +0.023 A 
ATOM     26  C   UNL     1      -2.036  -2.085  -0.017  0.00  0.00    +0.035 A 
ATOM     27  C   UNL     1      -1.700  -0.883   0.590  0.00  0.00    +0.046 A 
BRANCH  22  31
ATOM     28  C   UNL     1      -0.584   3.173   1.696  0.00  0.00    +0.109 C 
ATOM     29  C   UNL     1      -0.982   1.830   1.139  0.00  0.00    +0.214 C 
ATOM     30  O   UNL     1      -2.119   1.642   0.762  0.00  0.00    -0.276 OA
ATOM     31  N   UNL     1      -0.073   0.838   1.060  0.00  0.00    -0.286 N 
ATOM     32  H   UNL     1       0.936   0.982   1.471  0.00  0.00    +0.155 HD
ENDBRANCH  22  31
ENDBRANCH  18  26
ENDBRANCH   1  19
TORSDOF 4
