REMARK  Name = ZINC20701853
REMARK  8 active torsions:
REMARK  status: ('A' for Active; 'I' for Inactive)
REMARK    1  A    between atoms: C_1  and  C_2
REMARK    2  A    between atoms: C_2  and  C_3
REMARK    3  A    between atoms: C_3  and  C_5
REMARK    4  A    between atoms: C_3  and  N_6
REMARK    5  A    between atoms: N_6  and  S_7
REMARK    6  A    between atoms: S_7  and  C_10
REMARK    7  A    between atoms: C_23  and  C_26
REMARK    8  A    between atoms: C_31  and  O_32
REMARK                            x       y       z     vdW  Elec       q    Type
REMARK                         _______ _______ _______ _____ _____    ______ ____
ROOT
ATOM      1  C   UNL     1      -1.935  -0.377  -1.643  0.00  0.00    +0.106 A 
ATOM      2  C   UNL     1      -1.273   0.837  -1.668  0.00  0.00    +0.030 A 
ATOM      3  C   UNL     1      -1.648   1.801  -2.582  0.00  0.00    +0.025 A 
ATOM      4  C   UNL     1      -2.686   1.550  -3.471  0.00  0.00    +0.031 A 
ATOM      5  C   UNL     1      -3.351   0.334  -3.451  0.00  0.00    -0.018 A 
ATOM      6  C   UNL     1      -2.961  -0.629  -2.530  0.00  0.00    +0.034 A 
ATOM      7  C   UNL     1      -4.470   0.018  -4.390  0.00  0.00    +0.049 C 
ATOM      8  C   UNL     1      -5.809   0.072  -3.694  0.00  0.00    -0.023 C 
ATOM      9  C   UNL     1      -6.722   0.554  -4.502  0.00  0.00    -0.030 C 
ATOM     10  C   UNL     1      -6.115   0.882  -5.852  0.00  0.00    +0.033 C 
ATOM     11  C   UNL     1      -4.598   1.038  -5.538  0.00  0.00    +0.029 C 
ATOM     12  C   UNL     1      -4.387   2.457  -5.001  0.00  0.00    +0.109 C 
ATOM     13  N   UNL     1      -3.058   2.540  -4.388  0.00  0.00    -0.336 N 
ATOM     14  H   UNL     1      -2.381   3.365  -4.652  0.00  0.00    +0.147 HD
ENDROOT
BRANCH  12  15
ATOM     15  C   UNL     1      -5.440   2.767  -3.969  0.00  0.00    +0.017 A 
ATOM     16  C   UNL     1      -5.248   2.395  -2.652  0.00  0.00    +0.029 A 
ATOM     17  C   UNL     1      -6.213   2.679  -1.703  0.00  0.00    +0.043 A 
ATOM     18  C   UNL     1      -7.374   3.338  -2.070  0.00  0.00    +0.043 A 
ATOM     19  C   UNL     1      -7.570   3.713  -3.386  0.00  0.00    +0.084 A 
ATOM     20  C   UNL     1      -6.599   3.433  -4.338  0.00  0.00    +0.140 A 
ATOM     21 CL   UNL     1      -9.026   4.539  -3.846  0.00  0.00    -0.080 Cl
ATOM     22 CL   UNL     1      -5.969   2.209  -0.050  0.00  0.00    -0.083 Cl
BRANCH  20  23
ATOM     23  O   UNL     1      -6.787   3.805  -5.632  0.00  0.00    -0.505 OA
ATOM     24  H   UNL     1      -7.707   4.333  -5.924  0.00  0.00    +0.292 HD
ENDBRANCH  20  23
ENDBRANCH  12  15
BRANCH   1  25
ATOM     25  S   UNL     1      -1.460  -1.610  -0.477  0.00  0.00    +0.059 S 
ATOM     26  O   UNL     1      -1.869  -2.859  -1.017  0.00  0.00    -0.153 OA
ATOM     27  O   UNL     1      -0.111  -1.338  -0.125  0.00  0.00    -0.153 OA
BRANCH  25  28
ATOM     28  N   UNL     1      -2.364  -1.367   0.889  0.00  0.00    -0.187 NA
ATOM     29  H   UNL     1      -1.890  -0.916   1.774  0.00  0.00    +0.148 HD
BRANCH  28  30
ATOM     30  C   UNL     1      -3.818  -1.544   0.847  0.00  0.00    +0.073 C 
ATOM     31  C   UNL     1      -4.489  -0.191   0.602  0.00  0.00    +0.025 C 
BRANCH  30  33
ATOM     32  C   UNL     1      -3.727  -3.525   2.366  0.00  0.00    +0.005 C 
ATOM     33  C   UNL     1      -4.300  -2.119   2.180  0.00  0.00    +0.017 C 
ENDBRANCH  30  33
ENDBRANCH  28  30
ENDBRANCH  25  28
ENDBRANCH   1  25
TORSDOF 6
