REMARK  Name = ZINC38051342
REMARK  2 active torsions:
REMARK  status: ('A' for Active; 'I' for Inactive)
REMARK    1  A    between atoms: C_6  and  N_7
REMARK    2  A    between atoms: C_17  and  N_20
REMARK                            x       y       z     vdW  Elec       q    Type
REMARK                         _______ _______ _______ _____ _____    ______ ____
ROOT
ATOM      1  N   UNL     1      -1.197  -0.718  -0.069  0.00  0.00    -0.269 N 
ATOM      2  C   UNL     1      -1.185  -2.065  -0.099  0.00  0.00    +0.311 C 
ATOM      3  O   UNL     1      -0.128  -2.665  -0.042  0.00  0.00    -0.252 OA
ATOM      4  N   UNL     1      -2.343  -2.747  -0.193  0.00  0.00    -0.253 N 
ATOM      5  C   UNL     1      -3.589  -1.993  -0.290  0.00  0.00    +0.126 C 
ATOM      6  C   UNL     1      -4.542  -2.470   0.816  0.00  0.00    +0.094 C 
ATOM      7  S   UNL     1      -4.966  -4.203   0.468  0.00  0.00    -0.122 S 
ATOM      8  C   UNL     1      -3.404  -4.935   0.095  0.00  0.00    +0.029 A 
ATOM      9  C   UNL     1      -2.295  -4.144  -0.198  0.00  0.00    +0.053 A 
ATOM     10  C   UNL     1      -1.081  -4.755  -0.501  0.00  0.00    +0.047 A 
ATOM     11  C   UNL     1      -0.976  -6.137  -0.512  0.00  0.00    +0.026 A 
ATOM     12  C   UNL     1      -2.084  -6.922  -0.220  0.00  0.00    +0.024 A 
ATOM     13  C   UNL     1      -3.293  -6.319   0.090  0.00  0.00    +0.018 A 
ATOM     14  H   UNL     1      -2.041  -0.240  -0.048  0.00  0.00    +0.156 HD
ENDROOT
BRANCH   1  20
ATOM     15  C   UNL     1       0.104   1.205  -0.739  0.00  0.00    +0.026 A 
ATOM     16  C   UNL     1       1.294   1.905  -0.736  0.00  0.00    +0.040 A 
ATOM     17  C   UNL     1       2.394   1.399  -0.063  0.00  0.00    +0.124 A 
ATOM     18  C   UNL     1       2.302   0.192   0.608  0.00  0.00    +0.040 A 
ATOM     19  C   UNL     1       1.113  -0.511   0.608  0.00  0.00    +0.026 A 
ATOM     20  C   UNL     1       0.010  -0.006  -0.067  0.00  0.00    +0.035 A 
ATOM     21  F   UNL     1       3.558   2.085  -0.062  0.00  0.00    -0.205 F 
ENDBRANCH   1  20
BRANCH  11  22
ATOM     22  N   UNL     1       0.249  -6.743  -0.818  0.00  0.00    -0.358 N 
ATOM     23  H   UNL     1       1.023  -6.195  -1.022  0.00  0.00    +0.142 HD
ATOM     24  H   UNL     1       0.323  -7.710  -0.826  0.00  0.00    +0.142 HD
ENDBRANCH  11  22
TORSDOF 2
