REMARK  Name = ZINC66815062
REMARK  5 active torsions:
REMARK  status: ('A' for Active; 'I' for Inactive)
REMARK    1  A    between atoms: C_3  and  C_8
REMARK    2  A    between atoms: N_11  and  C_15
REMARK    3  A    between atoms: C_18  and  S_24
REMARK    4  A    between atoms: C_20  and  N_21
REMARK    5  A    between atoms: S_24  and  N_27
REMARK                            x       y       z     vdW  Elec       q    Type
REMARK                         _______ _______ _______ _____ _____    ______ ____
ROOT
ATOM      1  C   UNL     1       5.827   4.052  -2.210  0.00  0.00    +0.061 A 
ATOM      2  C   UNL     1       5.653   5.330  -1.694  0.00  0.00    +0.027 A 
ATOM      3  C   UNL     1       5.966   6.432  -2.465  0.00  0.00    +0.030 A 
ATOM      4  C   UNL     1       6.452   6.264  -3.749  0.00  0.00    +0.107 A 
ATOM      5  C   UNL     1       6.626   4.994  -4.265  0.00  0.00    +0.063 A 
ATOM      6  C   UNL     1       6.320   3.887  -3.498  0.00  0.00    +0.149 A 
ENDROOT
BRANCH   1   9
ATOM      7  C   UNL     1       3.672   2.186  -0.021  0.00  0.00    +0.166 C 
ATOM      8  C   UNL     1       4.163   2.346  -1.464  0.00  0.00    +0.141 C 
ATOM      9  N   UNL     1       5.511   2.935  -1.433  0.00  0.00    -0.323 N 
ATOM     10  C   UNL     1       6.518   2.312  -0.558  0.00  0.00    +0.133 C 
ATOM     11  C   UNL     1       5.912   2.153   0.841  0.00  0.00    +0.179 C 
ATOM     12  O   UNL     1       4.656   1.478   0.737  0.00  0.00    -0.369 OA
BRANCH   7  15
ATOM     13  C   UNL     1      -0.017   1.377   0.010  0.00  0.00    +0.003 A 
ATOM     14  C   UNL     1       1.171   2.086   0.002  0.00  0.00    +0.006 A 
ATOM     15  C   UNL     1       2.378   1.413  -0.013  0.00  0.00    -0.015 A 
ATOM     16  C   UNL     1       2.399   0.030  -0.021  0.00  0.00    +0.044 A 
ATOM     17  C   UNL     1       1.211  -0.679  -0.013  0.00  0.00    +0.124 A 
ATOM     18  C   UNL     1       0.002  -0.004   0.002  0.00  0.00    +0.038 A 
ATOM     19  F   UNL     1       1.230  -2.030  -0.022  0.00  0.00    -0.205 F 
ENDBRANCH   7  15
ENDBRANCH   1   9
BRANCH   6  20
ATOM     20  N   UNL     1       6.512   2.527  -4.049  0.00  0.00    +0.058 N 
ATOM     21  O   UNL     1       6.942   2.384  -5.170  0.00  0.00    -0.126 OA
ATOM     22  O   UNL     1       6.240   1.558  -3.378  0.00  0.00    -0.126 OA
ENDBRANCH   6  20
BRANCH   4  23
ATOM     23  S   UNL     1       6.850   7.673  -4.729  0.00  0.00    +0.056 S 
ATOM     24  O   UNL     1       6.770   7.260  -6.086  0.00  0.00    -0.153 OA
ATOM     25  O   UNL     1       6.084   8.755  -4.216  0.00  0.00    -0.153 OA
BRANCH  23  26
ATOM     26  N   UNL     1       8.439   8.039  -4.439  0.00  0.00    -0.204 NA
ATOM     27  H   UNL     1       8.955   7.500  -3.819  0.00  0.00    +0.144 HD
ATOM     28  H   UNL     1       8.854   8.792  -4.888  0.00  0.00    +0.144 HD
ENDBRANCH  23  26
ENDBRANCH   4  23
TORSDOF 5
