REMARK  Name = ZINC35684919
REMARK  8 active torsions:
REMARK  status: ('A' for Active; 'I' for Inactive)
REMARK    1  A    between atoms: C_1  and  C_2
REMARK    2  A    between atoms: C_3  and  C_27
REMARK    3  A    between atoms: C_8  and  O_26
REMARK    4  A    between atoms: C_10  and  C_12
REMARK    5  A    between atoms: N_14  and  C_15
REMARK    6  A    between atoms: C_17  and  C_23
REMARK    7  A    between atoms: C_20  and  O_21
REMARK    8  A    between atoms: O_21  and  C_22
REMARK                            x       y       z     vdW  Elec       q    Type
REMARK                         _______ _______ _______ _____ _____    ______ ____
ROOT
ATOM      1  C   UNL     1       0.511   1.707   0.630  0.00  0.00    +0.050 C 
ATOM      2  C   UNL     1       0.441   0.215   0.430  0.00  0.00    +0.021 A 
ATOM      3  C   UNL     1       0.381  -0.457  -0.807  0.00  0.00    +0.098 A 
ATOM      4  N   UNL     1       0.330  -1.756  -0.574  0.00  0.00    -0.168 NA
ATOM      5  N   UNL     1       0.353  -1.953   0.801  0.00  0.00    -0.233 N 
ATOM      6  C   UNL     1       0.430  -0.723   1.407  0.00  0.00    +0.159 A 
ATOM      7  N   UNL     1       0.483  -0.591   2.766  0.00  0.00    -0.198 NA
ATOM      8  C   UNL     1       0.136  -1.608   3.502  0.00  0.00    +0.191 C 
ATOM      9  C   UNL     1      -0.352  -2.902   2.919  0.00  0.00    +0.131 C 
ATOM     10  C   UNL     1       0.311  -3.198   1.574  0.00  0.00    +0.204 C 
ENDROOT
BRANCH   3  11
ATOM     11  C   UNL     1       0.376   0.186  -2.145  0.00  0.00    +0.003 A 
ATOM     12  C   UNL     1       1.226   1.258  -2.409  0.00  0.00    +0.011 A 
ATOM     13  C   UNL     1       1.218   1.853  -3.654  0.00  0.00    +0.020 A 
ATOM     14  C   UNL     1       0.366   1.386  -4.640  0.00  0.00    +0.041 A 
ATOM     15  C   UNL     1      -0.481   0.322  -4.383  0.00  0.00    +0.020 A 
ATOM     16  C   UNL     1      -0.476  -0.283  -3.143  0.00  0.00    +0.011 A 
ATOM     17 CL   UNL     1       0.359   2.138  -6.205  0.00  0.00    -0.084 Cl
ENDBRANCH   3  11
BRANCH  10  18
ATOM     18  C   UNL     1       1.712  -3.699   1.809  0.00  0.00    +0.242 C 
ATOM     19  O   UNL     1       2.659  -3.078   1.374  0.00  0.00    -0.273 OA
ATOM     20  N   UNL     1       1.914  -4.837   2.502  0.00  0.00    -0.281 N 
ATOM     21  H   UNL     1       1.156  -5.375   2.782  0.00  0.00    +0.155 HD
BRANCH  20  22
ATOM     22  C   UNL     1       3.217  -5.244   2.819  0.00  0.00    +0.076 A 
ATOM     23  C   UNL     1       4.251  -4.326   2.803  0.00  0.00    +0.042 A 
ATOM     24  C   UNL     1       5.550  -4.736   3.120  0.00  0.00    +0.065 A 
ATOM     25  C   UNL     1       5.796  -6.073   3.452  0.00  0.00    +0.019 A 
ATOM     26  C   UNL     1       4.762  -6.981   3.466  0.00  0.00    +0.048 A 
ATOM     27  C   UNL     1       3.471  -6.574   3.156  0.00  0.00    +0.141 A 
BRANCH  24  28
ATOM     28  C   UNL     1       6.655  -3.764   3.104  0.00  0.00    +0.387 C 
ATOM     29  O   UNL     1       6.438  -2.595   2.813  0.00  0.00    -0.241 OA
ATOM     30  O   UNL     1       7.791  -4.124   3.382  0.00  0.00    -0.241 OA
ENDBRANCH  24  28
BRANCH  27  31
ATOM     31  O   UNL     1       2.454  -7.473   3.177  0.00  0.00    -0.493 OA
ATOM     32  C   UNL     1       2.784  -8.818   3.530  0.00  0.00    +0.277 C 
ENDBRANCH  27  31
ENDBRANCH  20  22
ENDBRANCH  10  18
BRANCH   8  33
ATOM     33  O   UNL     1       0.217  -1.492   4.843  0.00  0.00    -0.495 OA
ATOM     34  H   UNL     1       0.538  -0.632   5.146  0.00  0.00    +0.293 HD
ENDBRANCH   8  33
TORSDOF 6
