REMARK  Name = ZINC36643740
REMARK  12 active torsions:
REMARK  status: ('A' for Active; 'I' for Inactive)
REMARK    1  A    between atoms: C_1  and  C_2
REMARK    2  A    between atoms: C_4  and  C_37
REMARK    3  A    between atoms: N_11  and  C_12
REMARK    4  A    between atoms: C_12  and  C_13
REMARK    5  A    between atoms: C_13  and  C_14
REMARK    6  A    between atoms: C_14  and  N_15
REMARK    7  A    between atoms: N_15  and  C_16
REMARK    8  A    between atoms: N_15  and  C_17
REMARK    9  A    between atoms: C_18  and  C_20
REMARK   10  A    between atoms: C_23  and  S_26
REMARK   11  A    between atoms: S_26  and  N_29
REMARK   12  A    between atoms: C_34  and  C_36
REMARK                            x       y       z     vdW  Elec       q    Type
REMARK                         _______ _______ _______ _____ _____    ______ ____
ROOT
ATOM      1  C   UNL     1      -3.044  -0.340  -0.863  0.00  0.00    +0.044 C 
ATOM      2  C   UNL     1      -2.806  -1.798  -0.566  0.00  0.00    -0.048 A 
ATOM      3  C   UNL     1      -3.027  -2.738  -1.562  0.00  0.00    +0.008 A 
ATOM      4  C   UNL     1      -2.809  -4.076  -1.290  0.00  0.00    -0.034 A 
ATOM      5  C   UNL     1      -2.378  -4.453  -0.043  0.00  0.00    +0.044 A 
ATOM      6  C   UNL     1      -2.143  -3.524   0.996  0.00  0.00    +0.081 A 
ATOM      7  C   UNL     1      -2.371  -2.164   0.681  0.00  0.00    +0.032 A 
ATOM      8  N   UNL     1      -1.722  -4.049   2.167  0.00  0.00    -0.224 NA
ATOM      9  C   UNL     1      -1.541  -5.338   2.337  0.00  0.00    +0.168 A 
ATOM     10  S   UNL     1      -1.980  -6.000   0.736  0.00  0.00    -0.052 S 
ATOM     11  N   UNL     1      -1.117  -6.013   3.469  0.00  0.00    -0.246 N 
ATOM     12  C   UNL     1      -0.991  -7.355   3.445  0.00  0.00    +0.252 C 
ATOM     13  O   UNL     1      -1.196  -7.967   2.415  0.00  0.00    -0.270 OA
ATOM     14  C   UNL     1      -3.043  -5.114  -2.357  0.00  0.00    +0.045 C 
ENDROOT
BRANCH  12  15
ATOM     15  C   UNL     1      -0.604  -8.082   4.672  0.00  0.00    +0.037 A 
ATOM     16  C   UNL     1      -1.128  -7.700   5.909  0.00  0.00    +0.015 A 
ATOM     17  C   UNL     1      -0.763  -8.383   7.050  0.00  0.00    +0.029 A 
ATOM     18  C   UNL     1       0.121  -9.445   6.971  0.00  0.00    +0.106 A 
ATOM     19  C   UNL     1       0.644  -9.829   5.749  0.00  0.00    +0.029 A 
ATOM     20  C   UNL     1       0.282  -9.158   4.599  0.00  0.00    +0.015 A 
BRANCH  18  21
ATOM     21  S   UNL     1       0.584 -10.312   8.434  0.00  0.00    +0.061 S 
ATOM     22  O   UNL     1       1.906 -10.786   8.224  0.00  0.00    -0.153 OA
ATOM     23  O   UNL     1       0.240  -9.473   9.529  0.00  0.00    -0.153 OA
BRANCH  21  24
ATOM     24  N   UNL     1      -0.388 -11.648   8.539  0.00  0.00    -0.174 NA
ATOM     25  C   UNL     1       0.090 -12.959   8.080  0.00  0.00    +0.110 C 
ATOM     26  C   UNL     1      -0.082 -13.973   9.215  0.00  0.00    +0.017 C 
ATOM     27  C   UNL     1      -1.539 -13.965   9.684  0.00  0.00    +0.003 C 
ATOM     28  C   UNL     1      -1.897 -12.576  10.218  0.00  0.00    +0.020 C 
ATOM     29  C   UNL     1      -1.742 -11.547   9.100  0.00  0.00    +0.077 C 
ATOM     30  C   UNL     1      -1.960 -10.142   9.664  0.00  0.00    +0.026 C 
ENDBRANCH  21  24
ENDBRANCH  18  21
ENDBRANCH  12  15
BRANCH  11  31
ATOM     31  C   UNL     1      -0.804  -5.270   4.691  0.00  0.00    +0.114 C 
BRANCH  31  32
ATOM     32  C   UNL     1      -2.104  -4.812   5.356  0.00  0.00    +0.001 C 
BRANCH  32  33
ATOM     33  C   UNL     1      -1.788  -4.173   6.710  0.00  0.00    -0.078 C 
BRANCH  33  34
ATOM     34  N   UNL     1      -3.036  -3.733   7.348  0.00  0.00    +0.376 N 
ATOM     35  C   UNL     1      -3.867  -4.905   7.656  0.00  0.00    -0.097 C 
ATOM     36  C   UNL     1      -2.724  -3.014   8.590  0.00  0.00    -0.097 C 
ATOM     37  H   UNL     1      -3.536  -3.121   6.721  0.00  0.00    -0.083 HD
ENDBRANCH  33  34
ENDBRANCH  32  33
ENDBRANCH  31  32
ENDBRANCH  11  31
TORSDOF 7
