REMARK  Name = ZINC52120585
REMARK  4 active torsions:
REMARK  status: ('A' for Active; 'I' for Inactive)
REMARK    1  A    between atoms: C_1  and  N_2
REMARK    2  A    between atoms: C_3  and  C_5
REMARK    3  A    between atoms: N_8  and  C_11
REMARK    4  A    between atoms: C_16  and  N_17
REMARK                            x       y       z     vdW  Elec       q    Type
REMARK                         _______ _______ _______ _____ _____    ______ ____
ROOT
ATOM      1  C   UNL     1       0.625  -2.182   0.995  0.00  0.00    +0.078 C 
ATOM      2  C   UNL     1      -0.811  -2.712   1.004  0.00  0.00    +0.031 C 
ATOM      3  C   UNL     1      -0.787  -4.243   0.961  0.00  0.00    +0.106 C 
ATOM      4  N   UNL     1       0.045  -4.734   2.068  0.00  0.00    -0.328 N 
ATOM      5  C   UNL     1       1.414  -4.220   2.206  0.00  0.00    +0.106 C 
ATOM      6  C   UNL     1       1.365  -2.689   2.235  0.00  0.00    +0.031 C 
ENDROOT
BRANCH   4   7
ATOM      7  C   UNL     1      -0.459  -5.674   2.975  0.00  0.00    +0.053 A 
ATOM      8  C   UNL     1      -0.300  -7.030   2.731  0.00  0.00    +0.063 A 
ATOM      9  C   UNL     1      -0.798  -7.958   3.630  0.00  0.00    +0.125 A 
ATOM     10  C   UNL     1      -1.455  -7.535   4.773  0.00  0.00    +0.040 A 
ATOM     11  C   UNL     1      -1.617  -6.185   5.022  0.00  0.00    +0.027 A 
ATOM     12  C   UNL     1      -1.116  -5.250   4.130  0.00  0.00    +0.046 A 
ATOM     13  F   UNL     1      -0.643  -9.278   3.391  0.00  0.00    -0.205 F 
BRANCH  12  14
ATOM     14  N   UNL     1      -1.274  -3.880   4.385  0.00  0.00    -0.357 N 
ATOM     15  H   UNL     1      -0.926  -3.227   3.757  0.00  0.00    +0.142 HD
ATOM     16  H   UNL     1      -1.731  -3.586   5.188  0.00  0.00    +0.142 HD
ENDBRANCH  12  14
ENDBRANCH   4   7
BRANCH   1  19
ATOM     17  C   UNL     1      -0.018   1.461   0.010  0.00  0.00    +0.128 C 
ATOM     18  N   UNL     1       0.002  -0.004   0.002  0.00  0.00    -0.318 N 
ATOM     19  C   UNL     1       0.604  -0.675   1.004  0.00  0.00    +0.216 C 
ATOM     20  O   UNL     1       1.130  -0.067   1.911  0.00  0.00    -0.276 OA
ATOM     21  H   UNL     1      -0.418  -0.491  -0.724  0.00  0.00    +0.148 HD
ENDBRANCH   1  19
TORSDOF 3
