REMARK  Name = ZINC30983042
REMARK  7 active torsions:
REMARK  status: ('A' for Active; 'I' for Inactive)
REMARK    1  A    between atoms: C_4  and  C_7
REMARK    2  A    between atoms: C_7  and  C_9
REMARK    3  A    between atoms: C_14  and  N_15
REMARK    4  A    between atoms: C_16  and  C_18
REMARK    5  A    between atoms: N_21  and  C_24
REMARK    6  A    between atoms: C_24  and  C_25
REMARK    7  A    between atoms: C_27  and  C_30
REMARK                            x       y       z     vdW  Elec       q    Type
REMARK                         _______ _______ _______ _____ _____    ______ ____
ROOT
ATOM      1  C   UNL     1       0.811  10.277  -0.007  0.00  0.00    +0.072 C 
ATOM      2  C   UNL     1       1.667   9.911   1.208  0.00  0.00    -0.006 C 
ATOM      3  C   UNL     1       2.915  10.795   1.232  0.00  0.00    -0.077 C 
ATOM      4  N   UNL     1       2.516  12.207   1.300  0.00  0.00    +0.386 N 
ATOM      5  C   UNL     1       1.733  12.594   0.119  0.00  0.00    -0.077 C 
ATOM      6  C   UNL     1       0.449  11.763   0.062  0.00  0.00    -0.006 C 
ATOM      7  H   UNL     1       1.873  12.332   2.184  0.00  0.00    -0.081 HD
ENDROOT
BRANCH   1   9
ATOM      8  N   UNL     1      -0.374   8.107  -0.059  0.00  0.00    -0.285 N 
ATOM      9  C   UNL     1      -0.450   9.451  -0.003  0.00  0.00    +0.220 C 
ATOM     10  O   UNL     1      -1.532   9.996   0.050  0.00  0.00    -0.275 OA
ATOM     11  H   UNL     1       0.601   7.615  -0.187  0.00  0.00    +0.155 HD
BRANCH   8  17
ATOM     12  C   UNL     1      -1.494   6.088   0.682  0.00  0.00    +0.043 A 
ATOM     13  C   UNL     1      -2.664   5.331   0.785  0.00  0.00    +0.013 A 
ATOM     14  C   UNL     1      -3.843   5.813   0.260  0.00  0.00    +0.001 A 
ATOM     15  C   UNL     1      -3.876   7.047  -0.371  0.00  0.00    +0.002 A 
ATOM     16  C   UNL     1      -2.728   7.806  -0.481  0.00  0.00    +0.024 A 
ATOM     17  C   UNL     1      -1.532   7.340   0.046  0.00  0.00    +0.044 A 
BRANCH  12  18
ATOM     18  C   UNL     1      -0.229   5.579   1.242  0.00  0.00    +0.195 C 
ATOM     19  O   UNL     1       0.384   4.704   0.661  0.00  0.00    -0.287 OA
BRANCH  18  23
ATOM     20  C   UNL     1       1.273   7.165   4.884  0.00  0.00    +0.000 A 
ATOM     21  C   UNL     1       0.137   7.710   4.312  0.00  0.00    +0.001 A 
ATOM     22  C   UNL     1      -0.353   7.204   3.126  0.00  0.00    +0.012 A 
ATOM     23  C   UNL     1       0.294   6.131   2.509  0.00  0.00    +0.022 A 
ATOM     24  C   UNL     1       1.437   5.582   3.095  0.00  0.00    +0.012 A 
ATOM     25  C   UNL     1       1.919   6.103   4.277  0.00  0.00    +0.001 A 
ENDBRANCH  18  23
ENDBRANCH  12  18
ENDBRANCH   8  17
ENDBRANCH   1   9
BRANCH   4  26
ATOM     26  C   UNL     1       3.687  13.078   1.463  0.00  0.00    +0.022 C 
BRANCH  26  27
ATOM     27  C   UNL     1       4.325  12.816   2.803  0.00  0.00    +0.211 A 
ATOM     28  N   UNL     1       5.265  11.941   3.059  0.00  0.00    -0.193 NA
ATOM     29  C   UNL     1       5.521  12.060   4.382  0.00  0.00    +0.202 A 
ATOM     30  N   UNL     1       4.729  12.991   4.846  0.00  0.00    -0.056 NA
ATOM     31  O   UNL     1       4.041  13.437   3.953  0.00  0.00    -0.340 OA
BRANCH  29  32
ATOM     32  C   UNL     1       6.515  11.279   5.160  0.00  0.00    +0.023 A 
ATOM     33  C   UNL     1       7.290  10.308   4.529  0.00  0.00    +0.014 A 
ATOM     34  C   UNL     1       8.216   9.588   5.256  0.00  0.00    +0.039 A 
ATOM     35  C   UNL     1       8.368   9.822   6.613  0.00  0.00    +0.123 A 
ATOM     36  C   UNL     1       7.595  10.783   7.246  0.00  0.00    +0.039 A 
ATOM     37  C   UNL     1       6.671  11.511   6.526  0.00  0.00    +0.014 A 
ATOM     38  F   UNL     1       9.272   9.111   7.322  0.00  0.00    -0.205 F 
ENDBRANCH  29  32
ENDBRANCH  26  27
ENDBRANCH   4  26
TORSDOF 7
