REMARK  Name = ZINC59564783
REMARK  9 active torsions:
REMARK  status: ('A' for Active; 'I' for Inactive)
REMARK    1  A    between atoms: C_1  and  C_2
REMARK    2  A    between atoms: C_2  and  O_3
REMARK    3  A    between atoms: O_3  and  C_4
REMARK    4  A    between atoms: C_4  and  C_6
REMARK    5  A    between atoms: C_10  and  N_11
REMARK    6  A    between atoms: C_12  and  C_14
REMARK    7  A    between atoms: C_14  and  S_15
REMARK    8  A    between atoms: S_15  and  C_16
REMARK    9  A    between atoms: N_25  and  C_26
REMARK                            x       y       z     vdW  Elec       q    Type
REMARK                         _______ _______ _______ _____ _____    ______ ____
ROOT
ATOM      1  C   UNL     1      -2.606  -1.210  -6.005  0.00  0.00    +0.173 C 
ENDROOT
BRANCH   1   3
ATOM      2  N   UNL     1      -0.628  -0.186  -4.928  0.00  0.00    -0.279 N 
ATOM      3  C   UNL     1      -1.139  -0.865  -5.975  0.00  0.00    +0.228 C 
ATOM      4  O   UNL     1      -0.419  -1.197  -6.892  0.00  0.00    -0.275 OA
ATOM      5  H   UNL     1      -1.205   0.079  -4.195  0.00  0.00    +0.155 HD
BRANCH   2  10
ATOM      6  C   UNL     1       1.415   0.818  -3.915  0.00  0.00    +0.091 A 
ATOM      7  C   UNL     1       2.838   1.018  -4.123  0.00  0.00    -0.021 A 
ATOM      8  C   UNL     1       3.306   0.501  -5.280  0.00  0.00    -0.004 A 
ATOM      9  S   UNL     1       1.889  -0.224  -6.053  0.00  0.00    -0.077 S 
ATOM     10  C   UNL     1       0.720   0.132  -4.901  0.00  0.00    +0.086 A 
ATOM     11  C   UNL     1       4.717   0.543  -5.779  0.00  0.00    +0.043 C 
ATOM     12  C   UNL     1       5.486   1.591  -4.961  0.00  0.00    +0.005 C 
ATOM     13  C   UNL     1       5.207   1.361  -3.473  0.00  0.00    +0.005 C 
ATOM     14  C   UNL     1       3.760   1.739  -3.151  0.00  0.00    +0.037 C 
BRANCH   6  15
ATOM     15  C   UNL     1       0.742   1.315  -2.713  0.00  0.00    +0.342 C 
ATOM     16  O   UNL     1       0.666   0.612  -1.724  0.00  0.00    -0.245 OA
BRANCH  15  17
ATOM     17  O   UNL     1       0.206   2.554  -2.703  0.00  0.00    -0.461 OA
BRANCH  17  19
ATOM     18  C   UNL     1      -0.976   4.393  -1.675  0.00  0.00    +0.048 C 
ATOM     19  C   UNL     1      -0.435   2.973  -1.497  0.00  0.00    +0.229 C 
ENDBRANCH  17  19
ENDBRANCH  15  17
ENDBRANCH   6  15
ENDBRANCH   2  10
ENDBRANCH   1   3
BRANCH   1  20
ATOM     20  S   UNL     1      -2.982  -2.117  -7.531  0.00  0.00    -0.082 S 
BRANCH  20  21
ATOM     21  C   UNL     1      -4.710  -2.444  -7.418  0.00  0.00    +0.151 C 
ATOM     22  N   UNL     1      -5.457  -2.068  -6.421  0.00  0.00    -0.347 N 
ATOM     23  C   UNL     1      -6.824  -2.526  -6.696  0.00  0.00    +0.107 C 
ATOM     24  C   UNL     1      -7.773  -1.335  -6.790  0.00  0.00    +0.045 C 
ATOM     25  C   UNL     1      -7.825  -0.615  -5.441  0.00  0.00    +0.004 C 
ATOM     26  C   UNL     1      -8.309  -1.587  -4.363  0.00  0.00    +0.000 C 
ATOM     27  C   UNL     1      -7.341  -2.768  -4.266  0.00  0.00    +0.004 C 
ATOM     28  C   UNL     1      -7.287  -3.494  -5.612  0.00  0.00    +0.045 C 
ATOM     29  N   UNL     1      -6.738  -3.215  -7.995  0.00  0.00    -0.209 NA
ATOM     30  N   UNL     1      -5.426  -3.118  -8.371  0.00  0.00    -0.213 N 
ATOM     31  H   UNL     1      -7.340  -2.778  -8.677  0.00  0.00    +0.147 HD
ATOM     32  H   UNL     1      -5.164  -1.576  -5.638  0.00  0.00    +0.163 HD
BRANCH  30  33
ATOM     33  C   UNL     1      -4.893  -3.637  -9.556  0.00  0.00    +0.052 A 
ATOM     34  C   UNL     1      -3.730  -4.396  -9.522  0.00  0.00    +0.025 A 
ATOM     35  C   UNL     1      -3.206  -4.907 -10.694  0.00  0.00    +0.002 A 
ATOM     36  C   UNL     1      -3.838  -4.663 -11.899  0.00  0.00    +0.000 A 
ATOM     37  C   UNL     1      -4.996  -3.907 -11.937  0.00  0.00    +0.002 A 
ATOM     38  C   UNL     1      -5.527  -3.398 -10.768  0.00  0.00    +0.025 A 
ENDBRANCH  30  33
ENDBRANCH  20  21
ENDBRANCH   1  20
TORSDOF 8
