REMARK  Name = ZINC30827598
REMARK  6 active torsions:
REMARK  status: ('A' for Active; 'I' for Inactive)
REMARK    1  A    between atoms: C_5  and  C_7
REMARK    2  A    between atoms: N_12  and  C_15
REMARK    3  A    between atoms: C_18  and  N_21
REMARK    4  A    between atoms: C_22  and  C_24
REMARK    5  A    between atoms: C_25  and  C_26
REMARK    6  A    between atoms: C_29  and  C_31
REMARK                            x       y       z     vdW  Elec       q    Type
REMARK                         _______ _______ _______ _____ _____    ______ ____
ROOT
ATOM      1  C   UNL     1       5.939  -7.153  -2.815  0.00  0.00    +0.030 A 
ATOM      2  C   UNL     1       6.867  -6.120  -2.864  0.00  0.00    +0.025 A 
ATOM      3  C   UNL     1       6.521  -4.908  -3.427  0.00  0.00    +0.025 A 
ATOM      4  C   UNL     1       5.246  -4.722  -3.945  0.00  0.00    +0.034 A 
ATOM      5  C   UNL     1       4.317  -5.753  -3.892  0.00  0.00    +0.025 A 
ATOM      6  C   UNL     1       4.664  -6.967  -3.333  0.00  0.00    +0.025 A 
ENDROOT
BRANCH   1  12
ATOM      7  C   UNL     1       6.926 -12.404  -2.376  0.00  0.00    +0.249 C 
ATOM      8  O   UNL     1       8.011 -12.841  -2.708  0.00  0.00    -0.270 OA
ATOM      9  N   UNL     1       6.803 -11.111  -2.015  0.00  0.00    -0.294 N 
ATOM     10  C   UNL     1       5.526 -10.588  -1.506  0.00  0.00    +0.127 C 
ATOM     11  C   UNL     1       5.166  -9.326  -2.297  0.00  0.00    +0.124 C 
ATOM     12  N   UNL     1       6.290  -8.382  -2.244  0.00  0.00    -0.327 N 
ATOM     13  C   UNL     1       7.486  -8.940  -2.889  0.00  0.00    +0.124 C 
ATOM     14  C   UNL     1       7.941 -10.186  -2.121  0.00  0.00    +0.127 C 
BRANCH   7  19
ATOM     15  C   UNL     1       3.653 -13.957  -1.391  0.00  0.00    +0.001 A 
ATOM     16  C   UNL     1       3.526 -14.951  -2.346  0.00  0.00    +0.003 A 
ATOM     17  C   UNL     1       4.501 -15.119  -3.312  0.00  0.00    +0.039 A 
ATOM     18  C   UNL     1       5.611 -14.295  -3.328  0.00  0.00    +0.135 A 
ATOM     19  C   UNL     1       5.744 -13.289  -2.365  0.00  0.00    +0.072 A 
ATOM     20  C   UNL     1       4.756 -13.131  -1.391  0.00  0.00    +0.016 A 
ATOM     21  F   UNL     1       6.564 -14.460  -4.272  0.00  0.00    -0.205 F 
ENDBRANCH   7  19
ENDBRANCH   1  12
BRANCH   4  22
ATOM     22  N   UNL     1       4.895  -3.492  -4.516  0.00  0.00    -0.282 N 
ATOM     23  C   UNL     1       5.811  -2.784  -5.206  0.00  0.00    +0.241 C 
ATOM     24  O   UNL     1       6.965  -3.170  -5.260  0.00  0.00    -0.270 OA
ATOM     25  H   UNL     1       3.872  -3.105  -4.403  0.00  0.00    +0.155 HD
BRANCH  23  26
ATOM     26  C   UNL     1       5.433  -1.592  -5.865  0.00  0.00    +0.071 C 
ATOM     27  C   UNL     1       6.356  -0.878  -6.560  0.00  0.00    +0.051 C 
BRANCH  27  28
ATOM     28  C   UNL     1       5.978   0.314  -7.220  0.00  0.00    +0.129 A 
ATOM     29  C   UNL     1       6.814   1.132  -7.957  0.00  0.00    +0.050 A 
ATOM     30  C   UNL     1       6.031   2.190  -8.427  0.00  0.00    +0.050 A 
ATOM     31  C   UNL     1       4.752   1.982  -7.963  0.00  0.00    +0.136 A 
ATOM     32  O   UNL     1       4.739   0.849  -7.238  0.00  0.00    -0.455 OA
BRANCH  31  33
ATOM     33  C   UNL     1       3.591   2.855  -8.217  0.00  0.00    +0.017 A 
ATOM     34  C   UNL     1       3.738   4.013  -8.985  0.00  0.00    +0.014 A 
ATOM     35  C   UNL     1       2.648   4.823  -9.223  0.00  0.00    +0.039 A 
ATOM     36  C   UNL     1       1.410   4.496  -8.693  0.00  0.00    +0.123 A 
ATOM     37  C   UNL     1       1.258   3.351  -7.926  0.00  0.00    +0.039 A 
ATOM     38  C   UNL     1       2.340   2.531  -7.685  0.00  0.00    +0.014 A 
ATOM     39  F   UNL     1       0.346   5.296  -8.925  0.00  0.00    -0.205 F 
ENDBRANCH  31  33
ENDBRANCH  27  28
ENDBRANCH  23  26
ENDBRANCH   4  22
TORSDOF 6
