REMARK  Name = ZINC63280094
REMARK  10 active torsions:
REMARK  status: ('A' for Active; 'I' for Inactive)
REMARK    1  A    between atoms: C_1  and  C_2
REMARK    2  A    between atoms: C_2  and  C_4
REMARK    3  A    between atoms: C_2  and  N_14
REMARK    4  A    between atoms: C_4  and  C_5
REMARK    5  A    between atoms: C_15  and  C_17
REMARK    6  A    between atoms: C_21  and  C_24
REMARK    7  A    between atoms: C_27  and  O_32
REMARK    8  A    between atoms: C_28  and  O_30
REMARK    9  A    between atoms: O_30  and  C_31
REMARK   10  A    between atoms: O_32  and  C_33
REMARK                            x       y       z     vdW  Elec       q    Type
REMARK                         _______ _______ _______ _____ _____    ______ ____
ROOT
ATOM      1  N   UNL     1       0.653  -0.651   1.153  0.00  0.00    -0.309 N 
ATOM      2  C   UNL     1       0.066  -0.590   2.365  0.00  0.00    +0.239 C 
ATOM      3  O   UNL     1      -1.039  -0.093   2.482  0.00  0.00    -0.271 OA
ATOM      4  H   UNL     1       1.533  -1.047   1.060  0.00  0.00    +0.149 HD
ENDROOT
BRANCH   2   5
ATOM      5  C   UNL     1       0.735  -1.102   3.501  0.00  0.00    +0.086 C 
ATOM      6  C   UNL     1       0.102  -1.151   4.692  0.00  0.00    +0.020 C 
ATOM      7  C   UNL     1       0.820  -1.539   5.979  0.00  0.00    +0.121 C 
ATOM      8  S   UNL     1      -0.203  -0.604   7.199  0.00  0.00    -0.128 S 
ATOM      9  C   UNL     1      -1.706  -0.436   6.146  0.00  0.00    +0.159 C 
ATOM     10  N   UNL     1      -1.207  -0.853   4.824  0.00  0.00    -0.331 N 
ATOM     11  H   UNL     1      -1.808  -0.915   4.066  0.00  0.00    +0.147 HD
BRANCH   9  12
ATOM     12  C   UNL     1      -2.180   0.994   6.114  0.00  0.00    -0.014 A 
ATOM     13  C   UNL     1      -1.687   1.863   5.158  0.00  0.00    +0.010 A 
ATOM     14  C   UNL     1      -2.120   3.176   5.125  0.00  0.00    +0.050 A 
ATOM     15  C   UNL     1      -3.050   3.623   6.049  0.00  0.00    +0.162 A 
ATOM     16  C   UNL     1      -3.547   2.748   7.010  0.00  0.00    +0.162 A 
ATOM     17  C   UNL     1      -3.113   1.432   7.035  0.00  0.00    +0.055 A 
BRANCH  16  18
ATOM     18  O   UNL     1      -4.460   3.182   7.919  0.00  0.00    -0.491 OA
ATOM     19  C   UNL     1      -4.926   2.228   8.876  0.00  0.00    +0.277 C 
ENDBRANCH  16  18
BRANCH  15  20
ATOM     20  O   UNL     1      -3.476   4.914   6.017  0.00  0.00    -0.491 OA
ATOM     21  C   UNL     1      -2.923   5.755   5.003  0.00  0.00    +0.277 C 
ENDBRANCH  15  20
ENDBRANCH   9  12
ENDBRANCH   2   5
BRANCH   1  23
ATOM     22  C   UNL     1       0.223   1.383  -0.135  0.00  0.00    +0.028 C 
ATOM     23  C   UNL     1      -0.040  -0.120  -0.023  0.00  0.00    +0.074 C 
BRANCH  23  24
ATOM     24  C   UNL     1       0.477  -0.824  -1.280  0.00  0.00    +0.055 C 
BRANCH  24  25
ATOM     25  C   UNL     1       0.109  -2.284  -1.226  0.00  0.00    -0.040 C 
ATOM     26  C   UNL     1      -0.973  -2.872  -1.787  0.00  0.00    -0.001 A 
ATOM     27  C   UNL     1      -2.088  -2.347  -2.583  0.00  0.00    +0.010 A 
ATOM     28  C   UNL     1      -3.045  -3.200  -3.014  0.00  0.00    +0.001 A 
ATOM     29  C   UNL     1      -2.998  -4.569  -2.719  0.00  0.00    +0.002 A 
ATOM     30  C   UNL     1      -2.006  -5.125  -1.993  0.00  0.00    +0.026 A 
ATOM     31  C   UNL     1      -0.946  -4.321  -1.489  0.00  0.00    +0.043 A 
ATOM     32  N   UNL     1       0.110  -4.619  -0.772  0.00  0.00    -0.380 N 
ATOM     33  C   UNL     1       0.878  -3.390  -0.539  0.00  0.00    +0.144 C 
ATOM     34  H   UNL     1       0.347  -5.504  -0.453  0.00  0.00    +0.160 HD
ENDBRANCH  24  25
ENDBRANCH  23  24
ENDBRANCH   1  23
TORSDOF 7
