REMARK  Name = ZINC39638958
REMARK  8 active torsions:
REMARK  status: ('A' for Active; 'I' for Inactive)
REMARK    1  A    between atoms: C_1  and  C_2
REMARK    2  A    between atoms: C_2  and  N_3
REMARK    3  A    between atoms: C_4  and  C_10
REMARK    4  A    between atoms: C_6  and  C_8
REMARK    5  A    between atoms: C_14  and  C_23
REMARK    6  A    between atoms: N_25  and  C_26
REMARK    7  A    between atoms: C_26  and  C_27
REMARK    8  A    between atoms: C_27  and  C_28
REMARK                            x       y       z     vdW  Elec       q    Type
REMARK                         _______ _______ _______ _____ _____    ______ ____
ROOT
ATOM      1  C   UNL     1       3.085  -0.602  -0.116  0.00  0.00    +0.266 C 
ATOM      2  O   UNL     1       4.254  -0.927  -0.028  0.00  0.00    -0.268 OA
ATOM      3  N   UNL     1       2.604  -0.129  -1.283  0.00  0.00    -0.295 N 
ATOM      4  C   UNL     1       1.206   0.241  -1.605  0.00  0.00    +0.121 C 
ATOM      5  C   UNL     1       1.330   1.514  -2.473  0.00  0.00    +0.100 C 
ATOM      6  C   UNL     1       2.740   1.438  -3.082  0.00  0.00    -0.004 C 
ATOM      7  C   UNL     1       3.355   0.142  -2.532  0.00  0.00    +0.115 C 
ATOM      8  C   UNL     1       2.657   1.381  -4.604  0.00  0.00    -0.010 C 
ATOM      9  C   UNL     1       4.072   1.365  -5.188  0.00  0.00    -0.082 C 
ATOM     10  N   UNL     1       4.793   2.571  -4.762  0.00  0.00    +0.379 N 
ATOM     11  C   UNL     1       4.950   2.572  -3.303  0.00  0.00    -0.082 C 
ATOM     12  C   UNL     1       3.571   2.639  -2.639  0.00  0.00    -0.010 C 
ATOM     13  H   UNL     1       5.703   2.588  -5.197  0.00  0.00    -0.086 HD
ATOM     14  H   UNL     1       4.273   3.389  -5.044  0.00  0.00    -0.086 HD
ENDROOT
BRANCH   1  16
ATOM     15  N   UNL     1       1.422  -1.799   1.383  0.00  0.00    -0.258 N 
ATOM     16  C   UNL     1       2.198  -0.723   1.050  0.00  0.00    +0.138 A 
ATOM     17  C   UNL     1       1.980   0.229   2.032  0.00  0.00    +0.071 A 
ATOM     18  C   UNL     1       1.064  -0.352   2.913  0.00  0.00    +0.075 A 
ATOM     19  N   UNL     1       0.776  -1.547   2.464  0.00  0.00    -0.175 NA
ATOM     20  C   UNL     1       0.502   0.286   4.158  0.00  0.00    +0.069 C 
ATOM     21 BR   UNL     1       2.756   1.949   2.154  0.00  0.00    -0.046 Br
BRANCH  15  23
ATOM     22  C   UNL     1       0.280  -2.901  -0.478  0.00  0.00    +0.029 C 
ATOM     23  C   UNL     1       1.337  -3.046   0.620  0.00  0.00    +0.141 C 
ENDBRANCH  15  23
ENDBRANCH   1  16
BRANCH   5  24
ATOM     24  C   UNL     1       1.190   2.747  -1.619  0.00  0.00    +0.218 C 
ATOM     25  O   UNL     1       1.611   2.748  -0.482  0.00  0.00    -0.275 OA
ATOM     26  N   UNL     1       0.596   3.849  -2.119  0.00  0.00    -0.315 N 
ATOM     27  H   UNL     1       0.194   3.825  -3.002  0.00  0.00    +0.149 HD
BRANCH  26  28
ATOM     28  C   UNL     1       0.558   5.083  -1.330  0.00  0.00    +0.109 C 
BRANCH  28  29
ATOM     29  C   UNL     1      -0.167   6.173  -2.122  0.00  0.00    +0.056 C 
BRANCH  29  30
ATOM     30  C   UNL     1      -0.205   7.442  -1.310  0.00  0.00    -0.011 A 
ATOM     31  C   UNL     1      -1.309   7.730  -0.529  0.00  0.00    +0.006 A 
ATOM     32  C   UNL     1      -1.344   8.893   0.216  0.00  0.00    +0.000 A 
ATOM     33  C   UNL     1      -0.277   9.771   0.181  0.00  0.00    +0.003 A 
ATOM     34  C   UNL     1       0.828   9.486  -0.599  0.00  0.00    +0.038 A 
ATOM     35  C   UNL     1       0.867   8.318  -1.342  0.00  0.00    +0.127 A 
ATOM     36  F   UNL     1       1.948   8.035  -2.101  0.00  0.00    -0.205 F 
ENDBRANCH  29  30
ENDBRANCH  28  29
ENDBRANCH  26  28
ENDBRANCH   5  24
TORSDOF 6
