REMARK  Name = ZINC46621258
REMARK  5 active torsions:
REMARK  status: ('A' for Active; 'I' for Inactive)
REMARK    1  A    between atoms: C_9  and  C_12
REMARK    2  A    between atoms: N_14  and  N_15
REMARK    3  A    between atoms: C_16  and  C_18
REMARK    4  A    between atoms: C_21  and  N_24
REMARK    5  A    between atoms: C_25  and  C_27
REMARK                            x       y       z     vdW  Elec       q    Type
REMARK                         _______ _______ _______ _____ _____    ______ ____
ROOT
ATOM      1  N   UNL     1       6.274  -4.584  -0.294  0.00  0.00    -0.230 N 
ATOM      2  C   UNL     1       6.593  -5.805   0.179  0.00  0.00    +0.260 C 
ATOM      3  O   UNL     1       5.828  -6.388   0.922  0.00  0.00    -0.269 OA
ATOM      4  H   UNL     1       6.885  -4.119  -0.887  0.00  0.00    +0.173 HD
ENDROOT
BRANCH   2   5
ATOM      5  C   UNL     1       7.872  -6.434  -0.206  0.00  0.00    +0.038 A 
ATOM      6  C   UNL     1       8.755  -5.763  -1.055  0.00  0.00    +0.015 A 
ATOM      7  C   UNL     1       9.947  -6.352  -1.412  0.00  0.00    +0.024 A 
ATOM      8  C   UNL     1      10.272  -7.615  -0.927  0.00  0.00    +0.034 A 
ATOM      9  C   UNL     1       9.395  -8.287  -0.081  0.00  0.00    +0.024 A 
ATOM     10  C   UNL     1       8.204  -7.700   0.284  0.00  0.00    +0.015 A 
BRANCH   8  11
ATOM     11  N   UNL     1      11.479  -8.210  -1.290  0.00  0.00    -0.282 N 
ATOM     12  C   UNL     1      12.572  -7.447  -1.491  0.00  0.00    +0.248 C 
ATOM     13  O   UNL     1      12.531  -6.254  -1.263  0.00  0.00    -0.270 OA
ATOM     14  H   UNL     1      11.533  -9.172  -1.398  0.00  0.00    +0.155 HD
BRANCH  12  15
ATOM     15  C   UNL     1      13.821  -8.061  -1.989  0.00  0.00    +0.040 A 
ATOM     16  C   UNL     1      13.870  -9.430  -2.257  0.00  0.00    +0.033 A 
ATOM     17  C   UNL     1      15.039  -9.998  -2.722  0.00  0.00    +0.043 A 
ATOM     18  C   UNL     1      16.162  -9.213  -2.922  0.00  0.00    +0.040 A 
ATOM     19  C   UNL     1      16.120  -7.855  -2.657  0.00  0.00    +0.043 A 
ATOM     20  C   UNL     1      14.955  -7.274  -2.198  0.00  0.00    +0.033 A 
ATOM     21 CL   UNL     1      17.533  -6.879  -2.911  0.00  0.00    -0.083 Cl
ATOM     22 CL   UNL     1      15.102 -11.701  -3.056  0.00  0.00    -0.083 Cl
ENDBRANCH  12  15
ENDBRANCH   8  11
ENDBRANCH   2   5
BRANCH   1  25
ATOM     23  C   UNL     1       4.741  -2.765  -0.402  0.00  0.00    +0.273 C 
ATOM     24  O   UNL     1       5.505  -2.184  -1.143  0.00  0.00    -0.270 OA
ATOM     25  N   UNL     1       5.060  -3.987   0.071  0.00  0.00    -0.231 N 
ATOM     26  H   UNL     1       4.450  -4.452   0.664  0.00  0.00    +0.173 HD
BRANCH  23  35
ATOM     27  C   UNL     1      -0.332   1.047  -0.541  0.00  0.00    +0.004 A 
ATOM     28  C   UNL     1       0.819   1.792  -0.717  0.00  0.00    +0.004 A 
ATOM     29  C   UNL     1       2.053   1.169  -0.721  0.00  0.00    +0.049 A 
ATOM     30  C   UNL     1       2.140  -0.204  -0.549  0.00  0.00    +0.163 A 
ATOM     31  C   UNL     1       0.982  -0.952  -0.369  0.00  0.00    +0.162 A 
ATOM     32  C   UNL     1      -0.253  -0.321  -0.367  0.00  0.00    +0.049 A 
ATOM     33  O   UNL     1       1.045  -2.300  -0.190  0.00  0.00    -0.484 OA
ATOM     34  C   UNL     1       2.266  -2.943  -0.569  0.00  0.00    +0.283 C 
ATOM     35  C   UNL     1       3.436  -2.123  -0.009  0.00  0.00    +0.297 C 
ATOM     36  O   UNL     1       3.362  -0.803  -0.559  0.00  0.00    -0.472 OA
ENDBRANCH  23  35
ENDBRANCH   1  25
TORSDOF 5
