REMARK  Name = ZINC65752271
REMARK  10 active torsions:
REMARK  status: ('A' for Active; 'I' for Inactive)
REMARK    1  A    between atoms: C_1  and  C_2
REMARK    2  A    between atoms: C_6  and  O_22
REMARK    3  A    between atoms: C_7  and  N_8
REMARK    4  A    between atoms: N_11  and  C_12
REMARK    5  A    between atoms: C_12  and  C_13
REMARK    6  A    between atoms: C_13  and  C_14
REMARK    7  A    between atoms: C_13  and  N_19
REMARK    8  A    between atoms: N_19  and  C_20
REMARK    9  A    between atoms: N_19  and  C_21
REMARK   10  A    between atoms: O_22  and  C_23
REMARK                            x       y       z     vdW  Elec       q    Type
REMARK                         _______ _______ _______ _____ _____    ______ ____
ROOT
ATOM      1  N   UNL     1       0.225  -0.041   2.485  0.00  0.00    -0.266 N 
ATOM      2  C   UNL     1      -0.254  -0.649   3.589  0.00  0.00    +0.304 C 
ATOM      3  O   UNL     1      -0.590  -1.816   3.542  0.00  0.00    -0.253 OA
ATOM      4  N   UNL     1      -0.360   0.037   4.744  0.00  0.00    -0.300 N 
ATOM      5  H   UNL     1       0.540   0.875   2.535  0.00  0.00    +0.156 HD
ATOM      6  H   UNL     1      -0.092   0.969   4.781  0.00  0.00    +0.150 HD
ENDROOT
BRANCH   1  13
ATOM      7  C   UNL     1       2.406   0.460   0.730  0.00  0.00    +0.046 C 
ATOM      8  C   UNL     1       1.313  -0.517   0.381  0.00  0.00    -0.025 A 
ATOM      9  C   UNL     1       1.356  -1.204  -0.818  0.00  0.00    +0.020 A 
ATOM     10  C   UNL     1       0.354  -2.101  -1.140  0.00  0.00    +0.022 A 
ATOM     11  C   UNL     1      -0.695  -2.316  -0.265  0.00  0.00    +0.062 A 
ATOM     12  C   UNL     1      -0.745  -1.632   0.938  0.00  0.00    +0.143 A 
ATOM     13  C   UNL     1       0.267  -0.732   1.266  0.00  0.00    +0.080 A 
ATOM     14 BR   UNL     1       0.419  -3.037  -2.783  0.00  0.00    -0.050 Br
BRANCH  12  15
ATOM     15  O   UNL     1      -1.776  -1.841   1.800  0.00  0.00    -0.493 OA
ATOM     16  C   UNL     1      -2.774  -2.783   1.400  0.00  0.00    +0.277 C 
ENDBRANCH  12  15
ENDBRANCH   1  13
BRANCH   4  17
ATOM     17  C   UNL     1      -0.881  -0.624   5.943  0.00  0.00    +0.098 C 
BRANCH  17  18
ATOM     18  C   UNL     1      -1.014   0.400   7.072  0.00  0.00    +0.016 C 
BRANCH  18  19
ATOM     19  C   UNL     1      -2.059   1.421   6.704  0.00  0.00    +0.093 A 
ATOM     20  C   UNL     1      -3.331   1.439   7.142  0.00  0.00    +0.043 A 
ATOM     21  C   UNL     1      -3.952   2.562   6.550  0.00  0.00    +0.041 A 
ATOM     22  C   UNL     1      -3.023   3.164   5.785  0.00  0.00    +0.195 A 
ATOM     23  O   UNL     1      -1.877   2.472   5.887  0.00  0.00    -0.469 OA
ENDBRANCH  18  19
BRANCH  18  24
ATOM     24  N   UNL     1       0.276   1.072   7.279  0.00  0.00    +0.384 N 
ATOM     25  C   UNL     1       0.177   1.978   8.431  0.00  0.00    -0.096 C 
ATOM     26  C   UNL     1       1.316   0.066   7.535  0.00  0.00    -0.096 C 
ATOM     27  H   UNL     1       0.516   1.601   6.454  0.00  0.00    -0.082 HD
ENDBRANCH  18  24
ENDBRANCH  17  18
ENDBRANCH   4  17
TORSDOF 6
