REMARK  Name = ZINC30986470
REMARK  5 active torsions:
REMARK  status: ('A' for Active; 'I' for Inactive)
REMARK    1  A    between atoms: C_1  and  O_2
REMARK    2  A    between atoms: O_2  and  C_3
REMARK    3  A    between atoms: C_3  and  C_5
REMARK    4  A    between atoms: C_7  and  C_11
REMARK    5  A    between atoms: C_17  and  C_19
REMARK                            x       y       z     vdW  Elec       q    Type
REMARK                         _______ _______ _______ _____ _____    ______ ____
ROOT
ATOM      1  C   UNL     1       1.529  -5.327  -2.588  0.00  0.00    +0.082 A 
ATOM      2  C   UNL     1       1.301  -6.610  -2.178  0.00  0.00    +0.077 A 
ATOM      3  S   UNL     1       2.070  -7.526  -3.504  0.00  0.00    -0.060 S 
ATOM      4  C   UNL     1       2.591  -6.217  -4.424  0.00  0.00    +0.165 A 
ATOM      5  N   UNL     1       2.181  -5.177  -3.734  0.00  0.00    -0.225 NA
ATOM      6  N   UNL     1       3.283  -6.233  -5.628  0.00  0.00    -0.261 N 
ATOM      7  C   UNL     1       3.618  -7.408  -6.197  0.00  0.00    +0.250 C 
ATOM      8  O   UNL     1       3.314  -8.454  -5.657  0.00  0.00    -0.270 OA
ATOM      9  H   UNL     1       3.526  -5.399  -6.059  0.00  0.00    +0.157 HD
ENDROOT
BRANCH   7  10
ATOM     10  C   UNL     1       4.354  -7.425  -7.476  0.00  0.00    +0.041 A 
ATOM     11  C   UNL     1       4.710  -6.223  -8.094  0.00  0.00    +0.017 A 
ATOM     12  C   UNL     1       5.397  -6.239  -9.289  0.00  0.00    +0.050 A 
ATOM     13  C   UNL     1       5.737  -7.449  -9.876  0.00  0.00    +0.162 A 
ATOM     14  C   UNL     1       5.388  -8.648  -9.265  0.00  0.00    +0.163 A 
ATOM     15  C   UNL     1       4.702  -8.643  -8.067  0.00  0.00    +0.062 A 
ATOM     16  O   UNL     1       5.731  -9.830  -9.855  0.00  0.00    -0.488 OA
ATOM     17  C   UNL     1       5.060 -10.136 -11.079  0.00  0.00    +0.232 C 
ATOM     18  C   UNL     1       5.757  -9.475 -12.257  0.00  0.00    +0.082 C 
ATOM     19  C   UNL     1       5.694  -7.957 -12.188  0.00  0.00    +0.232 C 
ATOM     20  O   UNL     1       6.419  -7.470 -11.057  0.00  0.00    -0.488 OA
ENDBRANCH   7  10
BRANCH   1  23
ATOM     21  C   UNL     1       0.659  -2.065  -1.123  0.00  0.00    +0.125 A 
ATOM     22  C   UNL     1       1.241  -2.804  -2.129  0.00  0.00    +0.044 A 
ATOM     23  C   UNL     1       1.065  -4.160  -1.796  0.00  0.00    +0.019 A 
ATOM     24  C   UNL     1       0.388  -4.207  -0.611  0.00  0.00    +0.093 A 
ATOM     25  N   UNL     1       0.146  -2.946  -0.197  0.00  0.00    -0.355 N 
ATOM     26  H   UNL     1      -0.317  -2.700   0.619  0.00  0.00    +0.166 HD
BRANCH  21  27
ATOM     27  C   UNL     1       0.601  -0.603  -1.048  0.00  0.00    +0.355 C 
ATOM     28  O   UNL     1       1.094   0.071  -1.932  0.00  0.00    -0.243 OA
BRANCH  27  30
ATOM     29  C   UNL     1      -0.017   1.425   0.010  0.00  0.00    +0.280 C 
ATOM     30  O   UNL     1       0.002  -0.004   0.002  0.00  0.00    -0.463 OA
ENDBRANCH  27  30
ENDBRANCH  21  27
ENDBRANCH   1  23
TORSDOF 4
