REMARK  Name = ZINC22193025
REMARK  7 active torsions:
REMARK  status: ('A' for Active; 'I' for Inactive)
REMARK    1  A    between atoms: C_3  and  C_31
REMARK    2  A    between atoms: C_5  and  S_7
REMARK    3  A    between atoms: S_7  and  N_10
REMARK    4  A    between atoms: C_13  and  C_16
REMARK    5  A    between atoms: N_18  and  C_19
REMARK    6  A    between atoms: C_22  and  C_25
REMARK    7  A    between atoms: N_27  and  C_28
REMARK                            x       y       z     vdW  Elec       q    Type
REMARK                         _______ _______ _______ _____ _____    ______ ____
ROOT
ATOM      1  N   UNL     1       0.132   6.174  -1.426  0.00  0.00    -0.177 NA
ATOM      2  C   UNL     1       1.295   6.331  -2.310  0.00  0.00    +0.110 C 
ATOM      3  C   UNL     1       1.278   7.737  -2.909  0.00  0.00    +0.030 C 
ATOM      4  C   UNL     1      -0.069   7.981  -3.592  0.00  0.00    +0.078 C 
ATOM      5  C   UNL     1      -1.193   7.881  -2.559  0.00  0.00    +0.030 C 
ATOM      6  C   UNL     1      -1.205   6.472  -1.958  0.00  0.00    +0.110 C 
ENDROOT
BRANCH   4   7
ATOM      7  C   UNL     1      -0.076   9.356  -4.210  0.00  0.00    +0.220 C 
ATOM      8  O   UNL     1      -0.899  10.174  -3.859  0.00  0.00    -0.275 OA
ATOM      9  N   UNL     1       0.832   9.675  -5.154  0.00  0.00    -0.285 N 
ATOM     10  H   UNL     1       1.632   8.964  -5.410  0.00  0.00    +0.155 HD
BRANCH   9  11
ATOM     11  C   UNL     1       0.758  10.906  -5.804  0.00  0.00    +0.033 A 
ATOM     12  C   UNL     1      -0.481  11.484  -6.057  0.00  0.00    +0.024 A 
ATOM     13  C   UNL     1      -0.558  12.702  -6.695  0.00  0.00    +0.015 A 
ATOM     14  C   UNL     1       0.612  13.352  -7.097  0.00  0.00    +0.037 A 
ATOM     15  C   UNL     1       1.855  12.766  -6.847  0.00  0.00    +0.015 A 
ATOM     16  C   UNL     1       1.925  11.551  -6.204  0.00  0.00    +0.024 A 
BRANCH  14  17
ATOM     17  C   UNL     1       0.534  14.655  -7.786  0.00  0.00    +0.244 C 
ATOM     18  O   UNL     1       1.552  15.220  -8.137  0.00  0.00    -0.270 OA
ATOM     19  N   UNL     1      -0.666  15.220  -8.027  0.00  0.00    -0.308 N 
ATOM     20  H   UNL     1      -1.588  14.709  -7.710  0.00  0.00    +0.149 HD
BRANCH  19  21
ATOM     21  C   UNL     1      -0.744  16.513  -8.711  0.00  0.00    +0.073 C 
ATOM     22  C   UNL     1      -1.721  17.550  -8.153  0.00  0.00    +0.024 C 
ATOM     23  C   UNL     1      -2.033  16.835  -9.469  0.00  0.00    +0.024 C 
ENDBRANCH  19  21
ENDBRANCH  14  17
ENDBRANCH   9  11
ENDBRANCH   4   7
BRANCH   1  24
ATOM     24  S   UNL     1       0.324   5.676   0.142  0.00  0.00    +0.061 S 
ATOM     25  O   UNL     1      -0.806   6.151   0.860  0.00  0.00    -0.153 OA
ATOM     26  O   UNL     1       1.656   6.006   0.512  0.00  0.00    -0.153 OA
BRANCH  24  31
ATOM     27  C   UNL     1       1.284   1.778  -0.017  0.00  0.00    +0.002 A 
ATOM     28  C   UNL     1       0.060   1.157   0.152  0.00  0.00    +0.012 A 
ATOM     29  C   UNL     1      -1.083   1.917   0.313  0.00  0.00    +0.057 A 
ATOM     30  C   UNL     1      -1.002   3.297   0.315  0.00  0.00    +0.041 A 
ATOM     31  C   UNL     1       0.222   3.917   0.146  0.00  0.00    +0.106 A 
ATOM     32  C   UNL     1       1.365   3.157  -0.020  0.00  0.00    +0.028 A 
BRANCH  29  33
ATOM     33  C   UNL     1      -2.418   1.240   0.490  0.00  0.00    +0.417 C 
ATOM     34  F   UNL     1      -2.246  -0.148   0.459  0.00  0.00    -0.166 F 
ATOM     35  F   UNL     1      -2.970   1.613   1.721  0.00  0.00    -0.166 F 
ATOM     36  F   UNL     1      -3.278   1.627  -0.543  0.00  0.00    -0.166 F 
ENDBRANCH  29  33
ENDBRANCH  24  31
ENDBRANCH   1  24
TORSDOF 7
