REMARK  Name = ZINC36065820
REMARK  14 active torsions:
REMARK  status: ('A' for Active; 'I' for Inactive)
REMARK    1  A    between atoms: C_1  and  N_2
REMARK    2  A    between atoms: N_2  and  C_3
REMARK    3  A    between atoms: C_3  and  C_4
REMARK    4  A    between atoms: C_10  and  C_12
REMARK    5  A    between atoms: C_15  and  C_17
REMARK    6  A    between atoms: C_17  and  N_18
REMARK    7  A    between atoms: N_18  and  C_19
REMARK    8  A    between atoms: N_18  and  C_29
REMARK    9  A    between atoms: C_19  and  C_20
REMARK   10  A    between atoms: C_29  and  C_30
REMARK   11  A    between atoms: C_34  and  O_38
REMARK   12  A    between atoms: C_35  and  O_36
REMARK   13  A    between atoms: O_36  and  C_37
REMARK   14  A    between atoms: O_38  and  C_39
REMARK                            x       y       z     vdW  Elec       q    Type
REMARK                         _______ _______ _______ _____ _____    ______ ____
ROOT
ATOM      1  N   UNL     1       1.521   3.691  -4.994  0.00  0.00    +0.391 N 
ATOM      2  H   UNL     1       2.082   3.164  -5.646  0.00  0.00    -0.080 HD
ENDROOT
BRANCH   1   3
ATOM      3  C   UNL     1       0.224   3.025  -4.814  0.00  0.00    +0.020 C 
BRANCH   3   7
ATOM      4  C   UNL     1      -0.971   1.993  -8.075  0.00  0.00    +0.164 A 
ATOM      5  C   UNL     1      -1.683   3.140  -7.905  0.00  0.00    +0.230 A 
ATOM      6  O   UNL     1      -1.335   3.644  -6.710  0.00  0.00    -0.449 OA
ATOM      7  C   UNL     1      -0.429   2.825  -6.158  0.00  0.00    +0.179 A 
ATOM      8  N   UNL     1      -0.205   1.829  -6.962  0.00  0.00    -0.210 NA
BRANCH   4  11
ATOM      9  C   UNL     1       0.348  -0.498  -8.009  0.00  0.00    +0.132 C 
ATOM     10  N   UNL     1      -0.347  -0.071  -9.226  0.00  0.00    -0.295 N 
ATOM     11  C   UNL     1      -1.024   1.095  -9.242  0.00  0.00    +0.268 C 
ATOM     12  O   UNL     1      -1.678   1.405 -10.219  0.00  0.00    -0.268 OA
BRANCH  10  13
ATOM     13  C   UNL     1      -0.306  -0.911 -10.426  0.00  0.00    +0.142 C 
BRANCH  13  14
ATOM     14  C   UNL     1      -1.465  -1.874 -10.405  0.00  0.00    -0.030 A 
ATOM     15  C   UNL     1      -1.324  -3.112  -9.808  0.00  0.00    +0.005 A 
ATOM     16  C   UNL     1      -2.387  -3.996  -9.789  0.00  0.00    +0.000 A 
ATOM     17  C   UNL     1      -3.591  -3.640 -10.366  0.00  0.00    +0.000 A 
ATOM     18  C   UNL     1      -3.733  -2.401 -10.962  0.00  0.00    +0.000 A 
ATOM     19  C   UNL     1      -2.671  -1.516 -10.978  0.00  0.00    +0.005 A 
ENDBRANCH  13  14
ENDBRANCH  10  13
ENDBRANCH   4  11
ENDBRANCH   3   7
ENDBRANCH   1   3
BRANCH   1  20
ATOM     20  C   UNL     1       2.215   3.768  -3.702  0.00  0.00    -0.042 C 
BRANCH  20  21
ATOM     21  C   UNL     1       2.566   2.378  -3.237  0.00  0.00    -0.060 A 
ATOM     22  C   UNL     1       1.691   1.680  -2.426  0.00  0.00    +0.005 A 
ATOM     23  C   UNL     1       2.009   0.404  -1.998  0.00  0.00    +0.050 A 
ATOM     24  C   UNL     1       3.207  -0.177  -2.380  0.00  0.00    +0.166 A 
ATOM     25  C   UNL     1       4.089   0.526  -3.197  0.00  0.00    +0.166 A 
ATOM     26  C   UNL     1       3.761   1.802  -3.627  0.00  0.00    +0.051 A 
ATOM     27  O   UNL     1       5.185  -0.253  -3.429  0.00  0.00    -0.453 OA
ATOM     28  C   UNL     1       5.150  -1.277  -2.417  0.00  0.00    +0.466 C 
ATOM     29  O   UNL     1       3.750  -1.398  -2.101  0.00  0.00    -0.453 OA
ENDBRANCH  20  21
ENDBRANCH   1  20
BRANCH   1  30
ATOM     30  C   UNL     1       1.306   5.047  -5.516  0.00  0.00    -0.038 C 
BRANCH  30  31
ATOM     31  C   UNL     1       2.638   5.686  -5.816  0.00  0.00    -0.019 A 
ATOM     32  C   UNL     1       3.195   6.577  -4.917  0.00  0.00    +0.005 A 
ATOM     33  C   UNL     1       4.416   7.165  -5.189  0.00  0.00    +0.004 A 
ATOM     34  C   UNL     1       5.085   6.866  -6.362  0.00  0.00    +0.049 A 
ATOM     35  C   UNL     1       4.532   5.974  -7.266  0.00  0.00    +0.162 A 
ATOM     36  C   UNL     1       3.305   5.378  -6.990  0.00  0.00    +0.163 A 
BRANCH  36  37
ATOM     37  O   UNL     1       2.761   4.498  -7.872  0.00  0.00    -0.491 OA
ATOM     38  C   UNL     1       1.907   5.038  -8.883  0.00  0.00    +0.277 C 
ENDBRANCH  36  37
BRANCH  35  39
ATOM     39  O   UNL     1       5.188   5.679  -8.420  0.00  0.00    -0.491 OA
ATOM     40  C   UNL     1       6.445   6.325  -8.635  0.00  0.00    +0.277 C 
ENDBRANCH  35  39
ENDBRANCH  30  31
ENDBRANCH   1  30
TORSDOF 11
