REMARK  Name = ZINC63399421
REMARK  8 active torsions:
REMARK  status: ('A' for Active; 'I' for Inactive)
REMARK    1  A    between atoms: C_4  and  O_5
REMARK    2  A    between atoms: C_6  and  C_17
REMARK    3  A    between atoms: N_9  and  C_10
REMARK    4  A    between atoms: C_17  and  O_19
REMARK    5  A    between atoms: O_19  and  C_20
REMARK    6  A    between atoms: C_20  and  C_22
REMARK    7  A    between atoms: C_20  and  C_23
REMARK    8  A    between atoms: C_23  and  C_25
REMARK                            x       y       z     vdW  Elec       q    Type
REMARK                         _______ _______ _______ _____ _____    ______ ____
ROOT
ATOM      1  C   UNL     1       0.529   1.407   0.743  0.00  0.00    +0.035 C 
ATOM      2  C   UNL     1       0.226   0.157   0.371  0.00  0.00    +0.046 C 
ATOM      3  C   UNL     1      -1.157  -0.370   0.443  0.00  0.00    +0.067 C 
ATOM      4  C   UNL     1      -1.359  -1.664   0.184  0.00  0.00    +0.125 C 
ATOM      5  C   UNL     1      -0.230  -2.581  -0.189  0.00  0.00    +0.247 C 
ATOM      6  N   UNL     1       1.059  -2.049   0.268  0.00  0.00    -0.215 NA
ATOM      7  N   UNL     1       1.202  -0.734  -0.118  0.00  0.00    -0.235 N 
ATOM      8  H   UNL     1       1.158  -2.150   1.267  0.00  0.00    +0.146 HD
ENDROOT
BRANCH   7   9
ATOM      9  C   UNL     1       2.250  -0.308  -0.938  0.00  0.00    +0.050 A 
ATOM     10  C   UNL     1       3.552  -0.713  -0.671  0.00  0.00    +0.026 A 
ATOM     11  C   UNL     1       4.585  -0.290  -1.484  0.00  0.00    +0.022 A 
ATOM     12  C   UNL     1       4.325   0.535  -2.564  0.00  0.00    +0.041 A 
ATOM     13  C   UNL     1       3.029   0.940  -2.833  0.00  0.00    +0.022 A 
ATOM     14  C   UNL     1       1.991   0.516  -2.026  0.00  0.00    +0.026 A 
ATOM     15 CL   UNL     1       5.626   1.064  -3.584  0.00  0.00    -0.084 Cl
ENDBRANCH   7   9
BRANCH   4  16
ATOM     16  O   UNL     1      -2.616  -2.162   0.257  0.00  0.00    -0.509 OA
ATOM     17  H   UNL     1      -3.285  -1.508   0.502  0.00  0.00    +0.292 HD
ENDBRANCH   4  16
BRANCH   5  18
ATOM     18  C   UNL     1      -0.195  -2.739  -1.687  0.00  0.00    +0.334 C 
ATOM     19  O   UNL     1       0.789  -2.409  -2.306  0.00  0.00    -0.248 OA
BRANCH  18  20
ATOM     20  O   UNL     1      -1.256  -3.245  -2.333  0.00  0.00    -0.452 OA
BRANCH  20  21
ATOM     21  C   UNL     1      -1.154  -3.366  -3.754  0.00  0.00    +0.244 C 
ATOM     22  C   UNL     1      -1.658  -2.081  -4.413  0.00  0.00    +0.061 C 
BRANCH  21  23
ATOM     23  C   UNL     1      -1.989  -4.530  -4.220  0.00  0.00    +0.201 C 
ATOM     24  O   UNL     1      -2.877  -4.962  -3.514  0.00  0.00    -0.288 OA
BRANCH  23  25
ATOM     25  C   UNL     1      -1.739  -5.119  -5.478  0.00  0.00    +0.027 C 
ATOM     26  C   UNL     1      -2.412  -6.182  -6.053  0.00  0.00    +0.006 A 
ATOM     27  C   UNL     1      -3.494  -6.984  -5.619  0.00  0.00    +0.010 A 
ATOM     28  C   UNL     1      -3.961  -7.981  -6.404  0.00  0.00    +0.001 A 
ATOM     29  C   UNL     1      -3.411  -8.268  -7.663  0.00  0.00    +0.002 A 
ATOM     30  C   UNL     1      -2.377  -7.564  -8.170  0.00  0.00    +0.026 A 
ATOM     31  C   UNL     1      -1.808  -6.460  -7.379  0.00  0.00    +0.043 A 
ATOM     32  N   UNL     1      -0.830  -5.633  -7.618  0.00  0.00    -0.380 N 
ATOM     33  C   UNL     1      -0.682  -4.716  -6.483  0.00  0.00    +0.152 C 
ATOM     34  H   UNL     1      -0.288  -5.623  -8.422  0.00  0.00    +0.160 HD
ENDBRANCH  23  25
ENDBRANCH  21  23
ENDBRANCH  20  21
ENDBRANCH  18  20
ENDBRANCH   5  18
TORSDOF 7
