REMARK  Name = ZINC12453050
REMARK  11 active torsions:
REMARK  status: ('A' for Active; 'I' for Inactive)
REMARK    1  A    between atoms: C_1  and  C_2
REMARK    2  A    between atoms: C_5  and  C_8
REMARK    3  A    between atoms: N_10  and  C_11
REMARK    4  A    between atoms: N_10  and  C_20
REMARK    5  A    between atoms: C_11  and  C_12
REMARK    6  A    between atoms: C_15  and  O_18
REMARK    7  A    between atoms: O_18  and  C_19
REMARK    8  A    between atoms: C_20  and  C_21
REMARK    9  A    between atoms: C_27  and  C_38
REMARK   10  A    between atoms: C_29  and  N_30
REMARK   11  A    between atoms: C_34  and  O_37
REMARK                            x       y       z     vdW  Elec       q    Type
REMARK                         _______ _______ _______ _____ _____    ______ ____
ROOT
ATOM      1  C   UNL     1      -2.320  -0.778  -2.345  0.00  0.00    +0.147 C 
ENDROOT
BRANCH   1   2
ATOM      2  C   UNL     1      -3.680  -1.032  -1.747  0.00  0.00    +0.009 A 
ATOM      3  C   UNL     1      -4.261  -2.259  -1.868  0.00  0.00    +0.018 A 
ATOM      4  C   UNL     1      -5.536  -2.454  -1.299  0.00  0.00    -0.001 A 
ATOM      5  C   UNL     1      -6.194  -3.690  -1.392  0.00  0.00    +0.010 A 
ATOM      6  C   UNL     1      -7.425  -3.842  -0.830  0.00  0.00    +0.001 A 
ATOM      7  C   UNL     1      -8.041  -2.785  -0.164  0.00  0.00    +0.005 A 
ATOM      8  C   UNL     1      -7.432  -1.573  -0.055  0.00  0.00    -0.027 A 
ATOM      9  C   UNL     1      -6.160  -1.378  -0.622  0.00  0.00    +0.051 A 
ATOM     10  C   UNL     1      -4.348  -0.008  -1.059  0.00  0.00    +0.104 A 
ATOM     11  C   UNL     1      -8.117  -0.444   0.671  0.00  0.00    +0.046 C 
ATOM     12  N   UNL     1      -5.573  -0.139  -0.493  0.00  0.00    -0.342 N 
ATOM     13  H   UNL     1      -6.033   0.636  -0.000  0.00  0.00    +0.167 HD
BRANCH  10  14
ATOM     14  N   UNL     1      -3.742   1.234  -0.939  0.00  0.00    -0.314 N 
ATOM     15  C   UNL     1      -4.671   2.310  -1.306  0.00  0.00    +0.106 C 
ATOM     16  C   UNL     1      -3.930   3.649  -1.303  0.00  0.00    +0.021 C 
ATOM     17  C   UNL     1      -3.351   3.902   0.092  0.00  0.00    +0.034 C 
ATOM     18  C   UNL     1      -2.425   2.743   0.470  0.00  0.00    +0.132 C 
ATOM     19  C   UNL     1      -3.209   1.431   0.415  0.00  0.00    +0.137 C 
BRANCH  18  20
ATOM     20  O   UNL     1      -1.924   2.945   1.793  0.00  0.00    -0.390 OA
ATOM     21  H   UNL     1      -1.351   3.719   1.884  0.00  0.00    +0.210 HD
ENDBRANCH  18  20
ENDBRANCH  10  14
ENDBRANCH   1   2
BRANCH   1  24
ATOM     22  C   UNL     1      -0.941  -2.780  -2.508  0.00  0.00    +0.247 C 
ATOM     23  O   UNL     1      -0.508  -3.727  -3.135  0.00  0.00    -0.270 OA
ATOM     24  N   UNL     1      -1.870  -1.974  -3.060  0.00  0.00    -0.289 N 
BRANCH  22  29
ATOM     25  C   UNL     1       0.977  -1.732   2.816  0.00  0.00    +0.044 C 
ATOM     26  C   UNL     1       0.474  -2.007   1.422  0.00  0.00    -0.050 A 
ATOM     27  C   UNL     1       1.291  -2.651   0.510  0.00  0.00    +0.004 A 
ATOM     28  C   UNL     1       0.838  -2.905  -0.768  0.00  0.00    +0.013 A 
ATOM     29  C   UNL     1      -0.449  -2.511  -1.140  0.00  0.00    +0.037 A 
ATOM     30  C   UNL     1      -1.266  -1.858  -0.216  0.00  0.00    +0.013 A 
ATOM     31  C   UNL     1      -0.802  -1.615   1.060  0.00  0.00    +0.004 A 
ENDBRANCH  22  29
BRANCH  24  32
ATOM     32  C   UNL     1      -2.430  -2.295  -4.375  0.00  0.00    +0.143 C 
BRANCH  32  33
ATOM     33  C   UNL     1      -1.594  -1.647  -5.449  0.00  0.00    -0.030 A 
ATOM     34  C   UNL     1      -1.904  -0.373  -5.889  0.00  0.00    +0.009 A 
ATOM     35  C   UNL     1      -1.136   0.226  -6.869  0.00  0.00    +0.046 A 
ATOM     36  C   UNL     1      -0.060  -0.456  -7.419  0.00  0.00    +0.120 A 
ATOM     37  C   UNL     1       0.246  -1.736  -6.979  0.00  0.00    +0.046 A 
ATOM     38  C   UNL     1      -0.522  -2.328  -5.995  0.00  0.00    +0.009 A 
BRANCH  36  39
ATOM     39  O   UNL     1       0.693   0.128  -8.387  0.00  0.00    -0.495 OA
ATOM     40  C   UNL     1       0.321   1.447  -8.791  0.00  0.00    +0.277 C 
ENDBRANCH  36  39
ENDBRANCH  32  33
ENDBRANCH  24  32
ENDBRANCH   1  24
TORSDOF 8
