REMARK  Name = ZINC00106530
REMARK  5 active torsions:
REMARK  status: ('A' for Active; 'I' for Inactive)
REMARK    1  A    between atoms: C_1  and  C_2
REMARK    2  A    between atoms: C_2  and  C_3
REMARK    3  A    between atoms: C_2  and  C_4
REMARK    4  A    between atoms: C_2  and  C_5
REMARK    5  A    between atoms: C_8  and  C_11
REMARK                            x       y       z     vdW  Elec       q    Type
REMARK                         _______ _______ _______ _____ _____    ______ ____
ROOT
ATOM      1  C   UNL     1       2.342   5.492   0.537  0.00  0.00    +0.032 C 
ATOM      2  C   UNL     1       2.482   4.073  -0.011  0.00  0.00    +0.065 C 
ATOM      3  C   UNL     1       1.164   3.352   0.009  0.00  0.00    +0.057 A 
ATOM      4  C   UNL     1      -0.051   4.045   0.028  0.00  0.00    +0.057 A 
ATOM      5  C   UNL     1      -1.249   3.318   0.034  0.00  0.00    +0.127 A 
ATOM      6  N   UNL     1      -1.187   1.999   0.019  0.00  0.00    -0.222 NA
ATOM      7  C   UNL     1      -0.017   1.374   0.010  0.00  0.00    +0.213 A 
ATOM      8  N   UNL     1       1.137   2.030   0.002  0.00  0.00    -0.219 NA
ATOM      9  N   UNL     1       0.002  -0.004   0.002  0.00  0.00    -0.327 N 
ATOM     10  C   UNL     1      -0.067   5.514   0.043  0.00  0.00    +0.167 C 
ATOM     11  O   UNL     1      -1.087   6.130   0.268  0.00  0.00    -0.292 OA
ATOM     12  C   UNL     1       1.240   6.231  -0.233  0.00  0.00    +0.088 C 
ATOM     13  H   UNL     1       0.849  -0.478  -0.009  0.00  0.00    +0.145 HD
ATOM     14  H   UNL     1      -0.831  -0.500   0.007  0.00  0.00    +0.145 HD
ENDROOT
BRANCH   1  18
ATOM     15  C   UNL     1       6.044   7.570   0.070  0.00  0.00    -0.042 A 
ATOM     16  C   UNL     1       5.507   7.389   1.331  0.00  0.00    +0.004 A 
ATOM     17  C   UNL     1       4.309   6.717   1.482  0.00  0.00    +0.004 A 
ATOM     18  C   UNL     1       3.648   6.225   0.372  0.00  0.00    -0.043 A 
ATOM     19  C   UNL     1       4.187   6.401  -0.888  0.00  0.00    +0.004 A 
ATOM     20  C   UNL     1       5.383   7.078  -1.040  0.00  0.00    +0.004 A 
BRANCH  15  22
ATOM     21  C   UNL     1       8.450   7.566   0.672  0.00  0.00    +0.015 C 
ATOM     22  C   UNL     1       7.350   8.303  -0.095  0.00  0.00    -0.013 C 
ATOM     23  C   UNL     1       7.717   8.364  -1.579  0.00  0.00    +0.015 C 
ATOM     24  C   UNL     1       7.210   9.725   0.455  0.00  0.00    +0.015 C 
ENDBRANCH  15  22
ENDBRANCH   1  18
TORSDOF 2
