REMARK  Name = ZINC59168060
REMARK  5 active torsions:
REMARK  status: ('A' for Active; 'I' for Inactive)
REMARK    1  A    between atoms: C_3  and  N_7
REMARK    2  A    between atoms: C_8  and  C_10
REMARK    3  A    between atoms: C_10  and  N_21
REMARK    4  A    between atoms: C_11  and  C_12
REMARK    5  A    between atoms: C_22  and  C_24
REMARK                            x       y       z     vdW  Elec       q    Type
REMARK                         _______ _______ _______ _____ _____    ______ ____
ROOT
ATOM      1  C   UNL     1       5.866   2.057  -0.053  0.00  0.00    +0.097 C 
ATOM      2  C   UNL     1       5.905   3.408   0.023  0.00  0.00    +0.036 C 
ENDROOT
BRANCH   2   3
ATOM      3  C   UNL     1       4.659   4.184  -0.044  0.00  0.00    -0.019 A 
ATOM      4  C   UNL     1       3.515   3.735   0.627  0.00  0.00    +0.012 A 
ATOM      5  C   UNL     1       2.349   4.464   0.563  0.00  0.00    +0.050 A 
ATOM      6  C   UNL     1       2.301   5.646  -0.166  0.00  0.00    +0.166 A 
ATOM      7  C   UNL     1       3.437   6.100  -0.837  0.00  0.00    +0.167 A 
ATOM      8  C   UNL     1       4.612   5.378  -0.773  0.00  0.00    +0.057 A 
ATOM      9  O   UNL     1       3.129   7.270  -1.470  0.00  0.00    -0.453 OA
ATOM     10  C   UNL     1       1.691   7.314  -1.519  0.00  0.00    +0.466 C 
ATOM     11  O   UNL     1       1.286   6.532  -0.380  0.00  0.00    -0.453 OA
ENDBRANCH   2   3
BRANCH   1  13
ATOM     12  N   UNL     1       4.246   1.286  -1.706  0.00  0.00    -0.279 N 
ATOM     13  C   UNL     1       4.615   1.377  -0.413  0.00  0.00    +0.262 C 
ATOM     14  O   UNL     1       3.913   0.896   0.456  0.00  0.00    -0.268 OA
ATOM     15  H   UNL     1       4.840   1.603  -2.404  0.00  0.00    +0.155 HD
BRANCH  12  18
ATOM     16  C   UNL     1       1.112   0.567  -3.483  0.00  0.00    +0.021 A 
ATOM     17  C   UNL     1       2.338   1.143  -3.193  0.00  0.00    +0.026 A 
ATOM     18  C   UNL     1       3.006   0.734  -2.041  0.00  0.00    +0.052 A 
ATOM     19  C   UNL     1       2.422  -0.232  -1.231  0.00  0.00    +0.134 A 
ATOM     20  N   UNL     1       1.253  -0.755  -1.544  0.00  0.00    -0.261 NA
ATOM     21  C   UNL     1       0.596  -0.388  -2.627  0.00  0.00    +0.111 A 
ENDBRANCH  12  18
ENDBRANCH   1  13
BRANCH   1  22
ATOM     22  N   UNL     1       7.018   1.308   0.211  0.00  0.00    -0.277 N 
ATOM     23  C   UNL     1       7.038  -0.013  -0.054  0.00  0.00    +0.248 C 
ATOM     24  O   UNL     1       6.091  -0.537  -0.607  0.00  0.00    -0.270 OA
ATOM     25  H   UNL     1       7.802   1.740   0.584  0.00  0.00    +0.155 HD
BRANCH  23  26
ATOM     26  C   UNL     1       8.212  -0.826   0.329  0.00  0.00    +0.037 A 
ATOM     27  C   UNL     1       9.299  -0.228   0.970  0.00  0.00    +0.014 A 
ATOM     28  C   UNL     1      10.391  -0.992   1.324  0.00  0.00    +0.016 A 
ATOM     29  C   UNL     1      10.411  -2.348   1.047  0.00  0.00    +0.018 A 
ATOM     30  C   UNL     1       9.336  -2.946   0.411  0.00  0.00    +0.016 A 
ATOM     31  C   UNL     1       8.236  -2.195   0.056  0.00  0.00    +0.014 A 
ATOM     32 BR   UNL     1      11.913  -3.388   1.536  0.00  0.00    -0.050 Br
ENDBRANCH  23  26
ENDBRANCH   1  22
TORSDOF 5
