REMARK  Name = ZINC06462170
REMARK  15 active torsions:
REMARK  status: ('A' for Active; 'I' for Inactive)
REMARK    1  A    between atoms: C_1  and  C_2
REMARK    2  A    between atoms: C_2  and  C_3
REMARK    3  A    between atoms: C_3  and  C_4
REMARK    4  A    between atoms: C_3  and  C_5
REMARK    5  A    between atoms: C_3  and  N_6
REMARK    6  A    between atoms: C_7  and  C_9
REMARK    7  A    between atoms: C_9  and  C_11
REMARK    8  A    between atoms: C_9  and  N_18
REMARK    9  A    between atoms: N_18  and  C_19
REMARK   10  A    between atoms: C_19  and  C_20
REMARK   11  A    between atoms: C_25  and  O_26
REMARK   12  A    between atoms: O_26  and  C_27
REMARK   13  A    between atoms: C_28  and  C_30
REMARK   14  A    between atoms: C_31  and  N_38
REMARK   15  A    between atoms: C_32  and  C_35
REMARK                            x       y       z     vdW  Elec       q    Type
REMARK                         _______ _______ _______ _____ _____    ______ ____
ROOT
ATOM      1  N   UNL     1       3.995   0.561  -0.508  0.00  0.00    -0.277 N 
ATOM      2  C   UNL     1       3.132  -0.338  -1.021  0.00  0.00    +0.258 C 
ATOM      3  O   UNL     1       3.523  -1.448  -1.332  0.00  0.00    -0.269 OA
ENDROOT
BRANCH   2   4
ATOM      4  C   UNL     1       1.724   0.021  -1.204  0.00  0.00    +0.115 A 
ATOM      5  C   UNL     1       0.867  -0.273  -2.267  0.00  0.00    +0.076 A 
ATOM      6  C   UNL     1      -0.414   0.244  -2.078  0.00  0.00    +0.155 A 
ATOM      7  N   UNL     1      -0.680   0.920  -0.983  0.00  0.00    -0.203 NA
ATOM      8  S   UNL     1       0.646   0.948  -0.132  0.00  0.00    +0.019 S 
BRANCH   6   9
ATOM      9  C   UNL     1      -1.460   0.035  -3.097  0.00  0.00    +0.262 C 
ATOM     10  O   UNL     1      -1.206  -0.591  -4.108  0.00  0.00    -0.269 OA
ATOM     11  N   UNL     1      -2.696   0.538  -2.907  0.00  0.00    -0.324 N 
ATOM     12  H   UNL     1      -2.897   1.038  -2.101  0.00  0.00    +0.145 HD
ATOM     13  H   UNL     1      -3.383   0.401  -3.578  0.00  0.00    +0.145 HD
ENDBRANCH   6   9
BRANCH   5  14
ATOM     14  N   UNL     1       1.248  -1.000  -3.387  0.00  0.00    -0.355 N 
ATOM     15  H   UNL     1       0.608  -1.173  -4.094  0.00  0.00    +0.142 HD
ATOM     16  H   UNL     1       2.156  -1.334  -3.462  0.00  0.00    +0.142 HD
ENDBRANCH   5  14
ENDBRANCH   2   4
BRANCH   1  17
ATOM     17  C   UNL     1       5.412   0.218  -0.366  0.00  0.00    +0.193 C 
BRANCH  17  18
ATOM     18  C   UNL     1       5.581  -0.758   0.769  0.00  0.00    -0.018 A 
ATOM     19  C   UNL     1       4.481  -1.425   1.277  0.00  0.00    +0.009 A 
ATOM     20  C   UNL     1       4.636  -2.325   2.314  0.00  0.00    +0.038 A 
ATOM     21  C   UNL     1       5.892  -2.550   2.853  0.00  0.00    +0.123 A 
ATOM     22  C   UNL     1       6.992  -1.877   2.348  0.00  0.00    +0.038 A 
ATOM     23  C   UNL     1       6.835  -0.982   1.307  0.00  0.00    +0.009 A 
ATOM     24  F   UNL     1       6.043  -3.424   3.872  0.00  0.00    -0.205 F 
ENDBRANCH  17  18
BRANCH  17  26
ATOM     25  N   UNL     1       7.120  -0.995  -1.681  0.00  0.00    -0.308 N 
ATOM     26  C   UNL     1       5.908  -0.407  -1.644  0.00  0.00    +0.239 C 
ATOM     27  O   UNL     1       5.216  -0.382  -2.640  0.00  0.00    -0.273 OA
ATOM     28  H   UNL     1       7.639  -1.087  -0.867  0.00  0.00    +0.149 HD
BRANCH  25  29
ATOM     29  C   UNL     1       7.654  -1.493  -2.951  0.00  0.00    +0.029 C 
ATOM     30  C   UNL     1       6.800  -2.665  -3.438  0.00  0.00    +0.031 C 
ATOM     31  C   UNL     1       7.624  -0.372  -3.992  0.00  0.00    +0.031 C 
BRANCH  29  33
ATOM     32  C   UNL     1       9.654  -2.483  -4.075  0.00  0.00    +0.006 C 
ATOM     33  C   UNL     1       9.096  -1.963  -2.748  0.00  0.00    +0.022 C 
ENDBRANCH  29  33
ENDBRANCH  25  29
ENDBRANCH  17  26
ENDBRANCH   1  17
BRANCH   1  34
ATOM     34  C   UNL     1       3.515   1.881  -0.091  0.00  0.00    +0.148 C 
BRANCH  34  35
ATOM     35  C   UNL     1       3.936   2.912  -1.108  0.00  0.00    +0.012 A 
ATOM     36  C   UNL     1       4.790   3.935  -0.743  0.00  0.00    +0.009 A 
ATOM     37  C   UNL     1       5.179   4.878  -1.676  0.00  0.00    +0.001 A 
ATOM     38  C   UNL     1       4.708   4.806  -2.974  0.00  0.00    +0.004 A 
ATOM     39  C   UNL     1       3.850   3.788  -3.342  0.00  0.00    +0.046 A 
ATOM     40  C   UNL     1       3.461   2.837  -2.409  0.00  0.00    +0.125 A 
BRANCH  40  41
ATOM     41  O   UNL     1       2.617   1.835  -2.769  0.00  0.00    -0.495 OA
ATOM     42  C   UNL     1       2.260   1.753  -4.150  0.00  0.00    +0.277 C 
ENDBRANCH  40  41
ENDBRANCH  34  35
ENDBRANCH   1  34
TORSDOF 11
