REMARK  Name = ZINC04002382
REMARK  4 active torsions:
REMARK  status: ('A' for Active; 'I' for Inactive)
REMARK    1  A    between atoms: C_9  and  C_11
REMARK    2  A    between atoms: C_16  and  C_27
REMARK    3  A    between atoms: C_18  and  N_22
REMARK    4  A    between atoms: C_20  and  O_21
REMARK                            x       y       z     vdW  Elec       q    Type
REMARK                         _______ _______ _______ _____ _____    ______ ____
ROOT
ATOM      1  C   UNL     1      -3.034   4.593   0.050  0.00  0.00    +0.025 C 
ATOM      2  C   UNL     1      -1.715   4.830   0.757  0.00  0.00    +0.162 C 
ATOM      3  O   UNL     1      -1.645   4.814   1.963  0.00  0.00    -0.292 OA
ATOM      4  C   UNL     1      -0.489   5.088  -0.090  0.00  0.00    +0.090 C 
ATOM      5  C   UNL     1      -0.322   3.941  -1.090  0.00  0.00    +0.058 C 
ATOM      6  C   UNL     1      -1.471   2.840  -1.058  0.00  0.00    +0.182 C 
ATOM      7  C   UNL     1      -2.777   3.603  -1.068  0.00  0.00    +0.124 C 
ENDROOT
BRANCH   1  16
ATOM      8  C   UNL     1      -5.394   7.026  -3.592  0.00  0.00    +0.000 A 
ATOM      9  C   UNL     1      -4.217   7.280  -2.912  0.00  0.00    +0.000 A 
ATOM     10  C   UNL     1      -3.947   6.614  -1.734  0.00  0.00    +0.002 A 
ATOM     11  C   UNL     1      -4.849   5.689  -1.228  0.00  0.00    -0.054 A 
ATOM     12  C   UNL     1      -6.021   5.435  -1.908  0.00  0.00    -0.047 A 
ATOM     13  C   UNL     1      -6.292   6.106  -3.090  0.00  0.00    +0.004 A 
ATOM     14  C   UNL     1      -7.026   4.432  -1.403  0.00  0.00    +0.016 C 
ATOM     15  C   UNL     1      -6.759   4.122   0.070  0.00  0.00    -0.077 C 
ATOM     16  C   UNL     1      -4.511   4.990   0.063  0.00  0.00    -0.003 C 
ATOM     17  N   UNL     1      -5.333   3.783   0.228  0.00  0.00    +0.387 N 
ATOM     18  H   UNL     1      -5.067   3.091  -0.482  0.00  0.00    -0.085 HD
ATOM     19  H   UNL     1      -5.177   3.391   1.164  0.00  0.00    -0.085 HD
ENDBRANCH   1  16
BRANCH   5  20
ATOM     20  C   UNL     1       0.874   4.209  -1.966  0.00  0.00    -0.041 A 
ATOM     21  C   UNL     1       0.911   5.342  -2.758  0.00  0.00    +0.005 A 
ATOM     22  C   UNL     1       2.005   5.585  -3.566  0.00  0.00    +0.020 A 
ATOM     23  C   UNL     1       3.064   4.696  -3.583  0.00  0.00    +0.041 A 
ATOM     24  C   UNL     1       3.027   3.563  -2.789  0.00  0.00    +0.020 A 
ATOM     25  C   UNL     1       1.933   3.320  -1.982  0.00  0.00    +0.005 A 
ATOM     26 CL   UNL     1       4.440   5.002  -4.597  0.00  0.00    -0.084 Cl
ENDBRANCH   5  20
BRANCH   6  27
ATOM     27  N   UNL     1      -0.356   3.770  -1.246  0.00  0.00    -0.241 N 
ATOM     28  C   UNL     1       0.605   3.697  -2.183  0.00  0.00    +0.219 A 
ATOM     29  N   UNL     1       1.412   4.714  -2.018  0.00  0.00    -0.223 NA
ATOM     30  C   UNL     1       1.004   5.451  -0.985  0.00  0.00    +0.245 A 
ATOM     31  N   UNL     1      -0.074   4.913  -0.479  0.00  0.00    -0.158 NA
ENDBRANCH   6  27
BRANCH   7  33
ATOM     32  H   UNL     1      -4.384   4.017  -1.782  0.00  0.00    +0.292 HD
ATOM     33  O   UNL     1      -3.591   3.429  -1.943  0.00  0.00    -0.509 OA
ENDBRANCH   7  33
TORSDOF 4
