REMARK  Name = ZINC02661613
REMARK  9 active torsions:
REMARK  status: ('A' for Active; 'I' for Inactive)
REMARK    1  A    between atoms: C_1  and  C_2
REMARK    2  A    between atoms: C_3  and  C_29
REMARK    3  A    between atoms: C_7  and  N_20
REMARK    4  A    between atoms: C_9  and  C_11
REMARK    5  A    between atoms: C_11  and  N_51
REMARK    6  A    between atoms: C_12  and  C_13
REMARK    7  A    between atoms: C_12  and  N_51
REMARK    8  A    between atoms: N_20  and  C_21
REMARK    9  A    between atoms: C_21  and  C_22
REMARK                            x       y       z     vdW  Elec       q    Type
REMARK                         _______ _______ _______ _____ _____    ______ ____
ROOT
ATOM      1  C   UNL     1       0.939  -2.261  -4.233  0.00  0.00    +0.045 C 
ATOM      2  C   UNL     1       0.983  -3.767  -4.241  0.00  0.00    -0.028 A 
ATOM      3  C   UNL     1       1.240  -4.433  -5.377  0.00  0.00    -0.008 A 
ATOM      4  S   UNL     1       1.183  -6.144  -4.880  0.00  0.00    -0.074 S 
ATOM      5  C   UNL     1       0.817  -5.920  -3.160  0.00  0.00    +0.114 A 
ATOM      6  C   UNL     1       0.749  -4.516  -3.019  0.00  0.00    +0.051 A 
ATOM      7  C   UNL     1       0.461  -4.048  -1.707  0.00  0.00    +0.131 A 
ATOM      8  N   UNL     1       0.287  -4.927  -0.733  0.00  0.00    -0.219 NA
ATOM      9  C   UNL     1       0.361  -6.230  -0.939  0.00  0.00    +0.116 A 
ATOM     10  N   UNL     1       0.625  -6.724  -2.133  0.00  0.00    -0.227 NA
ATOM     11  C   UNL     1       1.510  -3.868  -6.748  0.00  0.00    +0.052 C 
ENDROOT
BRANCH   7  12
ATOM     12  N   UNL     1       0.369  -2.692  -1.452  0.00  0.00    -0.324 N 
ATOM     13  H   UNL     1       0.590  -2.052  -2.146  0.00  0.00    +0.148 HD
BRANCH  12  14
ATOM     14  C   UNL     1      -0.061  -2.223  -0.132  0.00  0.00    +0.138 C 
BRANCH  14  15
ATOM     15  C   UNL     1      -0.076  -0.716  -0.115  0.00  0.00    -0.030 A 
ATOM     16  C   UNL     1      -1.222  -0.033  -0.476  0.00  0.00    +0.006 A 
ATOM     17  C   UNL     1      -1.237   1.349  -0.460  0.00  0.00    +0.020 A 
ATOM     18  C   UNL     1      -0.104   2.049  -0.084  0.00  0.00    +0.041 A 
ATOM     19  C   UNL     1       1.043   1.364   0.277  0.00  0.00    +0.020 A 
ATOM     20  C   UNL     1       1.056  -0.018   0.262  0.00  0.00    +0.006 A 
ATOM     21 CL   UNL     1      -0.121   3.785  -0.064  0.00  0.00    -0.084 Cl
ENDBRANCH  14  15
ENDBRANCH  12  14
ENDBRANCH   7  12
BRANCH   9  22
ATOM     22  C   UNL     1       0.144  -7.172   0.217  0.00  0.00    -0.005 C 
BRANCH  22  23
ATOM     23  N   UNL     1       1.438  -7.437   0.874  0.00  0.00    +0.386 N 
ATOM     24  H   UNL     1       1.833  -6.552   1.214  0.00  0.00    -0.085 HD
ATOM     25  H   UNL     1       2.082  -7.859   0.195  0.00  0.00    -0.085 HD
BRANCH  23  26
ATOM     26  C   UNL     1       1.256  -8.358   2.011  0.00  0.00    -0.046 C 
BRANCH  26  27
ATOM     27  C   UNL     1       2.592  -8.610   2.662  0.00  0.00    -0.064 A 
ATOM     28  C   UNL     1       3.381  -9.662   2.236  0.00  0.00    +0.003 A 
ATOM     29  C   UNL     1       4.609  -9.890   2.828  0.00  0.00    +0.020 A 
ATOM     30  C   UNL     1       5.044  -9.071   3.854  0.00  0.00    +0.041 A 
ATOM     31  C   UNL     1       4.252  -8.021   4.284  0.00  0.00    +0.020 A 
ATOM     32  C   UNL     1       3.027  -7.791   3.688  0.00  0.00    +0.003 A 
ATOM     33 CL   UNL     1       6.583  -9.361   4.603  0.00  0.00    -0.084 Cl
ENDBRANCH  26  27
ENDBRANCH  23  26
ENDBRANCH  22  23
ENDBRANCH   9  22
TORSDOF 7
