REMARK  Name = ZINC59317331
REMARK  5 active torsions:
REMARK  status: ('A' for Active; 'I' for Inactive)
REMARK    1  A    between atoms: C_1  and  C_2
REMARK    2  A    between atoms: C_9  and  N_14
REMARK    3  A    between atoms: C_10  and  C_11
REMARK    4  A    between atoms: C_15  and  C_17
REMARK    5  A    between atoms: N_22  and  C_24
REMARK                            x       y       z     vdW  Elec       q    Type
REMARK                         _______ _______ _______ _____ _____    ______ ____
ROOT
ATOM      1  N   UNL     1       0.687  -5.841   2.463  0.00  0.00    -0.279 N 
ATOM      2  C   UNL     1       1.671  -6.097   3.348  0.00  0.00    +0.223 C 
ATOM      3  O   UNL     1       2.374  -5.194   3.750  0.00  0.00    -0.275 OA
ATOM      4  H   UNL     1       0.125  -6.563   2.142  0.00  0.00    +0.155 HD
ENDROOT
BRANCH   1  12
ATOM      5  C   UNL     1      -0.054   1.557   0.126  0.00  0.00    +0.008 C 
ATOM      6  C   UNL     1      -0.029   0.027   0.100  0.00  0.00    -0.009 C 
ATOM      7  C   UNL     1      -1.462  -0.510   0.113  0.00  0.00    +0.008 C 
ATOM      8  C   UNL     1      -1.457  -2.016  -0.161  0.00  0.00    +0.037 C 
ATOM      9  C   UNL     1      -0.485  -2.682   0.802  0.00  0.00    -0.023 A 
ATOM     10  C   UNL     1       0.462  -1.969   1.448  0.00  0.00    -0.004 A 
ATOM     11  S   UNL     1       1.326  -3.159   2.432  0.00  0.00    -0.077 S 
ATOM     12  C   UNL     1       0.479  -4.547   2.012  0.00  0.00    +0.084 A 
ATOM     13  C   UNL     1      -0.475  -4.101   1.112  0.00  0.00    +0.068 A 
ATOM     14  C   UNL     1       0.712  -0.496   1.339  0.00  0.00    +0.046 C 
BRANCH  13  15
ATOM     15  C   UNL     1      -1.435  -5.024   0.497  0.00  0.00    +0.244 C 
ATOM     16  O   UNL     1      -1.163  -5.576  -0.552  0.00  0.00    -0.270 OA
ATOM     17  N   UNL     1      -2.620  -5.260   1.095  0.00  0.00    -0.325 N 
ATOM     18  H   UNL     1      -2.837  -4.820   1.932  0.00  0.00    +0.145 HD
ATOM     19  H   UNL     1      -3.255  -5.870   0.689  0.00  0.00    +0.145 HD
ENDBRANCH  13  15
ENDBRANCH   1  12
BRANCH   2  20
ATOM     20  C   UNL     1       1.897  -7.504   3.838  0.00  0.00    +0.102 C 
ATOM     21  C   UNL     1       2.340  -8.429   2.681  0.00  0.00    +0.110 C 
ATOM     22  C   UNL     1       3.851  -8.394   2.735  0.00  0.00    +0.221 C 
ATOM     23  O   UNL     1       4.587  -8.754   1.841  0.00  0.00    -0.275 OA
ATOM     24  N   UNL     1       4.260  -7.905   3.919  0.00  0.00    -0.271 N 
ATOM     25  C   UNL     1       3.119  -7.572   4.781  0.00  0.00    +0.127 C 
BRANCH  24  26
ATOM     26  C   UNL     1       5.601  -7.736   4.283  0.00  0.00    +0.036 A 
ATOM     27  C   UNL     1       6.611  -8.185   3.443  0.00  0.00    +0.025 A 
ATOM     28  C   UNL     1       7.934  -8.017   3.805  0.00  0.00    +0.022 A 
ATOM     29  C   UNL     1       8.252  -7.402   5.003  0.00  0.00    +0.041 A 
ATOM     30  C   UNL     1       7.246  -6.953   5.841  0.00  0.00    +0.022 A 
ATOM     31  C   UNL     1       5.923  -7.114   5.482  0.00  0.00    +0.025 A 
ATOM     32 CL   UNL     1       9.915  -7.192   5.455  0.00  0.00    -0.084 Cl
ENDBRANCH  24  26
ENDBRANCH   2  20
TORSDOF 4
