REMARK  Name = ZINC13239794
REMARK  9 active torsions:
REMARK  status: ('A' for Active; 'I' for Inactive)
REMARK    1  A    between atoms: C_4  and  C_7
REMARK    2  A    between atoms: C_7  and  C_8
REMARK    3  A    between atoms: C_10  and  N_18
REMARK    4  A    between atoms: C_13  and  O_14
REMARK    5  A    between atoms: O_14  and  C_15
REMARK    6  A    between atoms: N_18  and  S_19
REMARK    7  A    between atoms: S_19  and  C_22
REMARK    8  A    between atoms: C_25  and  C_28
REMARK    9  A    between atoms: C_29  and  C_30
REMARK                            x       y       z     vdW  Elec       q    Type
REMARK                         _______ _______ _______ _____ _____    ______ ____
ROOT
ATOM      1  C   UNL     1       2.138   6.424  -4.293  0.00  0.00    +0.001 A 
ATOM      2  C   UNL     1       2.912   5.701  -3.407  0.00  0.00    +0.032 A 
ATOM      3  C   UNL     1       2.305   4.927  -2.427  0.00  0.00    +0.049 A 
ATOM      4  C   UNL     1       0.920   4.876  -2.342  0.00  0.00    +0.028 A 
ATOM      5  C   UNL     1       0.147   5.604  -3.225  0.00  0.00    +0.048 A 
ATOM      6  C   UNL     1       0.755   6.377  -4.205  0.00  0.00    +0.130 A 
ENDROOT
BRANCH   3   7
ATOM      7  N   UNL     1       3.089   4.194  -1.528  0.00  0.00    -0.216 N 
ATOM      8  H   UNL     1       3.159   3.231  -1.620  0.00  0.00    +0.174 HD
BRANCH   7   9
ATOM      9  S   UNL     1       3.895   4.971  -0.308  0.00  0.00    +0.072 S 
ATOM     10  O   UNL     1       4.609   6.042  -0.911  0.00  0.00    -0.150 OA
ATOM     11  O   UNL     1       4.539   3.963   0.459  0.00  0.00    -0.150 OA
BRANCH   9  12
ATOM     12  C   UNL     1       2.680   5.702   0.737  0.00  0.00    +0.109 A 
ATOM     13  C   UNL     1       2.091   4.949   1.738  0.00  0.00    +0.029 A 
ATOM     14  C   UNL     1       1.138   5.513   2.560  0.00  0.00    +0.010 A 
ATOM     15  C   UNL     1       0.764   6.848   2.377  0.00  0.00    -0.025 A 
ATOM     16  C   UNL     1       1.368   7.604   1.367  0.00  0.00    +0.010 A 
ATOM     17  C   UNL     1       2.319   7.025   0.553  0.00  0.00    +0.029 A 
BRANCH  15  18
ATOM     18  C   UNL     1      -0.256   7.456   3.246  0.00  0.00    +0.015 C 
ATOM     19  C   UNL     1      -0.615   8.745   3.067  0.00  0.00    +0.096 C 
BRANCH  19  20
ATOM     20  C   UNL     1      -1.628   9.349   3.930  0.00  0.00    +0.380 C 
ATOM     21  O   UNL     1      -2.148   8.690   4.811  0.00  0.00    -0.241 OA
ATOM     22  O   UNL     1      -1.986  10.637   3.751  0.00  0.00    -0.241 OA
ENDBRANCH  19  20
ENDBRANCH  15  18
ENDBRANCH   9  12
ENDBRANCH   7   9
ENDBRANCH   3   7
BRANCH   1  23
ATOM     23  C   UNL     1       2.796   7.265  -5.356  0.00  0.00    +0.074 C 
BRANCH  23  27
ATOM     24  C   UNL     1       3.155  11.290  -3.970  0.00  0.00    +0.000 A 
ATOM     25  C   UNL     1       4.171  10.383  -3.732  0.00  0.00    +0.000 A 
ATOM     26  C   UNL     1       4.055   9.081  -4.180  0.00  0.00    +0.004 A 
ATOM     27  C   UNL     1       2.923   8.685  -4.867  0.00  0.00    -0.043 A 
ATOM     28  C   UNL     1       1.909   9.593  -5.111  0.00  0.00    +0.004 A 
ATOM     29  C   UNL     1       2.024  10.894  -4.658  0.00  0.00    +0.000 A 
ENDBRANCH  23  27
ENDBRANCH   1  23
BRANCH   6  30
ATOM     30  O   UNL     1      -0.007   7.089  -5.078  0.00  0.00    -0.434 OA
BRANCH  30  31
ATOM     31  C   UNL     1      -1.425   6.994  -4.929  0.00  0.00    +0.541 C 
ATOM     32  F   UNL     1      -1.822   5.662  -5.084  0.00  0.00    -0.166 F 
ATOM     33  F   UNL     1      -1.792   7.445  -3.656  0.00  0.00    -0.166 F 
ENDBRANCH  30  31
ENDBRANCH   6  30
TORSDOF 9
