REMARK  Name = ZINC39422056
REMARK  11 active torsions:
REMARK  status: ('A' for Active; 'I' for Inactive)
REMARK    1  A    between atoms: C_1  and  C_2
REMARK    2  A    between atoms: C_2  and  C_32
REMARK    3  A    between atoms: C_4  and  N_10
REMARK    4  A    between atoms: C_6  and  C_8
REMARK    5  A    between atoms: C_6  and  C_9
REMARK    6  A    between atoms: N_10  and  C_11
REMARK    7  A    between atoms: N_10  and  C_18
REMARK    8  A    between atoms: C_11  and  C_12
REMARK    9  A    between atoms: C_18  and  N_20
REMARK   10  A    between atoms: N_20  and  C_21
REMARK   11  A    between atoms: C_26  and  C_27
REMARK                            x       y       z     vdW  Elec       q    Type
REMARK                         _______ _______ _______ _____ _____    ______ ____
ROOT
ATOM      1  N   UNL     1      -3.482  -0.927   1.104  0.00  0.00    -0.304 N 
ENDROOT
BRANCH   1   5
ATOM      2  C   UNL     1       0.436  -0.646   3.094  0.00  0.00    -0.010 C 
ATOM      3  C   UNL     1      -0.566   0.512   3.060  0.00  0.00    -0.072 C 
ATOM      4  C   UNL     1      -1.969  -0.028   2.799  0.00  0.00    +0.009 C 
ATOM      5  C   UNL     1      -2.116  -0.441   1.335  0.00  0.00    +0.073 C 
ATOM      6  C   UNL     1      -1.866   0.791   0.465  0.00  0.00    +0.009 C 
ATOM      7  C   UNL     1      -0.464   1.338   0.708  0.00  0.00    -0.072 C 
ATOM      8  N   UNL     1      -0.159   1.536   2.114  0.00  0.00    +0.386 N 
ATOM      9  C   UNL     1      -0.377   2.715   0.010  0.00  0.00    -0.010 C 
ATOM     10  C   UNL     1       0.571   0.428   0.037  0.00  0.00    -0.010 C 
ATOM     11  C   UNL     1      -0.572   1.148   4.469  0.00  0.00    -0.010 C 
ATOM     12  H   UNL     1      -0.572   2.426   2.409  0.00  0.00    -0.084 HD
ATOM     13  H   UNL     1       0.852   1.675   2.207  0.00  0.00    -0.084 HD
ENDBRANCH   1   5
BRANCH   1  14
ATOM     14  C   UNL     1      -3.683  -2.168   0.618  0.00  0.00    +0.138 C 
ATOM     15  S   UNL     1      -5.269  -2.698   0.251  0.00  0.00    -0.018 S 
BRANCH  14  16
ATOM     16  N   UNL     1      -2.635  -2.992   0.420  0.00  0.00    -0.296 N 
ATOM     17  H   UNL     1      -2.495  -3.750   1.009  0.00  0.00    +0.154 HD
BRANCH  16  18
ATOM     18  C   UNL     1      -1.747  -2.754  -0.635  0.00  0.00    +0.044 A 
ATOM     19  C   UNL     1      -2.021  -1.758  -1.564  0.00  0.00    +0.025 A 
ATOM     20  C   UNL     1      -1.143  -1.524  -2.604  0.00  0.00    +0.022 A 
ATOM     21  C   UNL     1       0.009  -2.283  -2.722  0.00  0.00    +0.042 A 
ATOM     22  C   UNL     1       0.284  -3.276  -1.799  0.00  0.00    +0.034 A 
ATOM     23  C   UNL     1      -0.588  -3.510  -0.753  0.00  0.00    +0.077 A 
ATOM     24 CL   UNL     1       1.110  -1.988  -4.031  0.00  0.00    -0.084 Cl
BRANCH  23  25
ATOM     25  C   UNL     1      -0.285  -4.587   0.256  0.00  0.00    +0.419 C 
ATOM     26  F   UNL     1       0.927  -5.205  -0.072  0.00  0.00    -0.166 F 
ATOM     27  F   UNL     1      -0.189  -4.020   1.530  0.00  0.00    -0.166 F 
ATOM     28  F   UNL     1      -1.310  -5.539   0.244  0.00  0.00    -0.166 F 
ENDBRANCH  23  25
ENDBRANCH  16  18
ENDBRANCH  14  16
ENDBRANCH   1  14
BRANCH   1  29
ATOM     29  C   UNL     1      -4.628  -0.064   1.403  0.00  0.00    +0.162 C 
BRANCH  29  30
ATOM     30  C   UNL     1      -4.979   0.745   0.181  0.00  0.00    +0.058 A 
ATOM     31  C   UNL     1      -5.966   0.295  -0.675  0.00  0.00    +0.025 A 
ATOM     32  C   UNL     1      -6.282   1.046  -1.797  0.00  0.00    +0.003 A 
ATOM     33  C   UNL     1      -5.590   2.228  -2.016  0.00  0.00    +0.020 A 
ATOM     34  C   UNL     1      -4.615   2.614  -1.116  0.00  0.00    +0.111 A 
ATOM     35  N   UNL     1      -4.345   1.877  -0.056  0.00  0.00    -0.258 NA
ENDBRANCH  29  30
ENDBRANCH   1  29
TORSDOF 7
