REMARK  Name = ZINC09846918
REMARK  12 active torsions:
REMARK  status: ('A' for Active; 'I' for Inactive)
REMARK    1  A    between atoms: C_1  and  C_2
REMARK    2  A    between atoms: C_2  and  O_3
REMARK    3  A    between atoms: O_3  and  C_4
REMARK    4  A    between atoms: C_4  and  C_6
REMARK    5  A    between atoms: C_7  and  N_36
REMARK    6  A    between atoms: C_14  and  O_27
REMARK    7  A    between atoms: C_21  and  C_25
REMARK    8  A    between atoms: C_21  and  C_26
REMARK    9  A    between atoms: C_23  and  C_24
REMARK   10  A    between atoms: O_27  and  C_28
REMARK   11  A    between atoms: C_32  and  C_34
REMARK   12  A    between atoms: C_32  and  C_35
REMARK                            x       y       z     vdW  Elec       q    Type
REMARK                         _______ _______ _______ _____ _____    ______ ____
ROOT
ATOM      1  C   UNL     1       2.892   0.593   1.269  0.00  0.00    +0.117 C 
ATOM      2  C   UNL     1       3.257  -0.713   1.166  0.00  0.00    +0.195 C 
ATOM      3  O   UNL     1       3.103  -1.391   0.019  0.00  0.00    -0.446 OA
ATOM      4  C   UNL     1       2.992  -0.730  -1.148  0.00  0.00    +0.116 C 
ATOM      5  C   UNL     1       2.617   0.562  -1.189  0.00  0.00    +0.057 C 
ATOM      6  C   UNL     1       2.311   1.308   0.085  0.00  0.00    +0.142 C 
ATOM      7  C   UNL     1       0.839   1.512   0.244  0.00  0.00    +0.002 A 
ATOM      8  C   UNL     1      -0.247   0.674   0.381  0.00  0.00    +0.052 A 
ATOM      9  C   UNL     1      -1.507   1.269   0.508  0.00  0.00    +0.121 A 
ATOM     10  C   UNL     1      -1.686   2.647   0.511  0.00  0.00    +0.055 A 
ATOM     11  C   UNL     1      -0.598   3.493   0.373  0.00  0.00    +0.003 A 
ATOM     12  C   UNL     1       0.666   2.886   0.241  0.00  0.00    +0.050 A 
ATOM     13  N   UNL     1       1.862   3.580   0.096  0.00  0.00    -0.260 N 
ATOM     14  C   UNL     1       2.887   2.713  -0.002  0.00  0.00    +0.241 C 
ATOM     15  O   UNL     1       4.058   3.000  -0.135  0.00  0.00    -0.274 OA
ATOM     16  C   UNL     1       1.895   5.047   0.066  0.00  0.00    +0.055 C 
ATOM     17  C   UNL     1       0.523   5.633   0.210  0.00  0.00    +0.002 C 
ATOM     18  C   UNL     1      -0.609   4.962   0.349  0.00  0.00    -0.043 C 
ATOM     19  C   UNL     1      -1.912   5.707   0.483  0.00  0.00    +0.044 C 
ATOM     20  C   UNL     1       2.498   5.506  -1.264  0.00  0.00    +0.036 C 
ATOM     21  C   UNL     1       2.776   5.549   1.212  0.00  0.00    +0.036 C 
ATOM     22  C   UNL     1       2.502   1.254  -2.410  0.00  0.00    +0.165 C 
ATOM     23  O   UNL     1       2.138   2.413  -2.408  0.00  0.00    -0.292 OA
ATOM     24  C   UNL     1       2.821   0.582  -3.718  0.00  0.00    +0.086 C 
ATOM     25  C   UNL     1       3.858  -0.519  -3.469  0.00  0.00    -0.021 C 
ATOM     26  C   UNL     1       3.297  -1.483  -2.422  0.00  0.00    +0.081 C 
ATOM     27  C   UNL     1       5.156   0.104  -2.951  0.00  0.00    +0.012 C 
ATOM     28  C   UNL     1       4.129  -1.275  -4.771  0.00  0.00    +0.012 C 
ENDROOT
BRANCH   2  29
ATOM     29  N   UNL     1       3.793  -1.348   2.254  0.00  0.00    -0.329 N 
ATOM     30  H   UNL     1       3.839  -0.890   3.108  0.00  0.00    +0.145 HD
ATOM     31  H   UNL     1       4.127  -2.255   2.170  0.00  0.00    +0.145 HD
ENDBRANCH   2  29
BRANCH   1  32
ATOM     32  C   UNL     1       3.059   1.273   2.486  0.00  0.00    +0.342 C 
ATOM     33  O   UNL     1       2.104   1.451   3.220  0.00  0.00    -0.245 OA
BRANCH  32  34
ATOM     34  O   UNL     1       4.279   1.730   2.841  0.00  0.00    -0.462 OA
BRANCH  34  36
ATOM     35  C   UNL     1       5.783   3.035   4.211  0.00  0.00    +0.048 C 
ATOM     36  C   UNL     1       4.357   2.509   4.037  0.00  0.00    +0.229 C 
ENDBRANCH  34  36
ENDBRANCH  32  34
ENDBRANCH   1  32
BRANCH   9  37
ATOM     37  O   UNL     1      -2.598   0.468   0.639  0.00  0.00    -0.495 OA
ATOM     38  C   UNL     1      -3.866   1.115   0.767  0.00  0.00    +0.277 C 
ENDBRANCH   9  37
TORSDOF 5
