REMARK  Name = ZINC13567356
REMARK  11 active torsions:
REMARK  status: ('A' for Active; 'I' for Inactive)
REMARK    1  A    between atoms: C_1  and  C_2
REMARK    2  A    between atoms: C_7  and  C_8
REMARK    3  A    between atoms: C_8  and  S_9
REMARK    4  A    between atoms: S_9  and  C_10
REMARK    5  A    between atoms: C_17  and  C_23
REMARK    6  A    between atoms: C_26  and  O_33
REMARK    7  A    between atoms: C_27  and  O_31
REMARK    8  A    between atoms: C_28  and  O_29
REMARK    9  A    between atoms: O_29  and  C_30
REMARK   10  A    between atoms: O_31  and  C_32
REMARK   11  A    between atoms: O_33  and  C_34
REMARK                            x       y       z     vdW  Elec       q    Type
REMARK                         _______ _______ _______ _____ _____    ______ ____
ROOT
ATOM      1  C   UNL     1      -1.770   1.058   4.773  0.00  0.00    +0.194 A 
ATOM      2  N   UNL     1      -2.818   1.460   5.479  0.00  0.00    -0.206 NA
ATOM      3  C   UNL     1      -2.651   2.158   6.597  0.00  0.00    +0.137 A 
ATOM      4  C   UNL     1      -1.362   2.462   7.018  0.00  0.00    +0.067 A 
ATOM      5  C   UNL     1      -0.287   2.025   6.255  0.00  0.00    +0.280 A 
ATOM      6  O   UNL     1       0.984   2.302   6.633  0.00  0.00    -0.265 OA
ATOM      7  N   UNL     1      -0.528   1.326   5.149  0.00  0.00    -0.183 NA
ATOM      8  C   UNL     1      -1.145   3.250   8.280  0.00  0.00    +0.070 C 
ATOM      9  C   UNL     1      -2.241   2.906   9.291  0.00  0.00    +0.109 C 
ATOM     10  C   UNL     1      -3.589   2.961   8.624  0.00  0.00    +0.219 C 
ATOM     11  O   UNL     1      -4.551   3.352   9.251  0.00  0.00    -0.275 OA
ATOM     12  N   UNL     1      -3.742   2.583   7.342  0.00  0.00    -0.270 N 
ATOM     13  H   UNL     1      -4.622   2.608   6.934  0.00  0.00    +0.156 HD
ENDROOT
BRANCH   8  14
ATOM     14  C   UNL     1      -1.194   4.723   7.967  0.00  0.00    +0.006 A 
ATOM     15  C   UNL     1      -2.277   5.248   7.287  0.00  0.00    +0.011 A 
ATOM     16  C   UNL     1      -2.327   6.599   6.997  0.00  0.00    +0.050 A 
ATOM     17  C   UNL     1      -1.290   7.433   7.389  0.00  0.00    +0.165 A 
ATOM     18  C   UNL     1      -0.201   6.909   8.074  0.00  0.00    +0.204 A 
ATOM     19  C   UNL     1      -0.157   5.551   8.367  0.00  0.00    +0.169 A 
BRANCH  19  20
ATOM     20  O   UNL     1       0.905   5.034   9.042  0.00  0.00    -0.491 OA
ATOM     21  C   UNL     1       2.068   4.715   8.275  0.00  0.00    +0.277 C 
ENDBRANCH  19  20
BRANCH  18  22
ATOM     22  O   UNL     1       0.818   7.724   8.460  0.00  0.00    -0.488 OA
ATOM     23  C   UNL     1       0.712   8.328   9.751  0.00  0.00    +0.277 C 
ENDBRANCH  18  22
BRANCH  17  24
ATOM     24  O   UNL     1      -1.340   8.761   7.103  0.00  0.00    -0.491 OA
ATOM     25  C   UNL     1      -2.490   9.230   6.396  0.00  0.00    +0.277 C 
ENDBRANCH  17  24
ENDBRANCH   8  14
BRANCH   1  26
ATOM     26  S   UNL     1      -2.036   0.134   3.296  0.00  0.00    -0.081 S 
BRANCH  26  27
ATOM     27  C   UNL     1      -0.363  -0.194   2.676  0.00  0.00    +0.112 C 
BRANCH  27  34
ATOM     28  C   UNL     1      -0.516   1.170   0.134  0.00  0.00    +0.044 C 
ATOM     29  C   UNL     1      -0.521  -0.336   0.183  0.00  0.00    -0.046 A 
ATOM     30  C   UNL     1      -0.593  -1.065  -0.990  0.00  0.00    +0.003 A 
ATOM     31  C   UNL     1      -0.597  -2.447  -0.946  0.00  0.00    +0.000 A 
ATOM     32  C   UNL     1      -0.529  -3.099   0.271  0.00  0.00    +0.000 A 
ATOM     33  C   UNL     1      -0.457  -2.371   1.443  0.00  0.00    +0.005 A 
ATOM     34  C   UNL     1      -0.448  -0.989   1.399  0.00  0.00    -0.034 A 
ENDBRANCH  27  34
ENDBRANCH  26  27
ENDBRANCH   1  26
TORSDOF 7
