REMARK  Name = ZINC00714902
REMARK  4 active torsions:
REMARK  status: ('A' for Active; 'I' for Inactive)
REMARK    1  A    between atoms: C_6  and  C_7
REMARK    2  A    between atoms: C_10  and  C_30
REMARK    3  A    between atoms: C_15  and  C_17
REMARK    4  A    between atoms: N_19  and  C_20
REMARK                            x       y       z     vdW  Elec       q    Type
REMARK                         _______ _______ _______ _____ _____    ______ ____
ROOT
ATOM      1  C   UNL     1      -1.312  -0.760   0.027  0.00  0.00    +0.104 C 
ATOM      2  C   UNL     1      -1.641  -1.232  -1.394  0.00  0.00    +0.063 C 
ATOM      3  C   UNL     1      -2.989  -1.961  -1.403  0.00  0.00    +0.215 C 
ATOM      4  N   UNL     1      -2.991  -2.967  -0.338  0.00  0.00    -0.238 N 
ATOM      5  C   UNL     1      -2.135  -2.946   0.727  0.00  0.00    +0.119 A 
ATOM      6  C   UNL     1      -2.407  -4.011   1.506  0.00  0.00    +0.078 A 
ATOM      7  C   UNL     1      -3.473  -4.719   0.905  0.00  0.00    +0.149 A 
ATOM      8  N   UNL     1      -3.816  -4.083  -0.202  0.00  0.00    -0.164 NA
ATOM      9  N   UNL     1      -1.175  -1.943   0.899  0.00  0.00    -0.322 N 
ATOM     10  H   UNL     1      -0.459  -2.022   1.549  0.00  0.00    +0.148 HD
ENDROOT
BRANCH   1  16
ATOM     11  C   UNL     1      -0.042   1.396   0.032  0.00  0.00    +0.007 A 
ATOM     12  C   UNL     1       1.143   2.108   0.024  0.00  0.00    +0.022 A 
ATOM     13  C   UNL     1       2.352   1.437  -0.001  0.00  0.00    +0.059 A 
ATOM     14  C   UNL     1       2.375   0.053  -0.016  0.00  0.00    +0.060 A 
ATOM     15  C   UNL     1       1.188  -0.658  -0.007  0.00  0.00    +0.027 A 
ATOM     16  C   UNL     1      -0.019   0.015   0.017  0.00  0.00    -0.026 A 
ATOM     17 CL   UNL     1       3.892  -0.791  -0.047  0.00  0.00    -0.082 Cl
ATOM     18 CL   UNL     1       3.841   2.330  -0.012  0.00  0.00    -0.082 Cl
ENDBRANCH   1  16
BRANCH   7  19
ATOM     19  C   UNL     1      -4.094  -5.955   1.423  0.00  0.00    +0.268 C 
ATOM     20  O   UNL     1      -3.690  -6.451   2.456  0.00  0.00    -0.268 OA
ATOM     21  N   UNL     1      -5.108  -6.532   0.749  0.00  0.00    -0.280 N 
ATOM     22  H   UNL     1      -5.475  -6.101  -0.039  0.00  0.00    +0.155 HD
BRANCH  21  23
ATOM     23  C   UNL     1      -5.633  -7.755   1.187  0.00  0.00    +0.037 A 
ATOM     24  C   UNL     1      -6.075  -8.691   0.262  0.00  0.00    +0.027 A 
ATOM     25  C   UNL     1      -6.593  -9.898   0.692  0.00  0.00    +0.051 A 
ATOM     26  C   UNL     1      -6.672 -10.177   2.047  0.00  0.00    +0.166 A 
ATOM     27  C   UNL     1      -6.229  -9.239   2.977  0.00  0.00    +0.168 A 
ATOM     28  C   UNL     1      -5.706  -8.032   2.545  0.00  0.00    +0.072 A 
ATOM     29  O   UNL     1      -6.414  -9.748   4.231  0.00  0.00    -0.453 OA
ATOM     30  C   UNL     1      -7.348 -10.832   4.073  0.00  0.00    +0.466 C 
ATOM     31  O   UNL     1      -7.134 -11.273   2.719  0.00  0.00    -0.453 OA
ENDBRANCH  21  23
ENDBRANCH   7  19
BRANCH   3  32
ATOM     32  C   UNL     1      -3.192  -2.645  -2.757  0.00  0.00    +0.412 C 
ATOM     33  F   UNL     1      -2.163  -3.567  -2.973  0.00  0.00    -0.168 F 
ATOM     34  F   UNL     1      -4.423  -3.310  -2.763  0.00  0.00    -0.168 F 
ATOM     35  F   UNL     1      -3.177  -1.682  -3.772  0.00  0.00    -0.168 F 
ENDBRANCH   3  32
TORSDOF 4
