REMARK  Name = ZINC63581925
REMARK  11 active torsions:
REMARK  status: ('A' for Active; 'I' for Inactive)
REMARK    1  A    between atoms: C_1  and  C_2
REMARK    2  A    between atoms: C_6  and  O_9
REMARK    3  A    between atoms: C_7  and  C_8
REMARK    4  A    between atoms: O_9  and  C_10
REMARK    5  A    between atoms: C_10  and  C_11
REMARK    6  A    between atoms: C_13  and  C_19
REMARK    7  A    between atoms: C_16  and  O_17
REMARK    8  A    between atoms: O_17  and  C_18
REMARK    9  A    between atoms: C_26  and  O_31
REMARK   10  A    between atoms: O_31  and  C_32
REMARK   11  A    between atoms: C_32  and  C_33
REMARK                            x       y       z     vdW  Elec       q    Type
REMARK                         _______ _______ _______ _____ _____    ______ ____
ROOT
ATOM      1  C   UNL     1       0.072  -3.579   7.239  0.00  0.00    +0.111 C 
ATOM      2  C   UNL     1       1.489  -3.453   7.804  0.00  0.00    +0.128 C 
ATOM      3  C   UNL     1       1.361  -2.662   9.101  0.00  0.00    -0.035 C 
ATOM      4  C   UNL     1       2.197  -1.639   9.002  0.00  0.00    +0.003 A 
ATOM      5  C   UNL     1       2.580  -0.584   9.952  0.00  0.00    +0.055 A 
ATOM      6  C   UNL     1       3.476   0.341   9.510  0.00  0.00    +0.122 A 
ATOM      7  C   UNL     1       4.037   0.337   8.225  0.00  0.00    +0.048 A 
ATOM      8  C   UNL     1       3.759  -0.590   7.273  0.00  0.00    +0.029 A 
ATOM      9  C   UNL     1       2.806  -1.647   7.635  0.00  0.00    +0.043 A 
ATOM     10  N   UNL     1       2.374  -2.678   6.936  0.00  0.00    -0.376 N 
ATOM     11  C   UNL     1       0.354  -3.039  10.162  0.00  0.00    +0.048 C 
ATOM     12  C   UNL     1      -0.983  -3.251   9.428  0.00  0.00    +0.086 C 
ATOM     13  N   UNL     1      -0.795  -4.146   8.283  0.00  0.00    -0.307 NA
ATOM     14  H   UNL     1      -1.683  -4.434   7.899  0.00  0.00    +0.123 HD
ATOM     15  H   UNL     1       2.594  -2.888   6.015  0.00  0.00    +0.160 HD
ENDROOT
BRANCH   1  18
ATOM     16  C   UNL     1       0.083  -4.787   3.662  0.00  0.00    +0.032 A 
ATOM     17  C   UNL     1       0.071  -3.954   4.764  0.00  0.00    +0.015 A 
ATOM     18  C   UNL     1       0.084  -4.491   6.038  0.00  0.00    -0.028 A 
ATOM     19  C   UNL     1       0.109  -5.862   6.213  0.00  0.00    +0.009 A 
ATOM     20  C   UNL     1       0.120  -6.699   5.115  0.00  0.00    +0.046 A 
ATOM     21  C   UNL     1       0.102  -6.164   3.835  0.00  0.00    +0.126 A 
BRANCH  21  22
ATOM     22  O   UNL     1       0.107  -6.986   2.753  0.00  0.00    -0.495 OA
ATOM     23  C   UNL     1       0.127  -8.392   3.006  0.00  0.00    +0.277 C 
ENDBRANCH  21  22
BRANCH  16  24
ATOM     24  C   UNL     1       0.069  -4.202   2.274  0.00  0.00    +0.268 C 
BRANCH  24  25
ATOM     25  O   UNL     1       0.050  -2.776   2.358  0.00  0.00    -0.487 OA
BRANCH  25  31
ATOM     26  C   UNL     1      -0.018   1.503   0.010  0.00  0.00    +0.044 C 
ATOM     27  C   UNL     1       0.002  -0.004   0.002  0.00  0.00    -0.044 A 
ATOM     28  C   UNL     1       0.006  -0.688  -1.200  0.00  0.00    +0.004 A 
ATOM     29  C   UNL     1       0.024  -2.071  -1.211  0.00  0.00    +0.004 A 
ATOM     30  C   UNL     1       0.039  -2.772  -0.020  0.00  0.00    +0.046 A 
ATOM     31  C   UNL     1       0.035  -2.088   1.186  0.00  0.00    +0.124 A 
ATOM     32  C   UNL     1       0.023  -0.700   1.195  0.00  0.00    -0.006 A 
ATOM     33  C   UNL     1       0.026   0.046   2.504  0.00  0.00    +0.048 C 
ENDBRANCH  25  31
ENDBRANCH  24  25
ENDBRANCH  16  24
ENDBRANCH   1  18
BRANCH   6  34
ATOM     34  O   UNL     1       3.849   1.328  10.367  0.00  0.00    -0.487 OA
BRANCH  34  35
ATOM     35  C   UNL     1       4.790   2.288   9.881  0.00  0.00    +0.264 C 
BRANCH  35  36
ATOM     36  C   UNL     1       5.081   3.297  10.961  0.00  0.00    -0.010 A 
ATOM     37  C   UNL     1       4.311   4.441  11.064  0.00  0.00    +0.007 A 
ATOM     38  C   UNL     1       4.578   5.367  12.055  0.00  0.00    +0.000 A 
ATOM     39  C   UNL     1       5.615   5.150  12.943  0.00  0.00    +0.000 A 
ATOM     40  C   UNL     1       6.385   4.006  12.840  0.00  0.00    +0.000 A 
ATOM     41  C   UNL     1       6.115   3.078  11.852  0.00  0.00    +0.007 A 
ENDBRANCH  35  36
ENDBRANCH  34  35
ENDBRANCH   6  34
TORSDOF 8
