REMARK  Name = ZINC05149619
REMARK  9 active torsions:
REMARK  status: ('A' for Active; 'I' for Inactive)
REMARK    1  A    between atoms: C_1  and  C_2
REMARK    2  A    between atoms: C_2  and  O_3
REMARK    3  A    between atoms: O_3  and  C_4
REMARK    4  A    between atoms: C_7  and  C_10
REMARK    5  A    between atoms: C_17  and  N_31
REMARK    6  A    between atoms: C_18  and  C_29
REMARK    7  A    between atoms: C_19  and  C_21
REMARK    8  A    between atoms: C_24  and  S_27
REMARK    9  A    between atoms: S_27  and  C_28
REMARK                            x       y       z     vdW  Elec       q    Type
REMARK                         _______ _______ _______ _____ _____    ______ ____
ROOT
ATOM      1  C   UNL     1       1.125  -5.950  -1.811  0.00  0.00    +0.074 A 
ATOM      2  C   UNL     1       2.183  -6.650  -2.286  0.00  0.00    +0.054 A 
ATOM      3  C   UNL     1       1.837  -8.016  -2.288  0.00  0.00    +0.245 A 
ATOM      4  N   UNL     1       0.622  -8.132  -1.834  0.00  0.00    -0.135 NA
ATOM      5  N   UNL     1       0.142  -6.852  -1.517  0.00  0.00    -0.273 N 
ATOM      6  H   UNL     1      -0.734  -6.644  -1.154  0.00  0.00    +0.189 HD
ATOM      7  O   UNL     1       2.702  -8.977  -2.712  0.00  0.00    -0.421 OA
ATOM      8  C   UNL     1       3.992  -8.624  -2.876  0.00  0.00    +0.201 C 
ATOM      9  C   UNL     1       4.439  -7.351  -2.904  0.00  0.00    +0.098 C 
ATOM     10  C   UNL     1       3.528  -6.158  -2.756  0.00  0.00    +0.102 C 
ENDROOT
BRANCH   1  14
ATOM     11  C   UNL     1       0.911  -1.734  -1.311  0.00  0.00    +0.121 A 
ATOM     12  C   UNL     1      -0.135  -2.413  -1.922  0.00  0.00    +0.046 A 
ATOM     13  C   UNL     1      -0.069  -3.781  -2.086  0.00  0.00    +0.013 A 
ATOM     14  C   UNL     1       1.051  -4.482  -1.638  0.00  0.00    +0.000 A 
ATOM     15  C   UNL     1       2.100  -3.796  -1.024  0.00  0.00    +0.013 A 
ATOM     16  C   UNL     1       2.029  -2.429  -0.868  0.00  0.00    +0.046 A 
BRANCH  11  17
ATOM     17  O   UNL     1       0.843  -0.387  -1.151  0.00  0.00    -0.492 OA
BRANCH  17  19
ATOM     18  C   UNL     1      -0.232   1.767  -1.364  0.00  0.00    +0.048 C 
ATOM     19  C   UNL     1      -0.336   0.264  -1.630  0.00  0.00    +0.225 C 
ENDBRANCH  17  19
ENDBRANCH  11  17
ENDBRANCH   1  14
BRANCH  10  20
ATOM     20  C   UNL     1       3.380  -5.463  -4.085  0.00  0.00    -0.034 A 
ATOM     21  C   UNL     1       2.814  -6.133  -5.154  0.00  0.00    +0.005 A 
ATOM     22  C   UNL     1       2.678  -5.499  -6.373  0.00  0.00    +0.015 A 
ATOM     23  C   UNL     1       3.109  -4.187  -6.525  0.00  0.00    +0.008 A 
ATOM     24  C   UNL     1       3.677  -3.517  -5.448  0.00  0.00    +0.015 A 
ATOM     25  C   UNL     1       3.806  -4.155  -4.230  0.00  0.00    +0.005 A 
BRANCH  23  26
ATOM     26  S   UNL     1       2.937  -3.374  -8.079  0.00  0.00    -0.129 S 
ATOM     27  C   UNL     1       3.625  -1.721  -7.788  0.00  0.00    +0.090 C 
ENDBRANCH  23  26
ENDBRANCH  10  20
BRANCH   8  28
ATOM     28  N   UNL     1       4.916  -9.629  -3.025  0.00  0.00    -0.328 N 
ATOM     29  H   UNL     1       4.631 -10.556  -3.011  0.00  0.00    +0.145 HD
ATOM     30  H   UNL     1       5.854  -9.411  -3.145  0.00  0.00    +0.145 HD
ENDBRANCH   8  28
BRANCH   9  31
ATOM     31  C   UNL     1       5.841  -7.122  -3.081  0.00  0.00    +0.101 C 
ATOM     32  N   UNL     1       6.954  -6.941  -3.222  0.00  0.00    -0.191 NA
ENDBRANCH   9  31
TORSDOF 7
