REMARK  Name = ZINC39517953
REMARK  4 active torsions:
REMARK  status: ('A' for Active; 'I' for Inactive)
REMARK    1  A    between atoms: C_1  and  C_2
REMARK    2  A    between atoms: N_11  and  C_15
REMARK    3  A    between atoms: C_15  and  C_16
REMARK    4  A    between atoms: C_21  and  C_24
REMARK                            x       y       z     vdW  Elec       q    Type
REMARK                         _______ _______ _______ _____ _____    ______ ____
ROOT
ATOM      1  C   UNL     1       1.143   0.522   5.534  0.00  0.00    +0.237 C 
ATOM      2  O   UNL     1       1.563  -0.593   5.305  0.00  0.00    -0.274 OA
ATOM      3  N   UNL     1       1.020   0.948   6.807  0.00  0.00    -0.263 N 
ATOM      4  C   UNL     1       1.374   0.110   7.857  0.00  0.00    +0.165 A 
ATOM      5  N   UNL     1       1.315   0.352   9.147  0.00  0.00    -0.225 NA
ATOM      6  C   UNL     1       1.693  -0.559  10.034  0.00  0.00    +0.082 A 
ATOM      7  C   UNL     1       2.140  -1.750   9.535  0.00  0.00    +0.077 A 
ATOM      8  S   UNL     1       1.972  -1.461   7.781  0.00  0.00    -0.060 S 
ATOM      9  H   UNL     1       0.684   1.839   6.989  0.00  0.00    +0.157 HD
ENDROOT
BRANCH   6  10
ATOM     10  C   UNL     1       1.633  -0.299  11.495  0.00  0.00    +0.028 A 
ATOM     11  C   UNL     1       1.934  -1.304  12.410  0.00  0.00    +0.039 A 
ATOM     12  C   UNL     1       1.868  -1.027  13.733  0.00  0.00    +0.080 A 
ATOM     13  S   UNL     1       1.372   0.687  13.736  0.00  0.00    -0.065 S 
ATOM     14  C   UNL     1       1.287   0.934  11.971  0.00  0.00    +0.089 A 
ATOM     15 CL   UNL     1       0.871   2.369  11.087  0.00  0.00    -0.075 Cl
ATOM     16 CL   UNL     1       2.185  -2.073  15.082  0.00  0.00    -0.076 Cl
ENDBRANCH   6  10
BRANCH   1  17
ATOM     17  C   UNL     1       0.759   1.431   4.395  0.00  0.00    +0.214 C 
BRANCH  17  27
ATOM     18  C   UNL     1      -0.042   1.513   0.012  0.00  0.00    +0.010 C 
ATOM     19  C   UNL     1      -0.012  -0.017   0.004  0.00  0.00    +0.018 C 
ATOM     20  C   UNL     1       0.706  -0.506  -1.257  0.00  0.00    +0.006 C 
ATOM     21  C   UNL     1       0.753  -2.035  -1.254  0.00  0.00    +0.000 C 
ATOM     22  C   UNL     1       1.517  -2.522  -0.021  0.00  0.00    +0.003 C 
ATOM     23  C   UNL     1       0.802  -2.040   1.244  0.00  0.00    +0.035 C 
ATOM     24  C   UNL     1       0.730  -0.517   1.239  0.00  0.00    +0.115 C 
ATOM     25  C   UNL     1       0.058  -0.016   2.496  0.00  0.00    +0.247 C 
ATOM     26  O   UNL     1      -1.074  -0.246   2.866  0.00  0.00    -0.273 OA
ATOM     27  N   UNL     1       0.984   0.740   3.122  0.00  0.00    -0.215 N 
ATOM     28  C   UNL     1       2.132   0.782   2.436  0.00  0.00    +0.310 C 
ATOM     29  O   UNL     1       3.114   1.400   2.799  0.00  0.00    -0.252 OA
ATOM     30  N   UNL     1       2.078   0.063   1.299  0.00  0.00    -0.285 N 
ATOM     31  H   UNL     1       2.788  -0.050   0.648  0.00  0.00    +0.151 HD
ENDBRANCH  17  27
ENDBRANCH   1  17
TORSDOF 3
