REMARK  Name = ZINC01004141
REMARK  7 active torsions:
REMARK  status: ('A' for Active; 'I' for Inactive)
REMARK    1  A    between atoms: C_4  and  C_7
REMARK    2  A    between atoms: C_7  and  C_9
REMARK    3  A    between atoms: C_10  and  N_30
REMARK    4  A    between atoms: C_11  and  S_21
REMARK    5  A    between atoms: C_12  and  N_14
REMARK    6  A    between atoms: N_14  and  C_15
REMARK    7  A    between atoms: S_21  and  C_24
REMARK                            x       y       z     vdW  Elec       q    Type
REMARK                         _______ _______ _______ _____ _____    ______ ____
ROOT
ATOM      1  C   UNL     1       4.171  -1.844   0.155  0.00  0.00    +0.084 A 
ATOM      2  C   UNL     1       5.040  -2.942   0.192  0.00  0.00    +0.070 A 
ATOM      3  C   UNL     1       4.500  -4.199   0.099  0.00  0.00    +0.143 A 
ATOM      4  C   UNL     1       3.130  -4.330  -0.026  0.00  0.00    +0.098 A 
ATOM      5  S   UNL     1       2.578  -2.633  -0.006  0.00  0.00    -0.066 S 
ENDROOT
BRANCH   3   6
ATOM      6  S   UNL     1       5.535  -5.624   0.138  0.00  0.00    +0.029 S 
ATOM      7  O   UNL     1       4.726  -6.726  -0.251  0.00  0.00    -0.164 OA
ATOM      8  O   UNL     1       6.730  -5.277  -0.548  0.00  0.00    -0.164 OA
BRANCH   6   9
ATOM      9  C   UNL     1       5.982  -5.897   1.820  0.00  0.00    +0.094 A 
ATOM     10  C   UNL     1       7.118  -5.304   2.339  0.00  0.00    +0.027 A 
ATOM     11  C   UNL     1       7.469  -5.518   3.659  0.00  0.00    +0.002 A 
ATOM     12  C   UNL     1       6.684  -6.325   4.460  0.00  0.00    +0.000 A 
ATOM     13  C   UNL     1       5.548  -6.918   3.942  0.00  0.00    +0.002 A 
ATOM     14  C   UNL     1       5.194  -6.701   2.623  0.00  0.00    +0.027 A 
ENDBRANCH   6   9
ENDBRANCH   3   6
BRANCH   2  15
ATOM     15  N   UNL     1       6.413  -2.762   0.318  0.00  0.00    -0.355 N 
ATOM     16  H   UNL     1       6.777  -1.869   0.426  0.00  0.00    +0.142 HD
ATOM     17  H   UNL     1       7.006  -3.529   0.299  0.00  0.00    +0.142 HD
ENDBRANCH   2  15
BRANCH   1  18
ATOM     18  C   UNL     1       4.474  -0.473   0.231  0.00  0.00    +0.202 C 
ATOM     19  O   UNL     1       5.637  -0.105   0.225  0.00  0.00    -0.286 OA
BRANCH  18  23
ATOM     20  C   UNL     1       1.341   2.386   0.483  0.00  0.00    +0.000 A 
ATOM     21  C   UNL     1       2.579   2.762  -0.008  0.00  0.00    +0.001 A 
ATOM     22  C   UNL     1       3.600   1.839  -0.092  0.00  0.00    +0.012 A 
ATOM     23  C   UNL     1       3.383   0.523   0.319  0.00  0.00    +0.023 A 
ATOM     24  C   UNL     1       2.132   0.150   0.813  0.00  0.00    +0.012 A 
ATOM     25  C   UNL     1       1.119   1.083   0.892  0.00  0.00    +0.001 A 
ENDBRANCH  18  23
ENDBRANCH   1  18
BRANCH   4  26
ATOM     26  N   UNL     1       2.376  -5.485  -0.134  0.00  0.00    -0.307 N 
ATOM     27  H   UNL     1       2.800  -6.352  -0.035  0.00  0.00    +0.153 HD
BRANCH  26  28
ATOM     28  C   UNL     1       1.004  -5.403  -0.385  0.00  0.00    +0.032 A 
ATOM     29  C   UNL     1       0.502  -4.381  -1.180  0.00  0.00    +0.023 A 
ATOM     30  C   UNL     1      -0.854  -4.303  -1.427  0.00  0.00    +0.002 A 
ATOM     31  C   UNL     1      -1.712  -5.241  -0.884  0.00  0.00    +0.000 A 
ATOM     32  C   UNL     1      -1.216  -6.260  -0.092  0.00  0.00    +0.002 A 
ATOM     33  C   UNL     1       0.140  -6.347   0.155  0.00  0.00    +0.023 A 
ENDBRANCH  26  28
ENDBRANCH   4  26
TORSDOF 7
