REMARK  Name = ZINC09281119
REMARK  2 active torsions:
REMARK  status: ('A' for Active; 'I' for Inactive)
REMARK    1  A    between atoms: C_15  and  C_17
REMARK    2  A    between atoms: N_22  and  C_25
REMARK                            x       y       z     vdW  Elec       q    Type
REMARK                         _______ _______ _______ _____ _____    ______ ____
ROOT
ATOM      1  C   UNL     1      -5.759   7.866  -0.275  0.00  0.00    +0.001 A 
ATOM      2  C   UNL     1      -4.697   7.442  -1.054  0.00  0.00    +0.000 A 
ATOM      3  C   UNL     1      -3.870   6.422  -0.613  0.00  0.00    +0.006 A 
ATOM      4  C   UNL     1      -4.103   5.827   0.606  0.00  0.00    -0.021 A 
ATOM      5  C   UNL     1      -5.171   6.253   1.405  0.00  0.00    -0.019 A 
ATOM      6  C   UNL     1      -6.001   7.280   0.950  0.00  0.00    +0.008 A 
ATOM      7  C   UNL     1      -5.419   5.624   2.718  0.00  0.00    +0.022 C 
ATOM      8  C   UNL     1      -4.856   4.431   2.995  0.00  0.00    +0.054 C 
ATOM      9  C   UNL     1      -3.227   4.705   1.102  0.00  0.00    +0.100 C 
ATOM     10  C   UNL     1      -2.772   3.812  -0.075  0.00  0.00    +0.113 C 
ATOM     11  C   UNL     1      -3.525   2.468   0.146  0.00  0.00    +0.118 C 
ATOM     12  C   UNL     1      -3.899   2.478   1.643  0.00  0.00    +0.155 C 
ATOM     13  C   UNL     1      -2.424   1.448  -0.076  0.00  0.00    +0.232 C 
ATOM     14  O   UNL     1      -2.588   0.268  -0.302  0.00  0.00    -0.274 OA
ATOM     15  N   UNL     1      -1.240   2.070   0.019  0.00  0.00    -0.210 N 
ATOM     16  C   UNL     1      -1.326   3.404   0.130  0.00  0.00    +0.232 C 
ATOM     17  O   UNL     1      -0.403   4.157   0.355  0.00  0.00    -0.274 OA
ATOM     18  N   UNL     1      -3.723   3.861   2.158  0.00  0.00    -0.383 NA
ATOM     19  H   UNL     1      -2.942   3.793   2.821  0.00  0.00    +0.127 HD
ENDROOT
BRANCH  15  20
ATOM     20  C   UNL     1      -0.017   1.384   0.010  0.00  0.00    +0.044 A 
ATOM     21  C   UNL     1       0.778   1.364   1.148  0.00  0.00    +0.025 A 
ATOM     22  C   UNL     1       1.985   0.693   1.134  0.00  0.00    +0.017 A 
ATOM     23  C   UNL     1       2.402   0.041  -0.013  0.00  0.00    +0.018 A 
ATOM     24  C   UNL     1       1.612   0.059  -1.148  0.00  0.00    +0.017 A 
ATOM     25  C   UNL     1       0.404   0.729  -1.140  0.00  0.00    +0.025 A 
ATOM     26 BR   UNL     1       4.056  -0.877  -0.028  0.00  0.00    -0.050 Br
ENDBRANCH  15  20
BRANCH  12  27
ATOM     27  C   UNL     1      -2.802   1.842   2.457  0.00  0.00    +0.230 C 
ATOM     28  O   UNL     1      -2.001   2.538   3.044  0.00  0.00    -0.274 OA
ATOM     29  N   UNL     1      -2.710   0.499   2.532  0.00  0.00    -0.328 N 
ATOM     30  H   UNL     1      -3.351  -0.058   2.062  0.00  0.00    +0.145 HD
ATOM     31  H   UNL     1      -2.004   0.090   3.055  0.00  0.00    +0.145 HD
ENDBRANCH  12  27
TORSDOF 2
