REMARK  Name = ZINC28310976
REMARK  11 active torsions:
REMARK  status: ('A' for Active; 'I' for Inactive)
REMARK    1  A    between atoms: C_1  and  O_2
REMARK    2  A    between atoms: O_2  and  C_3
REMARK    3  A    between atoms: C_6  and  N_9
REMARK    4  A    between atoms: C_10  and  C_12
REMARK    5  A    between atoms: C_12  and  N_24
REMARK    6  A    between atoms: C_13  and  C_14
REMARK    7  A    between atoms: C_17  and  O_22
REMARK    8  A    between atoms: C_19  and  O_20
REMARK    9  A    between atoms: O_20  and  C_21
REMARK   10  A    between atoms: O_22  and  C_23
REMARK   11  A    between atoms: C_25  and  C_27
REMARK                            x       y       z     vdW  Elec       q    Type
REMARK                         _______ _______ _______ _____ _____    ______ ____
ROOT
ATOM      1  C   UNL     1       1.772   0.730  -0.216  0.00  0.00    +0.097 C 
ATOM      2  C   UNL     1       0.993  -0.118  -0.931  0.00  0.00    +0.040 C 
ENDROOT
BRANCH   2   3
ATOM      3  C   UNL     1       1.593  -0.975  -1.960  0.00  0.00    +0.019 A 
ATOM      4  C   UNL     1       2.500  -0.438  -2.882  0.00  0.00    +0.015 A 
ATOM      5  C   UNL     1       3.060  -1.246  -3.845  0.00  0.00    +0.046 A 
ATOM      6  C   UNL     1       2.729  -2.596  -3.906  0.00  0.00    +0.124 A 
ATOM      7  C   UNL     1       1.832  -3.139  -2.998  0.00  0.00    +0.091 A 
ATOM      8  C   UNL     1       1.265  -2.340  -2.021  0.00  0.00    +0.131 A 
BRANCH   8   9
ATOM      9  O   UNL     1       0.392  -2.871  -1.129  0.00  0.00    -0.494 OA
ATOM     10  C   UNL     1       0.106  -4.266  -1.252  0.00  0.00    +0.277 C 
ENDBRANCH   8   9
BRANCH   6  11
ATOM     11  O   UNL     1       3.287  -3.385  -4.860  0.00  0.00    -0.495 OA
ATOM     12  C   UNL     1       4.203  -2.763  -5.763  0.00  0.00    +0.277 C 
ENDBRANCH   6  11
ENDBRANCH   2   3
BRANCH   1  14
ATOM     13  N   UNL     1       4.008   1.546   0.313  0.00  0.00    -0.280 N 
ATOM     14  C   UNL     1       3.233   0.625  -0.293  0.00  0.00    +0.262 C 
ATOM     15  O   UNL     1       3.745  -0.295  -0.904  0.00  0.00    -0.268 OA
ATOM     16  H   UNL     1       3.547   2.334   0.927  0.00  0.00    +0.155 HD
BRANCH  13  20
ATOM     17  C   UNL     1       8.150   1.410  -0.140  0.00  0.00    +0.120 A 
ATOM     18  C   UNL     1       7.504   2.633  -0.035  0.00  0.00    +0.047 A 
ATOM     19  C   UNL     1       6.132   2.679   0.115  0.00  0.00    +0.027 A 
ATOM     20  C   UNL     1       5.399   1.500   0.161  0.00  0.00    +0.034 A 
ATOM     21  C   UNL     1       6.047   0.276   0.061  0.00  0.00    +0.027 A 
ATOM     22  C   UNL     1       7.418   0.232  -0.095  0.00  0.00    +0.047 A 
BRANCH  17  24
ATOM     23  C   UNL     1      10.100   0.072  -0.390  0.00  0.00    +0.277 C 
ATOM     24  O   UNL     1       9.501   1.365  -0.288  0.00  0.00    -0.495 OA
ENDBRANCH  17  24
ENDBRANCH  13  20
ENDBRANCH   1  14
BRANCH   1  25
ATOM     25  N   UNL     1       1.182   1.707   0.595  0.00  0.00    -0.277 N 
ATOM     26  C   UNL     1       1.431   1.723   1.920  0.00  0.00    +0.248 C 
ATOM     27  O   UNL     1       2.101   0.842   2.423  0.00  0.00    -0.270 OA
ATOM     28  H   UNL     1       0.516   2.462   0.152  0.00  0.00    +0.155 HD
BRANCH  26  29
ATOM     29  C   UNL     1       0.885   2.808   2.761  0.00  0.00    +0.037 A 
ATOM     30  C   UNL     1       0.120   3.825   2.185  0.00  0.00    +0.014 A 
ATOM     31  C   UNL     1      -0.391   4.832   2.976  0.00  0.00    +0.016 A 
ATOM     32  C   UNL     1      -0.138   4.842   4.338  0.00  0.00    +0.018 A 
ATOM     33  C   UNL     1       0.624   3.840   4.914  0.00  0.00    +0.016 A 
ATOM     34  C   UNL     1       1.136   2.824   4.134  0.00  0.00    +0.014 A 
ATOM     35 BR   UNL     1      -0.837   6.231   5.415  0.00  0.00    -0.050 Br
ENDBRANCH  26  29
ENDBRANCH   1  25
TORSDOF 8
