REMARK  Name = ZINC43641654
REMARK  9 active torsions:
REMARK  status: ('A' for Active; 'I' for Inactive)
REMARK    1  A    between atoms: C_1  and  C_2
REMARK    2  A    between atoms: C_6  and  S_34
REMARK    3  A    between atoms: C_16  and  N_20
REMARK    4  A    between atoms: N_20  and  C_21
REMARK    5  A    between atoms: C_21  and  C_22
REMARK    6  A    between atoms: C_22  and  C_23
REMARK    7  A    between atoms: C_31  and  C_32
REMARK    8  A    between atoms: C_31  and  C_33
REMARK    9  A    between atoms: S_34  and  C_37
REMARK                            x       y       z     vdW  Elec       q    Type
REMARK                         _______ _______ _______ _____ _____    ______ ____
ROOT
ATOM      1  C   UNL     1      -0.875   0.596   0.065  0.00  0.00    +0.066 C 
ATOM      2  C   UNL     1      -0.698  -0.894   0.202  0.00  0.00    +0.051 A 
ATOM      3  C   UNL     1      -0.739  -1.731  -0.929  0.00  0.00    +0.022 A 
ATOM      4  C   UNL     1      -0.943  -1.225  -2.222  0.00  0.00    +0.013 A 
ATOM      5  C   UNL     1      -0.972  -2.083  -3.280  0.00  0.00    +0.028 A 
ATOM      6  C   UNL     1      -0.803  -3.453  -3.098  0.00  0.00    +0.090 A 
ATOM      7  C   UNL     1      -0.602  -3.978  -1.856  0.00  0.00    +0.055 A 
ATOM      8  C   UNL     1      -0.566  -3.126  -0.742  0.00  0.00    +0.078 A 
ATOM      9  N   UNL     1      -0.371  -3.590   0.498  0.00  0.00    -0.214 NA
ATOM     10  C   UNL     1      -0.343  -2.758   1.521  0.00  0.00    +0.219 A 
ATOM     11  N   UNL     1      -0.497  -1.443   1.381  0.00  0.00    -0.219 NA
ATOM     12  N   UNL     1      -0.141  -3.272   2.789  0.00  0.00    -0.300 N 
ATOM     13  C   UNL     1       0.041  -4.729   2.942  0.00  0.00    +0.108 C 
ATOM     14  C   UNL     1       1.162  -5.072   3.939  0.00  0.00    +0.017 C 
ATOM     15  C   UNL     1       2.329  -4.135   3.750  0.00  0.00    -0.014 C 
ATOM     16  C   UNL     1       2.170  -2.935   4.680  0.00  0.00    -0.070 C 
ATOM     17  C   UNL     1       1.331  -1.855   4.137  0.00  0.00    +0.003 C 
ATOM     18  C   UNL     1      -0.110  -2.359   3.910  0.00  0.00    +0.106 C 
ENDROOT
BRANCH   6  19
ATOM     19  S   UNL     1      -0.849  -4.526  -4.495  0.00  0.00    -0.006 S 
ATOM     20  O   UNL     1      -1.263  -5.782  -3.974  0.00  0.00    -0.170 OA
ATOM     21  O   UNL     1      -1.645  -3.841  -5.452  0.00  0.00    -0.170 OA
ATOM     22  C   UNL     1       0.870  -4.623  -5.065  0.00  0.00    +0.200 C 
ENDBRANCH   6  19
BRANCH  16  23
ATOM     23  N   UNL     1       3.502  -2.388   4.968  0.00  0.00    +0.381 N 
ATOM     24  H   UNL     1       4.096  -3.120   5.328  0.00  0.00    -0.086 HD
ATOM     25  H   UNL     1       3.903  -2.016   4.120  0.00  0.00    -0.086 HD
BRANCH  23  26
ATOM     26  C   UNL     1       3.386  -1.316   5.965  0.00  0.00    -0.078 C 
BRANCH  26  27
ATOM     27  C   UNL     1       4.783  -0.840   6.368  0.00  0.00    +0.012 C 
BRANCH  27  28
ATOM     28  C   UNL     1       4.664   0.259   7.391  0.00  0.00    -0.072 C 
ATOM     29  C   UNL     1       4.736   0.004   8.678  0.00  0.00    -0.027 C 
ATOM     30  C   UNL     1       4.620   1.136   9.670  0.00  0.00    +0.031 C 
ATOM     31  C   UNL     1       4.348   2.450   8.927  0.00  0.00    -0.000 C 
ATOM     32  C   UNL     1       3.277   2.306   7.832  0.00  0.00    +0.012 C 
ATOM     33  C   UNL     1       4.463   1.706   6.975  0.00  0.00    +0.021 C 
ATOM     34  C   UNL     1       5.362   2.654   7.782  0.00  0.00    -0.025 C 
ATOM     35  C   UNL     1       5.403   4.083   7.238  0.00  0.00    +0.012 C 
ATOM     36  C   UNL     1       6.751   2.083   8.077  0.00  0.00    +0.012 C 
ENDBRANCH  27  28
ENDBRANCH  26  27
ENDBRANCH  23  26
ENDBRANCH  16  23
TORSDOF 5
