REMARK  Name = ZINC09319047
REMARK  3 active torsions:
REMARK  status: ('A' for Active; 'I' for Inactive)
REMARK    1  A    between atoms: C_6  and  N_7
REMARK    2  A    between atoms: C_13  and  C_16
REMARK    3  A    between atoms: N_18  and  C_19
REMARK                            x       y       z     vdW  Elec       q    Type
REMARK                         _______ _______ _______ _____ _____    ______ ____
ROOT
ATOM      1  N   UNL     1      -2.975   5.343   7.214  0.00  0.00    -0.269 N 
ATOM      2  C   UNL     1      -3.214   4.256   6.453  0.00  0.00    +0.310 C 
ATOM      3  O   UNL     1      -4.130   3.507   6.733  0.00  0.00    -0.252 OA
ATOM      4  N   UNL     1      -2.438   4.000   5.382  0.00  0.00    -0.248 N 
ATOM      5  C   UNL     1      -2.683   2.880   4.598  0.00  0.00    +0.166 A 
ATOM      6  N   UNL     1      -2.046   2.462   3.524  0.00  0.00    -0.220 NA
ATOM      7  C   UNL     1      -2.445   1.346   2.909  0.00  0.00    +0.135 A 
ATOM      8  C   UNL     1      -3.519   0.660   3.409  0.00  0.00    +0.081 A 
ATOM      9  S   UNL     1      -3.946   1.631   4.783  0.00  0.00    -0.060 S 
ATOM     10  H   UNL     1      -2.205   5.904   7.030  0.00  0.00    +0.156 HD
ATOM     11  H   UNL     1      -1.707   4.598   5.158  0.00  0.00    +0.158 HD
ENDROOT
BRANCH   1  17
ATOM     12  C   UNL     1      -4.094   6.992   8.579  0.00  0.00    +0.025 A 
ATOM     13  C   UNL     1      -4.951   7.305   9.616  0.00  0.00    +0.022 A 
ATOM     14  C   UNL     1      -5.546   6.295  10.352  0.00  0.00    +0.041 A 
ATOM     15  C   UNL     1      -5.290   4.970  10.047  0.00  0.00    +0.022 A 
ATOM     16  C   UNL     1      -4.438   4.652   9.008  0.00  0.00    +0.025 A 
ATOM     17  C   UNL     1      -3.839   5.663   8.268  0.00  0.00    +0.035 A 
ATOM     18 CL   UNL     1      -6.618   6.692  11.659  0.00  0.00    -0.084 Cl
ENDBRANCH   1  17
BRANCH   7  19
ATOM     19  C   UNL     1      -1.744   0.864   1.708  0.00  0.00    +0.263 C 
ATOM     20  O   UNL     1      -2.115  -0.154   1.154  0.00  0.00    -0.269 OA
ATOM     21  N   UNL     1      -0.690   1.550   1.221  0.00  0.00    -0.307 N 
ATOM     22  H   UNL     1      -0.394   2.361   1.663  0.00  0.00    +0.149 HD
BRANCH  21  23
ATOM     23  C   UNL     1       0.007   1.070   0.026  0.00  0.00    +0.073 C 
ATOM     24  C   UNL     1      -0.689   1.576  -1.208  0.00  0.00    +0.022 C 
ATOM     25  C   UNL     1      -0.627   0.571  -2.374  0.00  0.00    +0.002 C 
ATOM     26  C   UNL     1       0.754  -0.098  -2.513  0.00  0.00    +0.000 C 
ATOM     27  C   UNL     1       1.887   0.873  -2.321  0.00  0.00    +0.000 C 
ATOM     28  C   UNL     1       2.329   0.824  -0.844  0.00  0.00    +0.002 C 
ATOM     29  C   UNL     1       1.456   1.601   0.023  0.00  0.00    +0.022 C 
ENDBRANCH  21  23
ENDBRANCH   7  19
TORSDOF 3
