REMARK  Name = ZINC06831837
REMARK  4 active torsions:
REMARK  status: ('A' for Active; 'I' for Inactive)
REMARK    1  A    between atoms: C_8  and  C_10
REMARK    2  A    between atoms: C_10  and  S_11
REMARK    3  A    between atoms: S_11  and  C_12
REMARK    4  A    between atoms: C_16  and  N_18
REMARK                            x       y       z     vdW  Elec       q    Type
REMARK                         _______ _______ _______ _____ _____    ______ ____
ROOT
ATOM      1  C   UNL     1      -2.307   9.513  -1.343  0.00  0.00    +0.192 A 
ATOM      2  N   UNL     1      -2.405   9.939  -0.092  0.00  0.00    -0.207 NA
ATOM      3  C   UNL     1      -2.705  11.208   0.174  0.00  0.00    +0.122 A 
ATOM      4  C   UNL     1      -2.928  12.088  -0.882  0.00  0.00    +0.086 A 
ATOM      5  C   UNL     1      -2.821  11.603  -2.182  0.00  0.00    +0.122 A 
ATOM      6  N   UNL     1      -2.512  10.322  -2.373  0.00  0.00    -0.207 NA
ATOM      7  N   UNL     1      -2.801  11.647   1.485  0.00  0.00    -0.343 N 
ATOM      8  H   UNL     1      -3.023  12.573   1.672  0.00  0.00    +0.144 HD
ATOM      9  H   UNL     1      -2.644  11.029   2.216  0.00  0.00    +0.144 HD
ENDROOT
BRANCH   5  10
ATOM     10  N   UNL     1      -3.034  12.442  -3.264  0.00  0.00    -0.343 N 
ATOM     11  H   UNL     1      -2.958  12.098  -4.168  0.00  0.00    +0.144 HD
ATOM     12  H   UNL     1      -3.259  13.374  -3.118  0.00  0.00    +0.144 HD
ENDBRANCH   5  10
BRANCH   1  13
ATOM     13  S   UNL     1      -1.899   7.826  -1.645  0.00  0.00    -0.079 S 
BRANCH  13  14
ATOM     14  C   UNL     1      -1.740   7.231   0.057  0.00  0.00    +0.140 C 
BRANCH  14  22
ATOM     15  C   UNL     1       1.176   1.792   0.001  0.00  0.00    +0.002 A 
ATOM     16  C   UNL     1      -0.013   1.076   0.008  0.00  0.00    +0.001 A 
ATOM     17  C   UNL     1      -1.215   1.757   0.017  0.00  0.00    +0.017 A 
ATOM     18  C   UNL     1      -1.212   3.130   0.030  0.00  0.00    +0.039 A 
ATOM     19  C   UNL     1      -0.017   3.886   0.023  0.00  0.00    +0.079 A 
ATOM     20  C   UNL     1       1.190   3.152   0.007  0.00  0.00    +0.029 A 
ATOM     21  N   UNL     1      -0.201   5.223   0.032  0.00  0.00    -0.243 NA
ATOM     22  C   UNL     1      -1.385   5.767   0.046  0.00  0.00    +0.090 A 
ATOM     23  S   UNL     1      -2.454   4.399   0.049  0.00  0.00    -0.071 S 
ENDBRANCH  14  22
ENDBRANCH  13  14
ENDBRANCH   1  13
TORSDOF 4
