REMARK  Name = ZINC22505830
REMARK  6 active torsions:
REMARK  status: ('A' for Active; 'I' for Inactive)
REMARK    1  A    between atoms: N_8  and  N_9
REMARK    2  A    between atoms: N_9  and  C_10
REMARK    3  A    between atoms: C_14  and  C_17
REMARK    4  A    between atoms: C_17  and  C_18
REMARK    5  A    between atoms: N_20  and  C_21
REMARK    6  A    between atoms: C_21  and  C_22
REMARK                            x       y       z     vdW  Elec       q    Type
REMARK                         _______ _______ _______ _____ _____    ______ ____
ROOT
ATOM      1  C   UNL     1      -1.300   0.931   6.641  0.00  0.00    +0.191 C 
ATOM      2  N   UNL     1      -1.243   2.154   7.152  0.00  0.00    -0.155 NA
ATOM      3  C   UNL     1      -2.129   2.656   7.967  0.00  0.00    +0.252 C 
ATOM      4  O   UNL     1      -2.038   3.784   8.412  0.00  0.00    -0.272 OA
ATOM      5  C   UNL     1      -3.287   1.731   8.322  0.00  0.00    +0.150 C 
ATOM      6  S   UNL     1      -2.805   0.255   7.330  0.00  0.00    -0.076 S 
ENDROOT
BRANCH   1   7
ATOM      7  N   UNL     1      -0.420   0.332   5.786  0.00  0.00    -0.094 NA
BRANCH   7  15
ATOM      8  C   UNL     1      -0.019   1.526   0.010  0.00  0.00    +0.000 C 
ATOM      9  C   UNL     1       1.417   2.055  -0.000  0.00  0.00    +0.000 C 
ATOM     10  C   UNL     1       1.601   3.054   1.144  0.00  0.00    +0.000 C 
ATOM     11  C   UNL     1       2.782   2.620   2.014  0.00  0.00    +0.000 C 
ATOM     12  C   UNL     1       2.340   2.554   3.478  0.00  0.00    +0.006 C 
ATOM     13  C   UNL     1       2.762   1.211   4.077  0.00  0.00    +0.052 C 
ATOM     14  C   UNL     1       1.540   0.464   4.547  0.00  0.00    +0.039 C 
ATOM     15  N   UNL     1       0.715   1.026   5.349  0.00  0.00    -0.167 NA
ATOM     16  C   UNL     1       1.290  -0.944   4.073  0.00  0.00    +0.052 C 
ATOM     17  C   UNL     1      -0.118  -1.041   3.482  0.00  0.00    +0.006 C 
ATOM     18  C   UNL     1      -0.028  -1.479   2.019  0.00  0.00    +0.000 C 
ATOM     19  C   UNL     1      -0.860  -0.532   1.151  0.00  0.00    +0.000 C 
ATOM     20  C   UNL     1       0.002  -0.004   0.002  0.00  0.00    +0.000 C 
ENDBRANCH   7  15
ENDBRANCH   1   7
BRANCH   5  21
ATOM     21  C   UNL     1      -4.625   2.304   7.851  0.00  0.00    +0.119 C 
BRANCH  21  22
ATOM     22  C   UNL     1      -5.747   1.419   8.330  0.00  0.00    +0.215 C 
ATOM     23  O   UNL     1      -5.500   0.427   8.984  0.00  0.00    -0.276 OA
ATOM     24  N   UNL     1      -7.024   1.729   8.032  0.00  0.00    -0.313 N 
ATOM     25  H   UNL     1      -7.221   2.522   7.509  0.00  0.00    +0.149 HD
BRANCH  24  26
ATOM     26  C   UNL     1      -8.114   0.869   8.498  0.00  0.00    +0.135 C 
BRANCH  26  27
ATOM     27  C   UNL     1      -9.453   1.441   8.027  0.00  0.00    +0.135 C 
ATOM     28  C   UNL     1     -10.623   0.565   8.539  0.00  0.00    +0.035 C 
ATOM     29  C   UNL     1     -11.785   1.595   8.539  0.00  0.00    +0.031 C 
ATOM     30  C   UNL     1     -11.061   2.905   8.916  0.00  0.00    +0.160 C 
ATOM     31  O   UNL     1      -9.671   2.738   8.605  0.00  0.00    -0.375 OA
ENDBRANCH  26  27
ENDBRANCH  24  26
ENDBRANCH  21  22
ENDBRANCH   5  21
TORSDOF 6
