REMARK  Name = ZINC03665044
REMARK  6 active torsions:
REMARK  status: ('A' for Active; 'I' for Inactive)
REMARK    1  A    between atoms: C_3  and  N_34
REMARK    2  A    between atoms: C_6  and  C_7
REMARK    3  A    between atoms: C_9  and  C_32
REMARK    4  A    between atoms: C_10  and  N_31
REMARK    5  A    between atoms: N_11  and  C_19
REMARK    6  A    between atoms: C_20  and  C_29
REMARK                            x       y       z     vdW  Elec       q    Type
REMARK                         _______ _______ _______ _____ _____    ______ ____
ROOT
ATOM      1  C   UNL     1       3.811   1.848  -0.504  0.00  0.00    +0.097 C 
ATOM      2  C   UNL     1       4.746   1.146  -1.444  0.00  0.00    +0.077 C 
ATOM      3  C   UNL     1       4.409  -0.041  -2.013  0.00  0.00    +0.107 C 
ATOM      4  N   UNL     1       3.189  -0.617  -1.738  0.00  0.00    -0.253 N 
ATOM      5  C   UNL     1       2.160   0.138  -1.237  0.00  0.00    +0.025 C 
ATOM      6  C   UNL     1       2.404   1.324  -0.641  0.00  0.00    +0.025 C 
ATOM      7  C   UNL     1       1.355   2.105  -0.124  0.00  0.00    +0.162 C 
ATOM      8  O   UNL     1       1.606   3.177   0.390  0.00  0.00    -0.292 OA
ATOM      9  C   UNL     1      -0.074   1.638  -0.197  0.00  0.00    +0.080 C 
ATOM     10  C   UNL     1      -0.098   0.106  -0.202  0.00  0.00    +0.014 C 
ATOM     11  C   UNL     1       0.752  -0.388  -1.375  0.00  0.00    +0.052 C 
ENDROOT
BRANCH   4  12
ATOM     12  C   UNL     1       3.000  -1.974  -1.968  0.00  0.00    +0.095 A 
ATOM     13  C   UNL     1       2.584  -2.600  -3.131  0.00  0.00    +0.084 A 
ATOM     14  C   UNL     1       2.466  -4.050  -3.116  0.00  0.00    -0.018 A 
ATOM     15  C   UNL     1       2.775  -4.634  -1.937  0.00  0.00    -0.004 A 
ATOM     16  S   UNL     1       3.235  -3.294  -0.872  0.00  0.00    -0.076 S 
ATOM     17  C   UNL     1       2.739  -6.092  -1.599  0.00  0.00    +0.043 C 
ATOM     18  C   UNL     1       3.471  -6.882  -2.693  0.00  0.00    +0.005 C 
ATOM     19  C   UNL     1       2.465  -7.256  -3.776  0.00  0.00    +0.001 C 
ATOM     20  C   UNL     1       1.404  -6.165  -3.908  0.00  0.00    +0.005 C 
ATOM     21  C   UNL     1       2.042  -4.850  -4.341  0.00  0.00    +0.037 C 
BRANCH  13  22
ATOM     22  C   UNL     1       2.279  -1.845  -4.309  0.00  0.00    +0.102 C 
ATOM     23  N   UNL     1       2.037  -1.246  -5.244  0.00  0.00    -0.191 NA
ENDBRANCH  13  22
ENDBRANCH   4  12
BRANCH   1  29
ATOM     24  C   UNL     1       4.339   0.355   1.435  0.00  0.00    +0.007 A 
ATOM     25  C   UNL     1       4.776   0.159   2.732  0.00  0.00    +0.033 A 
ATOM     26  C   UNL     1       5.146   1.241   3.508  0.00  0.00    +0.126 A 
ATOM     27  C   UNL     1       5.085   2.519   2.986  0.00  0.00    +0.033 A 
ATOM     28  C   UNL     1       4.653   2.716   1.688  0.00  0.00    +0.007 A 
ATOM     29  C   UNL     1       4.282   1.633   0.912  0.00  0.00    -0.035 A 
BRANCH  26  30
ATOM     30  N   UNL     1       5.608   1.030   4.899  0.00  0.00    +0.056 N 
ATOM     31  O   UNL     1       5.934   1.984   5.583  0.00  0.00    -0.126 OA
ATOM     32  O   UNL     1       5.662  -0.096   5.359  0.00  0.00    -0.126 OA
ENDBRANCH  26  30
ENDBRANCH   1  29
BRANCH   3  33
ATOM     33  N   UNL     1       5.288  -0.667  -2.865  0.00  0.00    -0.345 N 
ATOM     34  H   UNL     1       6.109  -0.223  -3.127  0.00  0.00    +0.144 HD
ATOM     35  H   UNL     1       5.086  -1.553  -3.203  0.00  0.00    +0.144 HD
ENDBRANCH   3  33
BRANCH   2  36
ATOM     36  C   UNL     1       6.014   1.737  -1.748  0.00  0.00    +0.099 C 
ATOM     37  N   UNL     1       7.020   2.207  -1.989  0.00  0.00    -0.191 NA
ENDBRANCH   2  36
TORSDOF 6
