REMARK  Name = ZINC43461221
REMARK  5 active torsions:
REMARK  status: ('A' for Active; 'I' for Inactive)
REMARK    1  A    between atoms: C_3  and  C_10
REMARK    2  A    between atoms: C_5  and  C_7
REMARK    3  A    between atoms: C_7  and  N_9
REMARK    4  A    between atoms: C_10  and  N_11
REMARK    5  A    between atoms: C_19  and  N_20
REMARK                            x       y       z     vdW  Elec       q    Type
REMARK                         _______ _______ _______ _____ _____    ______ ____
ROOT
ATOM      1  C   UNL     1       3.671   2.204  -0.021  0.00  0.00    +0.160 C 
ENDROOT
BRANCH   1   2
ATOM      2  N   UNL     1       4.101   2.450   1.357  0.00  0.00    -0.310 N 
ATOM      3  C   UNL     1       3.841   3.566   2.096  0.00  0.00    +0.202 A 
ATOM      4  N   UNL     1       4.372   3.450   3.279  0.00  0.00    -0.231 NA
ATOM      5  C   UNL     1       5.006   2.257   3.373  0.00  0.00    +0.147 A 
ATOM      6  C   UNL     1       4.835   1.598   2.143  0.00  0.00    +0.166 A 
ATOM      7  N   UNL     1       5.363   0.390   1.978  0.00  0.00    -0.216 NA
ATOM      8  C   UNL     1       6.036  -0.186   2.952  0.00  0.00    +0.225 A 
ATOM      9  N   UNL     1       6.221   0.391   4.125  0.00  0.00    -0.219 NA
ATOM     10  C   UNL     1       5.737   1.603   4.380  0.00  0.00    +0.147 A 
BRANCH  10  11
ATOM     11  N   UNL     1       5.934   2.199   5.612  0.00  0.00    -0.341 N 
ATOM     12  H   UNL     1       5.566   3.079   5.790  0.00  0.00    +0.144 HD
ATOM     13  H   UNL     1       6.440   1.738   6.299  0.00  0.00    +0.144 HD
ENDBRANCH  10  11
ENDBRANCH   1   2
BRANCH   1  16
ATOM     14  C   UNL     1      -0.017   1.375   0.010  0.00  0.00    +0.001 A 
ATOM     15  C   UNL     1       1.170   2.086   0.002  0.00  0.00    +0.005 A 
ATOM     16  C   UNL     1       2.383   1.421  -0.013  0.00  0.00    -0.027 A 
ATOM     17  C   UNL     1       2.417   0.042  -0.021  0.00  0.00    +0.015 A 
ATOM     18  C   UNL     1       1.223  -0.683  -0.014  0.00  0.00    +0.003 A 
ATOM     19  C   UNL     1       0.002  -0.004   0.002  0.00  0.00    +0.010 A 
BRANCH  18  20
ATOM     20  C   UNL     1       1.251  -2.159  -0.023  0.00  0.00    +0.077 C 
ATOM     21  S   UNL     1       2.490  -2.996   0.810  0.00  0.00    -0.035 S 
BRANCH  20  22
ATOM     22  N   UNL     1       0.301  -2.846  -0.687  0.00  0.00    -0.352 N 
ATOM     23  H   UNL     1      -0.401  -2.372  -1.159  0.00  0.00    +0.143 HD
ATOM     24  H   UNL     1       0.319  -3.816  -0.693  0.00  0.00    +0.143 HD
ENDBRANCH  20  22
ENDBRANCH  18  20
ENDBRANCH   1  16
TORSDOF 5
