REMARK  Name = ZINC02911877
REMARK  5 active torsions:
REMARK  status: ('A' for Active; 'I' for Inactive)
REMARK    1  A    between atoms: C_1  and  C_2
REMARK    2  A    between atoms: C_6  and  C_24
REMARK    3  A    between atoms: C_10  and  C_11
REMARK    4  A    between atoms: N_13  and  C_14
REMARK    5  A    between atoms: N_28  and  C_31
REMARK                            x       y       z     vdW  Elec       q    Type
REMARK                         _______ _______ _______ _____ _____    ______ ____
ROOT
ATOM      1  C   UNL     1       3.971  -5.012   0.267  0.00  0.00    +0.046 C 
ATOM      2  C   UNL     1       5.135  -4.056   0.237  0.00  0.00    -0.019 A 
ATOM      3  C   UNL     1       6.447  -4.544   0.316  0.00  0.00    +0.051 A 
ATOM      4  C   UNL     1       6.904  -5.891   0.426  0.00  0.00    +0.133 A 
ATOM      5  N   UNL     1       8.204  -6.128   0.485  0.00  0.00    -0.217 NA
ATOM      6  C   UNL     1       9.100  -5.159   0.446  0.00  0.00    +0.129 A 
ATOM      7  N   UNL     1       8.742  -3.893   0.345  0.00  0.00    -0.225 NA
ATOM      8  C   UNL     1       7.468  -3.563   0.280  0.00  0.00    +0.114 A 
ATOM      9  S   UNL     1       6.568  -2.041   0.135  0.00  0.00    -0.064 S 
ATOM     10  C   UNL     1       4.916  -2.716   0.135  0.00  0.00    +0.080 A 
ATOM     11  C   UNL     1      10.565  -5.506   0.519  0.00  0.00    +0.088 C 
ATOM     12  N   UNL     1       6.001  -6.934   0.470  0.00  0.00    -0.312 N 
ATOM     13  C   UNL     1       6.155  -7.712   1.707  0.00  0.00    +0.125 C 
ATOM     14  C   UNL     1       5.086  -8.807   1.755  0.00  0.00    +0.125 C 
ATOM     15  N   UNL     1       5.221  -9.670   0.573  0.00  0.00    -0.314 N 
ATOM     16  C   UNL     1       5.067  -8.893  -0.664  0.00  0.00    +0.125 C 
ATOM     17  C   UNL     1       6.135  -7.798  -0.712  0.00  0.00    +0.125 C 
ENDROOT
BRANCH  15  18
ATOM     18  C   UNL     1       4.311 -10.721   0.618  0.00  0.00    +0.099 A 
ATOM     19  C   UNL     1       4.299 -11.576   1.715  0.00  0.00    +0.042 A 
ATOM     20  C   UNL     1       3.389 -12.617   1.746  0.00  0.00    +0.005 A 
ATOM     21  C   UNL     1       2.518 -12.768   0.675  0.00  0.00    +0.018 A 
ATOM     22  C   UNL     1       2.585 -11.882  -0.381  0.00  0.00    +0.084 A 
ATOM     23  N   UNL     1       3.462 -10.845  -0.443  0.00  0.00    -0.350 N 
ATOM     24  H   UNL     1       3.484 -10.195  -1.238  0.00  0.00    +0.166 HD
ENDBRANCH  15  18
BRANCH  10  25
ATOM     25  C   UNL     1       3.636  -2.004   0.041  0.00  0.00    +0.255 C 
ATOM     26  O   UNL     1       2.591  -2.626   0.050  0.00  0.00    -0.269 OA
ATOM     27  N   UNL     1       3.619  -0.659  -0.054  0.00  0.00    -0.281 N 
ATOM     28  H   UNL     1       4.452  -0.168  -0.128  0.00  0.00    +0.155 HD
BRANCH  27  29
ATOM     29  C   UNL     1       2.399   0.028  -0.047  0.00  0.00    +0.037 A 
ATOM     30  C   UNL     1       2.306   1.272   0.562  0.00  0.00    +0.027 A 
ATOM     31  C   UNL     1       1.103   1.950   0.570  0.00  0.00    +0.051 A 
ATOM     32  C   UNL     1      -0.016   1.390  -0.029  0.00  0.00    +0.162 A 
ATOM     33  C   UNL     1       0.074   0.146  -0.642  0.00  0.00    +0.164 A 
ATOM     34  C   UNL     1       1.282  -0.535  -0.649  0.00  0.00    +0.072 A 
ATOM     35  O   UNL     1      -1.011  -0.415  -1.243  0.00  0.00    -0.485 OA
ATOM     36  C   UNL     1      -2.291   0.122  -0.893  0.00  0.00    +0.270 C 
ATOM     37  C   UNL     1      -2.198   1.653  -0.940  0.00  0.00    +0.270 C 
ATOM     38  O   UNL     1      -1.197   2.069  -0.004  0.00  0.00    -0.485 OA
ENDBRANCH  27  29
ENDBRANCH  10  25
TORSDOF 3
