REMARK  Name = ZINC39923351
REMARK  4 active torsions:
REMARK  status: ('A' for Active; 'I' for Inactive)
REMARK    1  A    between atoms: C_7  and  C_10
REMARK    2  A    between atoms: N_14  and  N_18
REMARK    3  A    between atoms: C_19  and  C_21
REMARK    4  A    between atoms: C_26  and  O_27
REMARK                            x       y       z     vdW  Elec       q    Type
REMARK                         _______ _______ _______ _____ _____    ______ ____
ROOT
ATOM      1  C   UNL     1       0.682  -3.126  -0.022  0.00  0.00    +0.026 C 
ATOM      2  C   UNL     1       1.173  -4.416  -0.034  0.00  0.00    +0.078 C 
ATOM      3  C   UNL     1       0.440  -5.708  -0.041  0.00  0.00    +0.275 C 
ATOM      4  O   UNL     1      -0.775  -5.756  -0.035  0.00  0.00    -0.267 OA
ATOM      5  N   UNL     1       1.180  -6.804  -0.053  0.00  0.00    -0.169 N 
ATOM      6  C   UNL     1       2.527  -6.746  -0.059  0.00  0.00    +0.138 C 
ATOM      7  S   UNL     1       3.645  -8.042  -0.075  0.00  0.00    -0.026 S 
ATOM      8  S   UNL     1       2.865  -4.992  -0.055  0.00  0.00    -0.060 S 
ENDROOT
BRANCH   1  15
ATOM      9  C   UNL     1      -0.016   1.353   0.009  0.00  0.00    +0.001 A 
ATOM     10  C   UNL     1       1.164   2.103   0.002  0.00  0.00    +0.002 A 
ATOM     11  C   UNL     1       2.384   1.515  -0.013  0.00  0.00    +0.026 A 
ATOM     12  C   UNL     1       2.485   0.097  -0.022  0.00  0.00    +0.043 A 
ATOM     13  N   UNL     1       3.530  -0.701  -0.037  0.00  0.00    -0.380 N 
ATOM     14  C   UNL     1       3.076  -2.095  -0.040  0.00  0.00    +0.149 C 
ATOM     15  C   UNL     1       1.564  -2.043  -0.024  0.00  0.00    -0.018 C 
ATOM     16  C   UNL     1       1.237  -0.688  -0.013  0.00  0.00    +0.003 A 
ATOM     17  C   UNL     1       0.002  -0.004   0.002  0.00  0.00    +0.010 A 
ATOM     18  H   UNL     1       4.456  -0.412  -0.045  0.00  0.00    +0.160 HD
ENDBRANCH   1  15
BRANCH   5  19
ATOM     19  N   UNL     1       0.550  -8.055  -0.060  0.00  0.00    -0.222 N 
ATOM     20  C   UNL     1       0.511  -8.784  -1.193  0.00  0.00    +0.264 C 
ATOM     21  O   UNL     1       1.022  -8.355  -2.209  0.00  0.00    -0.269 OA
ATOM     22  H   UNL     1       0.142  -8.397   0.751  0.00  0.00    +0.174 HD
BRANCH  20  23
ATOM     23  C   UNL     1      -0.153 -10.101  -1.200  0.00  0.00    +0.079 A 
ATOM     24  C   UNL     1      -0.747 -10.595  -0.036  0.00  0.00    +0.017 A 
ATOM     25  C   UNL     1      -1.365 -11.826  -0.049  0.00  0.00    +0.001 A 
ATOM     26  C   UNL     1      -1.401 -12.578  -1.212  0.00  0.00    +0.004 A 
ATOM     27  C   UNL     1      -0.818 -12.102  -2.369  0.00  0.00    +0.046 A 
ATOM     28  C   UNL     1      -0.196 -10.862  -2.376  0.00  0.00    +0.129 A 
BRANCH  28  29
ATOM     29  O   UNL     1       0.372 -10.391  -3.514  0.00  0.00    -0.506 OA
ATOM     30  H   UNL     1       1.300 -10.640  -3.623  0.00  0.00    +0.292 HD
ENDBRANCH  28  29
ENDBRANCH  20  23
ENDBRANCH   5  19
TORSDOF 4
