REMARK  Name = ZINC39992755
REMARK  7 active torsions:
REMARK  status: ('A' for Active; 'I' for Inactive)
REMARK    1  A    between atoms: C_1  and  N_2
REMARK    2  A    between atoms: C_3  and  C_5
REMARK    3  A    between atoms: C_9  and  N_10
REMARK    4  A    between atoms: C_11  and  C_13
REMARK    5  A    between atoms: C_13  and  C_27
REMARK    6  A    between atoms: C_14  and  C_15
REMARK    7  A    between atoms: C_18  and  C_20
REMARK                            x       y       z     vdW  Elec       q    Type
REMARK                         _______ _______ _______ _____ _____    ______ ____
ROOT
ATOM      1  N   UNL     1      -1.158  -2.380  -2.479  0.00  0.00    -0.275 N 
ATOM      2  C   UNL     1      -1.157  -3.229  -3.526  0.00  0.00    +0.259 C 
ATOM      3  O   UNL     1      -1.138  -4.431  -3.335  0.00  0.00    -0.269 OA
ATOM      4  H   UNL     1      -1.173  -1.422  -2.631  0.00  0.00    +0.156 HD
ENDROOT
BRANCH   1   9
ATOM      5  C   UNL     1      -1.136  -2.159   0.001  0.00  0.00    +0.069 A 
ATOM      6  C   UNL     1      -1.119  -2.923   1.237  0.00  0.00    -0.023 A 
ATOM      7  C   UNL     1      -1.102  -4.261   1.059  0.00  0.00    -0.004 A 
ATOM      8  S   UNL     1      -1.108  -4.481  -0.696  0.00  0.00    -0.077 S 
ATOM      9  C   UNL     1      -1.138  -2.876  -1.186  0.00  0.00    +0.085 A 
ATOM     10  C   UNL     1      -1.080  -5.311   2.127  0.00  0.00    +0.043 C 
ATOM     11  C   UNL     1      -0.701  -4.639   3.455  0.00  0.00    +0.005 C 
ATOM     12  C   UNL     1      -1.554  -3.380   3.635  0.00  0.00    +0.005 C 
ATOM     13  C   UNL     1      -1.122  -2.310   2.630  0.00  0.00    +0.037 C 
BRANCH   5  16
ATOM     14  C   UNL     1      -0.018   1.461   0.010  0.00  0.00    +0.128 C 
ATOM     15  N   UNL     1       0.002  -0.004   0.002  0.00  0.00    -0.314 N 
ATOM     16  C   UNL     1      -1.156  -0.694   0.009  0.00  0.00    +0.246 C 
ATOM     17  O   UNL     1      -2.218  -0.100   0.023  0.00  0.00    -0.270 OA
ATOM     18  H   UNL     1       0.849  -0.478  -0.009  0.00  0.00    +0.149 HD
ENDBRANCH   5  16
ENDBRANCH   1   9
BRANCH   2  19
ATOM     19  C   UNL     1      -1.178  -2.704  -4.896  0.00  0.00    +0.117 C 
ATOM     20  C   UNL     1      -1.177  -3.578  -5.974  0.00  0.00    +0.070 C 
BRANCH  20  21
ATOM     21  C   UNL     1      -1.198  -3.076  -7.286  0.00  0.00    +0.130 A 
ATOM     22  C   UNL     1      -1.204  -3.834  -8.448  0.00  0.00    +0.050 A 
ATOM     23  C   UNL     1      -1.226  -2.936  -9.514  0.00  0.00    +0.050 A 
ATOM     24  C   UNL     1      -1.232  -1.667  -8.974  0.00  0.00    +0.136 A 
ATOM     25  O   UNL     1      -1.220  -1.771  -7.634  0.00  0.00    -0.455 OA
BRANCH  24  26
ATOM     26  C   UNL     1      -1.254  -0.406  -9.739  0.00  0.00    +0.018 A 
ATOM     27  C   UNL     1      -1.276  -0.433 -11.136  0.00  0.00    +0.011 A 
ATOM     28  C   UNL     1      -1.297   0.750 -11.846  0.00  0.00    +0.002 A 
ATOM     29  C   UNL     1      -1.294   1.962 -11.177  0.00  0.00    +0.015 A 
ATOM     30  C   UNL     1      -1.272   1.997  -9.793  0.00  0.00    +0.019 A 
ATOM     31  C   UNL     1      -1.258   0.821  -9.071  0.00  0.00    +0.026 A 
ATOM     32 BR   UNL     1      -1.269   3.659  -8.892  0.00  0.00    -0.050 Br
ENDBRANCH  24  26
ENDBRANCH  20  21
BRANCH  19  33
ATOM     33  C   UNL     1      -1.201  -1.290  -5.121  0.00  0.00    +0.104 C 
ATOM     34  N   UNL     1      -1.218  -0.168  -5.299  0.00  0.00    -0.191 NA
ENDBRANCH  19  33
ENDBRANCH   2  19
TORSDOF 6
