REMARK  Name = ZINC38547039
REMARK  8 active torsions:
REMARK  status: ('A' for Active; 'I' for Inactive)
REMARK    1  A    between atoms: C_1  and  C_2
REMARK    2  A    between atoms: N_8  and  C_9
REMARK    3  A    between atoms: C_9  and  C_11
REMARK    4  A    between atoms: C_9  and  C_18
REMARK    5  A    between atoms: C_19  and  C_33
REMARK    6  A    between atoms: C_20  and  C_32
REMARK    7  A    between atoms: C_22  and  N_23
REMARK    8  A    between atoms: C_24  and  C_26
REMARK                            x       y       z     vdW  Elec       q    Type
REMARK                         _______ _______ _______ _____ _____    ______ ____
ROOT
ATOM      1  C   UNL     1       0.068  -2.144   3.631  0.00  0.00    +0.135 C 
ENDROOT
BRANCH   1   9
ATOM      2  C   UNL     1       0.958   1.071  -0.259  0.00  0.00    +0.044 C 
ATOM      3  C   UNL     1       0.773  -0.419  -0.128  0.00  0.00    -0.046 A 
ATOM      4  C   UNL     1       0.833  -1.243  -1.245  0.00  0.00    +0.021 A 
ATOM      5  C   UNL     1       0.660  -2.604  -1.091  0.00  0.00    +0.084 A 
ATOM      6  N   UNL     1       0.440  -3.127   0.100  0.00  0.00    -0.350 N 
ATOM      7  C   UNL     1       0.375  -2.376   1.188  0.00  0.00    +0.097 A 
ATOM      8  C   UNL     1       0.546  -0.997   1.107  0.00  0.00    +0.045 A 
ATOM      9  N   UNL     1       0.141  -2.970   2.423  0.00  0.00    -0.320 N 
ATOM     10  H   UNL     1       0.025  -3.931   2.485  0.00  0.00    +0.148 HD
ATOM     11  H   UNL     1       0.321  -4.087   0.181  0.00  0.00    +0.166 HD
ENDBRANCH   1   9
BRANCH   1  12
ATOM     12  C   UNL     1       1.462  -1.780   4.075  0.00  0.00    -0.023 A 
ATOM     13  C   UNL     1       2.513  -2.642   3.825  0.00  0.00    +0.008 A 
ATOM     14  C   UNL     1       3.792  -2.310   4.231  0.00  0.00    +0.038 A 
ATOM     15  C   UNL     1       4.019  -1.113   4.890  0.00  0.00    +0.123 A 
ATOM     16  C   UNL     1       2.965  -0.251   5.140  0.00  0.00    +0.038 A 
ATOM     17  C   UNL     1       1.688  -0.583   4.728  0.00  0.00    +0.008 A 
ATOM     18  F   UNL     1       5.268  -0.787   5.288  0.00  0.00    -0.205 F 
ENDBRANCH   1  12
BRANCH   1  19
ATOM     19  C   UNL     1      -0.623  -2.915   4.726  0.00  0.00    +0.009 A 
ATOM     20  C   UNL     1      -1.616  -2.323   5.484  0.00  0.00    -0.033 A 
ATOM     21  C   UNL     1      -2.217  -3.045   6.461  0.00  0.00    -0.008 A 
ATOM     22  S   UNL     1      -1.378  -4.615   6.334  0.00  0.00    -0.078 S 
ATOM     23  C   UNL     1      -0.284  -4.210   4.983  0.00  0.00    +0.078 A 
ATOM     24  C   UNL     1      -3.312  -2.629   7.409  0.00  0.00    +0.052 C 
ATOM     25  C   UNL     1      -2.025  -0.895   5.228  0.00  0.00    +0.045 C 
BRANCH  23  26
ATOM     26  N   UNL     1       0.672  -5.010   4.354  0.00  0.00    -0.276 N 
ATOM     27  C   UNL     1       0.937  -6.243   4.830  0.00  0.00    +0.249 C 
ATOM     28  O   UNL     1       0.344  -6.658   5.807  0.00  0.00    -0.270 OA
ATOM     29  H   UNL     1       1.145  -4.679   3.575  0.00  0.00    +0.156 HD
BRANCH  27  30
ATOM     30  C   UNL     1       1.949  -7.090   4.165  0.00  0.00    +0.037 A 
ATOM     31  C   UNL     1       2.636  -6.614   3.047  0.00  0.00    +0.013 A 
ATOM     32  C   UNL     1       3.579  -7.410   2.431  0.00  0.00    +0.001 A 
ATOM     33  C   UNL     1       3.846  -8.677   2.919  0.00  0.00    +0.000 A 
ATOM     34  C   UNL     1       3.168  -9.155   4.027  0.00  0.00    +0.001 A 
ATOM     35  C   UNL     1       2.226  -8.367   4.655  0.00  0.00    +0.013 A 
ENDBRANCH  27  30
ENDBRANCH  23  26
ENDBRANCH   1  19
TORSDOF 5
