REMARK  Name = ZINC08271826
REMARK  6 active torsions:
REMARK  status: ('A' for Active; 'I' for Inactive)
REMARK    1  A    between atoms: C_1  and  C_2
REMARK    2  A    between atoms: C_2  and  C_4
REMARK    3  A    between atoms: C_2  and  O_19
REMARK    4  A    between atoms: N_6  and  N_7
REMARK    5  A    between atoms: C_8  and  C_10
REMARK    6  A    between atoms: O_19  and  C_20
REMARK                            x       y       z     vdW  Elec       q    Type
REMARK                         _______ _______ _______ _____ _____    ______ ____
ROOT
ATOM      1  C   UNL     1       7.020  -3.183   4.022  0.00  0.00    +0.270 C 
ATOM      2  O   UNL     1       6.417  -4.227   3.887  0.00  0.00    -0.270 OA
ATOM      3  N   UNL     1       6.457  -2.024   3.627  0.00  0.00    -0.231 N 
ATOM      4  H   UNL     1       6.939  -1.190   3.734  0.00  0.00    +0.173 HD
ENDROOT
BRANCH   3   5
ATOM      5  N   UNL     1       5.176  -2.025   3.061  0.00  0.00    -0.230 N 
ATOM      6  C   UNL     1       4.613  -0.866   2.665  0.00  0.00    +0.260 C 
ATOM      7  O   UNL     1       5.217   0.180   2.800  0.00  0.00    -0.269 OA
ATOM      8  H   UNL     1       4.693  -2.860   2.953  0.00  0.00    +0.173 HD
BRANCH   6   9
ATOM      9  C   UNL     1       3.263  -0.867   2.069  0.00  0.00    +0.042 A 
ATOM     10  C   UNL     1       2.566  -2.068   1.913  0.00  0.00    +0.017 A 
ATOM     11  C   UNL     1       1.306  -2.067   1.357  0.00  0.00    +0.050 A 
ATOM     12  C   UNL     1       0.723  -0.874   0.949  0.00  0.00    +0.166 A 
ATOM     13  C   UNL     1       1.413   0.329   1.102  0.00  0.00    +0.167 A 
ATOM     14  C   UNL     1       2.677   0.334   1.659  0.00  0.00    +0.062 A 
ATOM     15  O   UNL     1       0.631   1.343   0.628  0.00  0.00    -0.453 OA
ATOM     16  C   UNL     1      -0.701   0.801   0.563  0.00  0.00    +0.466 C 
ATOM     17  O   UNL     1      -0.488  -0.611   0.380  0.00  0.00    -0.453 OA
ENDBRANCH   6   9
ENDBRANCH   3   5
BRANCH   1  19
ATOM     18  C   UNL     1       9.418  -2.727   3.585  0.00  0.00    +0.062 C 
ATOM     19  C   UNL     1       8.398  -3.183   4.631  0.00  0.00    +0.257 C 
BRANCH  19  20
ATOM     20  O   UNL     1       8.725  -4.502   5.071  0.00  0.00    -0.480 OA
BRANCH  20  21
ATOM     21  C   UNL     1       9.641  -4.610   6.070  0.00  0.00    +0.122 A 
ATOM     22  C   UNL     1       9.918  -5.850   6.627  0.00  0.00    +0.047 A 
ATOM     23  C   UNL     1      10.853  -5.958   7.638  0.00  0.00    +0.019 A 
ATOM     24  C   UNL     1      11.505  -4.830   8.102  0.00  0.00    +0.018 A 
ATOM     25  C   UNL     1      11.226  -3.592   7.551  0.00  0.00    +0.019 A 
ATOM     26  C   UNL     1      10.296  -3.480   6.537  0.00  0.00    +0.047 A 
ATOM     27 BR   UNL     1      12.780  -4.981   9.491  0.00  0.00    -0.050 Br
ENDBRANCH  20  21
ENDBRANCH  19  20
ENDBRANCH   1  19
TORSDOF 5
