REMARK  Name = ZINC25852159
REMARK  4 active torsions:
REMARK  status: ('A' for Active; 'I' for Inactive)
REMARK    1  A    between atoms: C_1  and  C_2
REMARK    2  A    between atoms: C_5  and  C_24
REMARK    3  A    between atoms: C_7  and  N_8
REMARK    4  A    between atoms: C_9  and  C_11
REMARK                            x       y       z     vdW  Elec       q    Type
REMARK                         _______ _______ _______ _____ _____    ______ ____
ROOT
ATOM      1  C   UNL     1      -2.623   1.215   0.144  0.00  0.00    +0.045 C 
ATOM      2  C   UNL     1      -1.310   1.950   0.063  0.00  0.00    -0.029 A 
ATOM      3  C   UNL     1      -0.124   1.240   0.046  0.00  0.00    +0.006 A 
ATOM      4  C   UNL     1       1.083   1.906  -0.035  0.00  0.00    +0.012 A 
ATOM      5  C   UNL     1       1.108   3.300  -0.094  0.00  0.00    +0.021 A 
ATOM      6  C   UNL     1      -0.088   4.016  -0.071  0.00  0.00    +0.035 A 
ATOM      7  C   UNL     1      -1.295   3.338   0.010  0.00  0.00    +0.037 A 
ENDROOT
BRANCH   5   8
ATOM      8  C   UNL     1       2.400   4.016  -0.181  0.00  0.00    +0.164 A 
ATOM      9  N   UNL     1       2.585   5.253  -0.591  0.00  0.00    -0.129 NA
ATOM     10  N   UNL     1       3.837   5.548  -0.527  0.00  0.00    -0.134 NA
ATOM     11  C   UNL     1       4.512   4.529  -0.075  0.00  0.00    +0.134 A 
ATOM     12  N   UNL     1       3.627   3.523   0.155  0.00  0.00    -0.311 N 
ATOM     13  C   UNL     1       3.943   2.177   0.632  0.00  0.00    +0.125 C 
ATOM     14  C   UNL     1       5.208   2.232   1.493  0.00  0.00    +0.022 C 
ATOM     15  C   UNL     1       6.441   2.038   0.611  0.00  0.00    +0.002 C 
ATOM     16  C   UNL     1       6.539   3.154  -0.424  0.00  0.00    +0.008 C 
ATOM     17  C   UNL     1       5.997   4.457   0.170  0.00  0.00    +0.076 C 
ENDBRANCH   5   8
BRANCH   7  18
ATOM     18  N   UNL     1      -2.498   4.052   0.033  0.00  0.00    -0.285 N 
ATOM     19  C   UNL     1      -2.614   5.200  -0.664  0.00  0.00    +0.225 C 
ATOM     20  O   UNL     1      -1.714   5.561  -1.393  0.00  0.00    -0.275 OA
ATOM     21  H   UNL     1      -3.350   3.677   0.620  0.00  0.00    +0.155 HD
BRANCH  19  22
ATOM     22  C   UNL     1      -3.862   6.035  -0.539  0.00  0.00    +0.116 C 
ATOM     23  C   UNL     1      -5.073   5.211  -0.979  0.00  0.00    +0.113 C 
ATOM     24  C   UNL     1      -5.046   5.016  -2.471  0.00  0.00    +0.218 C 
ATOM     25  O   UNL     1      -5.445   3.974  -2.946  0.00  0.00    -0.275 OA
ATOM     26  N   UNL     1      -4.584   5.984  -3.283  0.00  0.00    -0.285 N 
ATOM     27  C   UNL     1      -4.104   7.185  -2.753  0.00  0.00    +0.040 A 
ATOM     28  C   UNL     1      -3.740   7.255  -1.414  0.00  0.00    -0.014 A 
ATOM     29  C   UNL     1      -3.267   8.441  -0.888  0.00  0.00    +0.009 A 
ATOM     30  C   UNL     1      -3.156   9.560  -1.693  0.00  0.00    +0.039 A 
ATOM     31  C   UNL     1      -3.518   9.495  -3.029  0.00  0.00    +0.125 A 
ATOM     32  C   UNL     1      -3.992   8.309  -3.560  0.00  0.00    +0.062 A 
ATOM     33  F   UNL     1      -3.408  10.589  -3.812  0.00  0.00    -0.205 F 
ATOM     34  H   UNL     1      -4.582   5.833  -4.373  0.00  0.00    +0.155 HD
ENDBRANCH  19  22
ENDBRANCH   7  18
TORSDOF 3
