REMARK  Name = ZINC10042106
REMARK  12 active torsions:
REMARK  status: ('A' for Active; 'I' for Inactive)
REMARK    1  A    between atoms: C_1  and  C_2
REMARK    2  A    between atoms: C_5  and  C_8
REMARK    3  A    between atoms: N_10  and  C_11
REMARK    4  A    between atoms: C_11  and  C_13
REMARK    5  A    between atoms: C_11  and  C_16
REMARK    6  A    between atoms: C_13  and  C_14
REMARK    7  A    between atoms: C_13  and  C_15
REMARK    8  A    between atoms: N_18  and  N_19
REMARK    9  A    between atoms: C_20  and  C_21
REMARK   10  A    between atoms: C_23  and  O_29
REMARK   11  A    between atoms: C_24  and  O_28
REMARK   12  A    between atoms: O_29  and  C_30
REMARK                            x       y       z     vdW  Elec       q    Type
REMARK                         _______ _______ _______ _____ _____    ______ ____
ROOT
ATOM      1  C   UNL     1      -1.332  -1.833  -0.810  0.00  0.00    +0.253 C 
ATOM      2  O   UNL     1      -0.244  -2.235  -1.163  0.00  0.00    -0.272 OA
ATOM      3  N   UNL     1      -2.447  -2.500  -1.170  0.00  0.00    -0.205 N 
ATOM      4  H   UNL     1      -3.320  -2.139  -0.949  0.00  0.00    +0.177 HD
ENDROOT
BRANCH   3   5
ATOM      5  N   UNL     1      -2.344  -3.713  -1.863  0.00  0.00    -0.188 NA
ATOM      6  C   UNL     1      -3.418  -4.355  -2.210  0.00  0.00    +0.138 C 
BRANCH   6   7
ATOM      7  C   UNL     1      -3.310  -5.631  -2.939  0.00  0.00    -0.001 A 
ATOM      8  C   UNL     1      -4.464  -6.327  -3.308  0.00  0.00    +0.059 A 
ATOM      9  C   UNL     1      -4.358  -7.521  -3.996  0.00  0.00    +0.163 A 
ATOM     10  C   UNL     1      -3.101  -8.035  -4.311  0.00  0.00    +0.173 A 
ATOM     11  C   UNL     1      -1.954  -7.347  -3.940  0.00  0.00    +0.063 A 
ATOM     12  C   UNL     1      -2.053  -6.152  -3.258  0.00  0.00    +0.028 A 
ATOM     13 BR   UNL     1      -0.253  -8.050  -4.371  0.00  0.00    -0.046 Br
BRANCH  10  14
ATOM     14  O   UNL     1      -2.999  -9.212  -4.983  0.00  0.00    -0.503 OA
ATOM     15  H   UNL     1      -2.956  -9.989  -4.410  0.00  0.00    +0.292 HD
ENDBRANCH  10  14
BRANCH   9  16
ATOM     16  O   UNL     1      -5.480  -8.197  -4.361  0.00  0.00    -0.491 OA
ATOM     17  C   UNL     1      -6.734  -7.613  -4.006  0.00  0.00    +0.277 C 
ENDBRANCH   9  16
ENDBRANCH   6   7
ENDBRANCH   3   5
BRANCH   1  18
ATOM     18  C   UNL     1      -1.438  -0.587   0.032  0.00  0.00    +0.163 C 
BRANCH  18  21
ATOM     19  C   UNL     1      -0.377   1.606  -0.018  0.00  0.00    +0.245 C 
ATOM     20  O   UNL     1      -1.419   2.086   0.385  0.00  0.00    -0.270 OA
ATOM     21  N   UNL     1      -0.285   0.278  -0.229  0.00  0.00    -0.300 N 
ATOM     22  H   UNL     1       0.545  -0.105  -0.554  0.00  0.00    +0.150 HD
BRANCH  19  27
ATOM     23  C   UNL     1       4.153   5.004  -1.040  0.00  0.00    +0.044 C 
ATOM     24  C   UNL     1       2.966   4.114  -0.772  0.00  0.00    -0.050 A 
ATOM     25  C   UNL     1       1.784   4.663  -0.310  0.00  0.00    +0.004 A 
ATOM     26  C   UNL     1       0.694   3.854  -0.063  0.00  0.00    +0.013 A 
ATOM     27  C   UNL     1       0.786   2.479  -0.281  0.00  0.00    +0.037 A 
ATOM     28  C   UNL     1       1.984   1.930  -0.743  0.00  0.00    +0.013 A 
ATOM     29  C   UNL     1       3.064   2.751  -0.991  0.00  0.00    +0.004 A 
ENDBRANCH  19  27
ENDBRANCH  18  21
BRANCH  18  30
ATOM     30  C   UNL     1      -1.462  -0.973   1.512  0.00  0.00    +0.012 C 
ATOM     31  C   UNL     1      -1.621   0.287   2.365  0.00  0.00    +0.009 C 
ATOM     32  C   UNL     1      -2.636  -1.918   1.774  0.00  0.00    +0.009 C 
ENDBRANCH  18  30
ENDBRANCH   1  18
TORSDOF 8
