REMARK  Name = ZINC50305476
REMARK  4 active torsions:
REMARK  status: ('A' for Active; 'I' for Inactive)
REMARK    1  A    between atoms: C_1  and  C_2
REMARK    2  A    between atoms: C_3  and  N_22
REMARK    3  A    between atoms: C_4  and  C_8
REMARK    4  A    between atoms: N_10  and  C_11
REMARK                            x       y       z     vdW  Elec       q    Type
REMARK                         _______ _______ _______ _____ _____    ______ ____
ROOT
ATOM      1  C   UNL     1       0.041  -3.372  -1.392  0.00  0.00    +0.270 C 
ATOM      2  O   UNL     1       0.025  -3.313  -2.607  0.00  0.00    -0.268 OA
ATOM      3  N   UNL     1       0.062  -4.571  -0.776  0.00  0.00    -0.280 N 
ATOM      4  H   UNL     1       0.142  -4.619   0.189  0.00  0.00    +0.155 HD
ENDROOT
BRANCH   3   5
ATOM      5  C   UNL     1      -0.031  -5.747  -1.530  0.00  0.00    +0.037 A 
ATOM      6  C   UNL     1       0.560  -5.816  -2.785  0.00  0.00    +0.027 A 
ATOM      7  C   UNL     1       0.469  -6.976  -3.530  0.00  0.00    +0.051 A 
ATOM      8  C   UNL     1      -0.212  -8.073  -3.028  0.00  0.00    +0.173 A 
ATOM      9  C   UNL     1      -0.806  -8.007  -1.770  0.00  0.00    +0.174 A 
ATOM     10  C   UNL     1      -0.709  -6.846  -1.021  0.00  0.00    +0.073 A 
ATOM     11  O   UNL     1      -1.409  -9.204  -1.508  0.00  0.00    -0.395 OA
ATOM     12  C   UNL     1      -1.528  -9.861  -2.783  0.00  0.00    +0.589 C 
ATOM     13  O   UNL     1      -0.443  -9.313  -3.554  0.00  0.00    -0.395 OA
ATOM     14  F   UNL     1      -1.378 -11.245  -2.639  0.00  0.00    -0.125 F 
ATOM     15  F   UNL     1      -2.757  -9.558  -3.379  0.00  0.00    -0.125 F 
ENDBRANCH   3   5
BRANCH   1  19
ATOM     16  C   UNL     1       0.001   1.503   0.011  0.00  0.00    +0.067 C 
ATOM     17  C   UNL     1       0.018  -0.004   0.002  0.00  0.00    +0.054 A 
ATOM     18  C   UNL     1       0.014  -0.806  -1.095  0.00  0.00    +0.078 A 
ATOM     19  C   UNL     1       0.036  -2.133  -0.593  0.00  0.00    +0.168 A 
ATOM     20  N   UNL     1       0.050  -2.049   0.724  0.00  0.00    -0.167 NA
ATOM     21  N   UNL     1       0.045  -0.818   1.090  0.00  0.00    -0.279 N 
ATOM     22  H   UNL     1       0.057  -0.513   2.011  0.00  0.00    +0.189 HD
BRANCH  18  23
ATOM     23  N   UNL     1      -0.007  -0.406  -2.440  0.00  0.00    -0.355 N 
ATOM     24  H   UNL     1      -0.021   0.537  -2.665  0.00  0.00    +0.142 HD
ATOM     25  H   UNL     1      -0.007  -1.073  -3.144  0.00  0.00    +0.142 HD
ENDBRANCH  18  23
ENDBRANCH   1  19
TORSDOF 3
