REMARK  Name = ZINC17958529
REMARK  8 active torsions:
REMARK  status: ('A' for Active; 'I' for Inactive)
REMARK    1  A    between atoms: C_1  and  C_2
REMARK    2  A    between atoms: C_2  and  C_3
REMARK    3  A    between atoms: N_11  and  C_15
REMARK    4  A    between atoms: C_15  and  C_16
REMARK    5  A    between atoms: N_18  and  C_19
REMARK    6  A    between atoms: C_19  and  C_20
REMARK    7  A    between atoms: N_22  and  C_23
REMARK    8  A    between atoms: C_28  and  C_29
REMARK                            x       y       z     vdW  Elec       q    Type
REMARK                         _______ _______ _______ _____ _____    ______ ____
ROOT
ATOM      1  C   UNL     1      -0.014   1.208  -0.018  0.00  0.00    +0.231 C 
ATOM      2  O   UNL     1       0.002  -0.005  -0.032  0.00  0.00    -0.274 OA
ATOM      3  N   UNL     1       1.143   1.898  -0.015  0.00  0.00    -0.305 N 
ATOM      4  H   UNL     1       1.130   2.868  -0.004  0.00  0.00    +0.149 HD
ENDROOT
BRANCH   1   5
ATOM      5  C   UNL     1      -1.330   1.943  -0.009  0.00  0.00    +0.213 C 
BRANCH   5  14
ATOM      6  C   UNL     1      -5.235  -1.527   3.057  0.00  0.00    -0.011 C 
ATOM      7  C   UNL     1      -3.849  -1.967   2.583  0.00  0.00    +0.006 C 
ATOM      8  C   UNL     1      -3.789  -1.902   1.054  0.00  0.00    +0.035 C 
ATOM      9  C   UNL     1      -4.075  -0.477   0.593  0.00  0.00    +0.113 C 
ATOM     10  C   UNL     1      -5.446  -0.018   1.077  0.00  0.00    +0.035 C 
ATOM     11  C   UNL     1      -5.500  -0.089   2.605  0.00  0.00    +0.006 C 
ATOM     12  C   UNL     1      -3.000   0.462   1.089  0.00  0.00    +0.247 C 
ATOM     13  O   UNL     1      -2.710   0.703   2.242  0.00  0.00    -0.273 OA
ATOM     14  N   UNL     1      -2.430   0.976  -0.021  0.00  0.00    -0.215 N 
ATOM     15  C   UNL     1      -2.999   0.497  -1.134  0.00  0.00    +0.310 C 
ATOM     16  O   UNL     1      -2.661   0.816  -2.257  0.00  0.00    -0.252 OA
ATOM     17  N   UNL     1      -3.985  -0.381  -0.869  0.00  0.00    -0.285 N 
ATOM     18  H   UNL     1      -4.532  -0.854  -1.517  0.00  0.00    +0.151 HD
BRANCH   6  20
ATOM     19  C   UNL     1      -6.721  -1.283   5.051  0.00  0.00    +0.004 C 
ATOM     20  C   UNL     1      -5.299  -1.602   4.584  0.00  0.00    -0.000 C 
ENDBRANCH   6  20
ENDBRANCH   5  14
ENDBRANCH   1   5
BRANCH   3  21
ATOM     21  C   UNL     1       2.422   1.183  -0.030  0.00  0.00    +0.200 C 
BRANCH  21  22
ATOM     22  C   UNL     1       3.554   2.178  -0.023  0.00  0.00    +0.234 C 
ATOM     23  O   UNL     1       3.316   3.367  -0.008  0.00  0.00    -0.274 OA
ATOM     24  N   UNL     1       4.831   1.746  -0.035  0.00  0.00    -0.284 N 
ATOM     25  H   UNL     1       5.023   0.798   0.034  0.00  0.00    +0.155 HD
BRANCH  24  26
ATOM     26  C   UNL     1       5.880   2.666  -0.145  0.00  0.00    +0.036 A 
ATOM     27  C   UNL     1       5.662   3.901  -0.743  0.00  0.00    +0.024 A 
ATOM     28  C   UNL     1       6.698   4.807  -0.850  0.00  0.00    +0.017 A 
ATOM     29  C   UNL     1       7.953   4.486  -0.363  0.00  0.00    +0.018 A 
ATOM     30  C   UNL     1       8.173   3.256   0.232  0.00  0.00    +0.020 A 
ATOM     31  C   UNL     1       7.138   2.348   0.347  0.00  0.00    -0.028 A 
ATOM     32  C   UNL     1       7.377   1.012   1.001  0.00  0.00    +0.046 C 
ATOM     33 BR   UNL     1       9.370   5.729  -0.512  0.00  0.00    -0.050 Br
ENDBRANCH  24  26
ENDBRANCH  21  22
ENDBRANCH   3  21
TORSDOF 6
