REMARK  Name = ZINC56527888
REMARK  2 active torsions:
REMARK  status: ('A' for Active; 'I' for Inactive)
REMARK    1  A    between atoms: C_3  and  N_8
REMARK    2  A    between atoms: C_9  and  C_11
REMARK                            x       y       z     vdW  Elec       q    Type
REMARK                         _______ _______ _______ _____ _____    ______ ____
ROOT
ATOM      1  C   UNL     1       4.952   4.060  -0.235  0.00  0.00    +0.093 C 
ATOM      2  C   UNL     1       4.709   5.569  -0.327  0.00  0.00    +0.016 C 
ATOM      3  C   UNL     1       6.050   6.299  -0.420  0.00  0.00    +0.020 C 
ATOM      4  C   UNL     1       6.785   5.850  -1.687  0.00  0.00    +0.109 C 
ATOM      5  N   UNL     1       6.894   4.385  -1.676  0.00  0.00    -0.285 N 
ATOM      6  C   UNL     1       5.674   3.585  -1.500  0.00  0.00    +0.122 C 
ATOM      7  C   UNL     1       8.092   3.784  -1.824  0.00  0.00    +0.308 C 
ATOM      8  O   UNL     1       8.159   2.573  -1.905  0.00  0.00    -0.252 OA
ATOM      9  N   UNL     1       9.215   4.527  -1.883  0.00  0.00    -0.247 N 
ATOM     10  C   UNL     1      10.459   3.905  -1.929  0.00  0.00    +0.189 A 
ATOM     11  N   UNL     1      10.745   2.618  -1.931  0.00  0.00    -0.126 NA
ATOM     12  N   UNL     1      11.936   2.200  -1.977  0.00  0.00    -0.148 NA
ATOM     13  C   UNL     1      12.922   3.073  -2.025  0.00  0.00    +0.183 A 
ATOM     14  S   UNL     1      11.993   4.600  -2.005  0.00  0.00    -0.039 S 
ATOM     15  H   UNL     1       9.157   5.495  -1.893  0.00  0.00    +0.158 HD
ENDROOT
BRANCH   1  17
ATOM     16  N   UNL     1       3.600   2.001  -0.018  0.00  0.00    -0.270 N 
ATOM     17  C   UNL     1       3.631   3.345  -0.112  0.00  0.00    +0.223 C 
ATOM     18  O   UNL     1       2.597   3.978  -0.097  0.00  0.00    -0.275 OA
ATOM     19  H   UNL     1       4.428   1.499   0.044  0.00  0.00    +0.156 HD
BRANCH  16  22
ATOM     20  C   UNL     1       1.132  -0.712  -0.010  0.00  0.00    +0.025 A 
ATOM     21  C   UNL     1       2.353  -0.059  -0.019  0.00  0.00    +0.045 A 
ATOM     22  C   UNL     1       2.377   1.331  -0.009  0.00  0.00    +0.125 A 
ATOM     23  N   UNL     1       1.250   2.025   0.007  0.00  0.00    -0.239 NA
ATOM     24  C   UNL     1       0.071   1.431   0.016  0.00  0.00    +0.132 A 
ATOM     25  C   UNL     1      -0.027   0.052   0.008  0.00  0.00    +0.059 A 
ATOM     26 CL   UNL     1      -1.584  -0.716   0.019  0.00  0.00    -0.082 Cl
ENDBRANCH  16  22
ENDBRANCH   1  17
TORSDOF 2
