REMARK  Name = ZINC38596951
REMARK  12 active torsions:
REMARK  status: ('A' for Active; 'I' for Inactive)
REMARK    1  A    between atoms: C_1  and  C_2
REMARK    2  A    between atoms: C_2  and  O_3
REMARK    3  A    between atoms: O_3  and  C_4
REMARK    4  A    between atoms: C_9  and  N_10
REMARK    5  A    between atoms: C_11  and  C_13
REMARK    6  A    between atoms: N_15  and  C_16
REMARK    7  A    between atoms: C_16  and  C_18
REMARK    8  A    between atoms: C_16  and  C_19
REMARK    9  A    between atoms: C_19  and  C_21
REMARK   10  A    between atoms: C_19  and  N_26
REMARK   11  A    between atoms: N_29  and  C_32
REMARK   12  A    between atoms: C_32  and  C_33
REMARK                            x       y       z     vdW  Elec       q    Type
REMARK                         _______ _______ _______ _____ _____    ______ ____
ROOT
ATOM      1  C   UNL     1       5.446  -1.692   7.844  0.00  0.00    +0.113 C 
ENDROOT
BRANCH   1   2
ATOM      2  N   UNL     1       6.118  -0.847   8.840  0.00  0.00    -0.297 NA
ATOM      3  C   UNL     1       5.181  -0.426   9.892  0.00  0.00    +0.066 C 
ATOM      4  C   UNL     1       5.903   0.499  10.874  0.00  0.00    -0.063 C 
ATOM      5  N   UNL     1       7.045  -0.211  11.466  0.00  0.00    +0.384 N 
ATOM      6  C   UNL     1       7.983  -0.603  10.406  0.00  0.00    -0.063 C 
ATOM      7  C   UNL     1       7.278  -1.537   9.420  0.00  0.00    +0.066 C 
ATOM      8  H   UNL     1       6.716  -1.036  11.945  0.00  0.00    -0.081 HD
BRANCH   5   9
ATOM      9  C   UNL     1       7.727   0.671  12.422  0.00  0.00    -0.043 C 
BRANCH   9  10
ATOM     10  C   UNL     1       8.822  -0.095  13.120  0.00  0.00    -0.064 A 
ATOM     11  C   UNL     1       8.549  -0.778  14.290  0.00  0.00    +0.002 A 
ATOM     12  C   UNL     1       9.553  -1.480  14.930  0.00  0.00    +0.000 A 
ATOM     13  C   UNL     1      10.830  -1.500  14.399  0.00  0.00    +0.000 A 
ATOM     14  C   UNL     1      11.102  -0.817  13.228  0.00  0.00    +0.000 A 
ATOM     15  C   UNL     1      10.097  -0.118  12.586  0.00  0.00    +0.002 A 
ENDBRANCH   9  10
ENDBRANCH   5   9
ENDBRANCH   1   2
BRANCH   1  16
ATOM     16  C   UNL     1       6.442  -2.126   6.800  0.00  0.00    +0.009 A 
ATOM     17  C   UNL     1       6.569  -3.329   6.189  0.00  0.00    +0.013 A 
ATOM     18  C   UNL     1       7.568  -3.502   5.249  0.00  0.00    +0.008 A 
ATOM     19  C   UNL     1       8.391  -2.462   4.966  0.00  0.00    +0.045 A 
ATOM     20  S   UNL     1       7.755  -1.185   6.039  0.00  0.00    -0.100 S 
ENDBRANCH   1  16
BRANCH   1  21
ATOM     21  C   UNL     1       4.320  -0.899   7.178  0.00  0.00    +0.092 C 
ATOM     22  C   UNL     1       3.624  -1.778   6.137  0.00  0.00    +0.030 C 
BRANCH  21  25
ATOM     23  C   UNL     1       4.106   1.369   6.313  0.00  0.00    +0.300 C 
ATOM     24  O   UNL     1       2.946   1.364   6.669  0.00  0.00    -0.265 OA
ATOM     25  N   UNL     1       4.880   0.285   6.521  0.00  0.00    -0.303 N 
ATOM     26  H   UNL     1       5.807   0.289   6.237  0.00  0.00    +0.149 HD
BRANCH  23  28
ATOM     27  N   UNL     1       3.902   3.659   5.435  0.00  0.00    -0.275 N 
ATOM     28  C   UNL     1       4.676   2.576   5.644  0.00  0.00    +0.303 C 
ATOM     29  O   UNL     1       5.837   2.581   5.287  0.00  0.00    -0.265 OA
ATOM     30  H   UNL     1       2.995   3.680   5.776  0.00  0.00    +0.155 HD
BRANCH  27  36
ATOM     31  C   UNL     1       3.571   5.497   3.897  0.00  0.00    +0.142 A 
ATOM     32  C   UNL     1       4.078   6.584   3.202  0.00  0.00    +0.047 A 
ATOM     33  C   UNL     1       5.411   6.927   3.330  0.00  0.00    +0.004 A 
ATOM     34  C   UNL     1       6.244   6.187   4.150  0.00  0.00    +0.002 A 
ATOM     35  C   UNL     1       5.747   5.101   4.846  0.00  0.00    +0.027 A 
ATOM     36  C   UNL     1       4.409   4.755   4.727  0.00  0.00    +0.076 A 
BRANCH  31  37
ATOM     37  O   UNL     1       2.260   5.160   3.773  0.00  0.00    -0.490 OA
BRANCH  37  39
ATOM     38  C   UNL     1       0.027   5.437   2.893  0.00  0.00    +0.048 C 
ATOM     39  C   UNL     1       1.462   5.966   2.904  0.00  0.00    +0.226 C 
ENDBRANCH  37  39
ENDBRANCH  31  37
ENDBRANCH  27  36
ENDBRANCH  23  28
ENDBRANCH  21  25
ENDBRANCH   1  21
TORSDOF 10
