REMARK  Name = ZINC16643927
REMARK  9 active torsions:
REMARK  status: ('A' for Active; 'I' for Inactive)
REMARK    1  A    between atoms: C_1  and  C_2
REMARK    2  A    between atoms: C_5  and  S_8
REMARK    3  A    between atoms: S_8  and  N_11
REMARK    4  A    between atoms: N_11  and  C_12
REMARK    5  A    between atoms: N_11  and  C_13
REMARK    6  A    between atoms: C_16  and  C_19
REMARK    7  A    between atoms: N_21  and  C_22
REMARK    8  A    between atoms: C_26  and  N_28
REMARK    9  A    between atoms: C_29  and  C_31
REMARK                            x       y       z     vdW  Elec       q    Type
REMARK                         _______ _______ _______ _____ _____    ______ ____
ROOT
ATOM      1  C   UNL     1       0.022  -3.044  -0.158  0.00  0.00    +0.051 A 
ATOM      2  C   UNL     1      -1.334  -2.746  -0.064  0.00  0.00    +0.025 A 
ATOM      3  C   UNL     1      -1.745  -1.440   0.077  0.00  0.00    +0.015 A 
ATOM      4  C   UNL     1      -0.798  -0.412   0.126  0.00  0.00    +0.037 A 
ATOM      5  C   UNL     1       0.563  -0.715   0.025  0.00  0.00    +0.015 A 
ATOM      6  C   UNL     1       0.967  -2.023  -0.110  0.00  0.00    +0.025 A 
ENDROOT
BRANCH   4   7
ATOM      7  C   UNL     1      -1.235   0.988   0.278  0.00  0.00    +0.248 C 
ATOM      8  O   UNL     1      -2.420   1.251   0.355  0.00  0.00    -0.270 OA
ATOM      9  N   UNL     1      -0.322   1.978   0.325  0.00  0.00    -0.281 N 
ATOM     10  H   UNL     1       0.625   1.764   0.336  0.00  0.00    +0.155 HD
BRANCH   9  11
ATOM     11  C   UNL     1      -0.737   3.313   0.356  0.00  0.00    +0.035 A 
ATOM     12  C   UNL     1       0.010   4.258   1.049  0.00  0.00    +0.023 A 
ATOM     13  C   UNL     1      -0.401   5.576   1.081  0.00  0.00    +0.004 A 
ATOM     14  C   UNL     1      -1.554   5.960   0.424  0.00  0.00    +0.023 A 
ATOM     15  C   UNL     1      -2.305   5.020  -0.270  0.00  0.00    +0.035 A 
ATOM     16  C   UNL     1      -1.893   3.696  -0.309  0.00  0.00    +0.046 A 
BRANCH  15  17
ATOM     17  N   UNL     1      -3.474   5.410  -0.934  0.00  0.00    -0.286 N 
ATOM     18  C   UNL     1      -3.558   6.636  -1.486  0.00  0.00    +0.214 C 
ATOM     19  O   UNL     1      -2.589   7.366  -1.493  0.00  0.00    -0.276 OA
ATOM     20  C   UNL     1      -4.856   7.101  -2.095  0.00  0.00    +0.109 C 
ATOM     21  H   UNL     1      -4.223   4.797  -0.997  0.00  0.00    +0.155 HD
ENDBRANCH  15  17
ENDBRANCH   9  11
ENDBRANCH   4   7
BRANCH   1  22
ATOM     22  N   UNL     1       0.434  -4.364  -0.301  0.00  0.00    -0.206 N 
ATOM     23  C   UNL     1      -0.408  -5.453   0.202  0.00  0.00    +0.157 C 
BRANCH  22  24
ATOM     24  S   UNL     1       1.876  -4.707  -1.040  0.00  0.00    +0.074 S 
ATOM     25  O   UNL     1       1.762  -6.023  -1.563  0.00  0.00    -0.150 OA
ATOM     26  O   UNL     1       2.189  -3.587  -1.857  0.00  0.00    -0.150 OA
BRANCH  24  31
ATOM     27  C   UNL     1       6.087  -4.926   3.275  0.00  0.00    +0.044 C 
ATOM     28  C   UNL     1       5.035  -4.871   2.197  0.00  0.00    -0.050 A 
ATOM     29  C   UNL     1       4.248  -5.978   1.943  0.00  0.00    +0.005 A 
ATOM     30  C   UNL     1       3.283  -5.928   0.954  0.00  0.00    +0.029 A 
ATOM     31  C   UNL     1       3.105  -4.771   0.220  0.00  0.00    +0.109 A 
ATOM     32  C   UNL     1       3.896  -3.665   0.471  0.00  0.00    +0.029 A 
ATOM     33  C   UNL     1       4.858  -3.713   1.462  0.00  0.00    +0.005 A 
ENDBRANCH  24  31
ENDBRANCH  22  24
ENDBRANCH   1  22
TORSDOF 6
