REMARK  Name = ZINC01803656
REMARK  11 active torsions:
REMARK  status: ('A' for Active; 'I' for Inactive)
REMARK    1  A    between atoms: C_1  and  C_2
REMARK    2  A    between atoms: C_2  and  O_3
REMARK    3  A    between atoms: O_3  and  C_4
REMARK    4  A    between atoms: C_4  and  C_6
REMARK    5  A    between atoms: C_7  and  C_40
REMARK    6  A    between atoms: C_14  and  C_15
REMARK    7  A    between atoms: C_18  and  C_20
REMARK    8  A    between atoms: C_23  and  C_26
REMARK    9  A    between atoms: C_26  and  O_28
REMARK   10  A    between atoms: O_28  and  C_29
REMARK   11  A    between atoms: C_31  and  C_33
REMARK                            x       y       z     vdW  Elec       q    Type
REMARK                         _______ _______ _______ _____ _____    ______ ____
ROOT
ATOM      1  C   UNL     1      -2.791  -2.429   0.237  0.00  0.00    +0.085 C 
ATOM      2  C   UNL     1      -2.974  -3.745  -0.086  0.00  0.00    +0.053 C 
ATOM      3  N   UNL     1      -4.193  -4.226  -0.291  0.00  0.00    -0.228 NA
ATOM      4  C   UNL     1      -5.296  -3.526  -0.209  0.00  0.00    +0.178 A 
ATOM      5  N   UNL     1      -5.337  -2.187   0.103  0.00  0.00    -0.275 N 
ATOM      6  C   UNL     1      -6.528  -1.576   0.157  0.00  0.00    +0.268 A 
ATOM      7  O   UNL     1      -6.613  -0.392   0.429  0.00  0.00    -0.266 OA
ATOM      8  C   UNL     1      -7.726  -2.374  -0.121  0.00  0.00    +0.084 A 
ATOM      9  C   UNL     1      -9.038  -1.996  -0.132  0.00  0.00    +0.066 C 
ATOM     10  S   UNL     1      -7.005  -3.976  -0.443  0.00  0.00    -0.046 S 
ATOM     11  C   UNL     1      -4.014  -1.550   0.358  0.00  0.00    +0.162 C 
ATOM     12  C   UNL     1      -1.780  -4.656  -0.211  0.00  0.00    +0.066 C 
ENDROOT
BRANCH  11  13
ATOM     13  C   UNL     1      -3.861  -0.406  -0.611  0.00  0.00    -0.020 A 
ATOM     14  C   UNL     1      -4.151  -0.592  -1.949  0.00  0.00    +0.009 A 
ATOM     15  C   UNL     1      -4.011   0.457  -2.839  0.00  0.00    +0.039 A 
ATOM     16  C   UNL     1      -3.580   1.693  -2.389  0.00  0.00    +0.123 A 
ATOM     17  C   UNL     1      -3.289   1.877  -1.047  0.00  0.00    +0.039 A 
ATOM     18  C   UNL     1      -3.435   0.829  -0.159  0.00  0.00    +0.009 A 
ATOM     19  F   UNL     1      -3.442   2.719  -3.257  0.00  0.00    -0.205 F 
ENDBRANCH  11  13
BRANCH   9  20
ATOM     20  C   UNL     1     -10.043  -2.941  -0.430  0.00  0.00    +0.130 A 
ATOM     21  C   UNL     1     -11.403  -2.690  -0.481  0.00  0.00    +0.050 A 
ATOM     22  C   UNL     1     -12.025  -3.897  -0.809  0.00  0.00    +0.050 A 
ATOM     23  C   UNL     1     -11.028  -4.838  -0.947  0.00  0.00    +0.136 A 
ATOM     24  O   UNL     1      -9.843  -4.243  -0.721  0.00  0.00    -0.455 OA
BRANCH  23  25
ATOM     25  C   UNL     1     -11.227  -6.258  -1.290  0.00  0.00    +0.017 A 
ATOM     26  C   UNL     1     -12.518  -6.750  -1.512  0.00  0.00    +0.012 A 
ATOM     27  C   UNL     1     -12.702  -8.065  -1.831  0.00  0.00    +0.015 A 
ATOM     28  C   UNL     1     -11.600  -8.920  -1.935  0.00  0.00    +0.059 A 
ATOM     29  C   UNL     1     -10.309  -8.428  -1.713  0.00  0.00    +0.015 A 
ATOM     30  C   UNL     1     -10.125  -7.112  -1.400  0.00  0.00    +0.012 A 
BRANCH  28  31
ATOM     31  C   UNL     1     -11.799 -10.341  -2.279  0.00  0.00    +0.339 C 
ATOM     32  O   UNL     1     -12.920 -10.768  -2.472  0.00  0.00    -0.245 OA
BRANCH  31  33
ATOM     33  O   UNL     1     -10.737 -11.165  -2.380  0.00  0.00    -0.464 OA
ATOM     34  C   UNL     1     -11.004 -12.528  -2.716  0.00  0.00    +0.280 C 
ENDBRANCH  31  33
ENDBRANCH  28  31
ENDBRANCH  23  25
ENDBRANCH   9  20
BRANCH   1  35
ATOM     35  C   UNL     1      -1.504  -1.911   0.457  0.00  0.00    +0.339 C 
ATOM     36  O   UNL     1      -0.541  -2.657   0.470  0.00  0.00    -0.245 OA
BRANCH  35  37
ATOM     37  O   UNL     1      -1.334  -0.585   0.652  0.00  0.00    -0.462 OA
BRANCH  37  39
ATOM     38  C   UNL     1      -0.005   1.389   1.070  0.00  0.00    +0.048 C 
ATOM     39  C   UNL     1       0.002  -0.128   0.869  0.00  0.00    +0.229 C 
ENDBRANCH  37  39
ENDBRANCH  35  37
ENDBRANCH   1  35
TORSDOF 8
