REMARK  Name = ZINC01186183
REMARK  4 active torsions:
REMARK  status: ('A' for Active; 'I' for Inactive)
REMARK    1  A    between atoms: C_1  and  C_2
REMARK    2  A    between atoms: C_3  and  C_23
REMARK    3  A    between atoms: C_4  and  C_14
REMARK    4  A    between atoms: C_17  and  N_20
REMARK                            x       y       z     vdW  Elec       q    Type
REMARK                         _______ _______ _______ _____ _____    ______ ____
ROOT
ATOM      1  C   UNL     1       7.096   1.238  -0.171  0.00  0.00    +0.061 C 
ATOM      2  C   UNL     1       7.053  -0.265  -0.277  0.00  0.00    +0.014 C 
ATOM      3  C   UNL     1       5.870  -0.900  -0.277  0.00  0.00    +0.043 C 
ATOM      4  C   UNL     1       5.787  -2.393  -0.396  0.00  0.00    +0.090 C 
ATOM      5  C   UNL     1       7.112  -3.037  -0.072  0.00  0.00    +0.024 C 
ATOM      6  C   UNL     1       8.250  -2.310  -0.073  0.00  0.00    +0.015 C 
ATOM      7  N   UNL     1       8.220  -0.973  -0.367  0.00  0.00    -0.321 N 
ATOM      8  C   UNL     1       9.579  -2.945   0.252  0.00  0.00    +0.051 C 
ATOM      9  C   UNL     1       9.567  -4.413  -0.181  0.00  0.00    +0.014 C 
ATOM     10  C   UNL     1       8.417  -5.123   0.540  0.00  0.00    +0.080 C 
ATOM     11  C   UNL     1       7.129  -4.410   0.228  0.00  0.00    +0.162 C 
ATOM     12  O   UNL     1       6.085  -5.032   0.236  0.00  0.00    -0.292 OA
ATOM     13  H   UNL     1       9.146  -0.469  -0.679  0.00  0.00    +0.152 HD
ENDROOT
BRANCH   3  14
ATOM     14  C   UNL     1       4.676  -0.145  -0.168  0.00  0.00    +0.248 C 
ATOM     15  O   UNL     1       4.722   1.072  -0.182  0.00  0.00    -0.270 OA
ATOM     16  N   UNL     1       3.490  -0.773  -0.049  0.00  0.00    -0.267 N 
ATOM     17  C   UNL     1       2.308  -0.036  -0.051  0.00  0.00    +0.125 A 
ATOM     18  C   UNL     1       1.084  -0.697  -0.037  0.00  0.00    +0.045 A 
ATOM     19  C   UNL     1      -0.082   0.047  -0.041  0.00  0.00    +0.020 A 
ATOM     20  C   UNL     1       0.015   1.433  -0.059  0.00  0.00    +0.036 A 
ATOM     21  C   UNL     1       1.265   2.022  -0.073  0.00  0.00    +0.128 A 
ATOM     22  N   UNL     1       2.360   1.286  -0.069  0.00  0.00    -0.239 NA
ATOM     23 BR   UNL     1      -1.545   2.501  -0.058  0.00  0.00    -0.049 Br
ATOM     24  H   UNL     1       3.455  -1.868   0.051  0.00  0.00    +0.157 HD
ENDBRANCH   3  14
BRANCH   4  25
ATOM     25  C   UNL     1       5.392  -2.757  -1.804  0.00  0.00    -0.035 A 
ATOM     26  C   UNL     1       6.188  -2.371  -2.866  0.00  0.00    +0.007 A 
ATOM     27  C   UNL     1       5.828  -2.709  -4.157  0.00  0.00    +0.033 A 
ATOM     28  C   UNL     1       4.667  -3.422  -4.387  0.00  0.00    +0.126 A 
ATOM     29  C   UNL     1       3.868  -3.803  -3.325  0.00  0.00    +0.033 A 
ATOM     30  C   UNL     1       4.231  -3.470  -2.033  0.00  0.00    +0.007 A 
BRANCH  28  31
ATOM     31  N   UNL     1       4.278  -3.779  -5.770  0.00  0.00    +0.056 N 
ATOM     32  O   UNL     1       3.255  -4.407  -5.973  0.00  0.00    -0.126 OA
ATOM     33  O   UNL     1       4.982  -3.443  -6.706  0.00  0.00    -0.126 OA
ENDBRANCH  28  31
ENDBRANCH   4  25
TORSDOF 3
