REMARK  Name = ZINC03977925
REMARK  7 active torsions:
REMARK  status: ('A' for Active; 'I' for Inactive)
REMARK    1  A    between atoms: C_1  and  C_2
REMARK    2  A    between atoms: C_4  and  O_30
REMARK    3  A    between atoms: C_14  and  C_15
REMARK    4  A    between atoms: C_14  and  O_19
REMARK    5  A    between atoms: C_15  and  C_17
REMARK    6  A    between atoms: C_17  and  O_18
REMARK    7  A    between atoms: C_28  and  C_29
REMARK                            x       y       z     vdW  Elec       q    Type
REMARK                         _______ _______ _______ _____ _____    ______ ____
ROOT
ATOM      1  C   UNL     1       0.214   1.610   0.018  0.00  0.00    +0.015 C 
ATOM      2  C   UNL     1       0.113   0.085   0.042  0.00  0.00    +0.009 C 
ATOM      3  C   UNL     1      -1.316  -0.373   0.167  0.00  0.00    +0.041 C 
ATOM      4  C   UNL     1      -1.859  -0.043   1.573  0.00  0.00    +0.120 C 
ATOM      5  C   UNL     1      -0.996  -0.644   2.657  0.00  0.00    +0.035 C 
ATOM      6  C   UNL     1       0.484  -0.255   2.533  0.00  0.00    -0.000 C 
ATOM      7  C   UNL     1       0.967  -0.554   1.156  0.00  0.00    +0.002 C 
ATOM      8  C   UNL     1       2.382  -0.126   0.751  0.00  0.00    +0.008 C 
ATOM      9  C   UNL     1       2.362  -0.323  -0.793  0.00  0.00    +0.043 C 
ATOM     10  C   UNL     1       0.870  -0.425  -1.203  0.00  0.00    +0.131 C 
ATOM     11  C   UNL     1       0.668   1.177   3.016  0.00  0.00    +0.008 C 
ATOM     12  C   UNL     1       0.525   1.175   4.541  0.00  0.00    +0.032 C 
ATOM     13  C   UNL     1      -0.566   0.243   4.994  0.00  0.00    -0.056 C 
ATOM     14  C   UNL     1      -0.736   0.131   6.326  0.00  0.00    +0.051 C 
ATOM     15  C   UNL     1      -1.736  -0.827   6.843  0.00  0.00    +0.179 C 
ATOM     16  O   UNL     1      -2.227  -0.714   7.957  0.00  0.00    -0.288 OA
ATOM     17  C   UNL     1      -2.085  -1.965   5.959  0.00  0.00    +0.047 C 
ATOM     18  C   UNL     1      -1.920  -1.825   4.639  0.00  0.00    -0.012 C 
ATOM     19  C   UNL     1      -1.471  -0.503   4.074  0.00  0.00    +0.013 C 
ATOM     20  C   UNL     1      -2.760   0.318   4.065  0.00  0.00    +0.020 C 
ENDROOT
BRANCH  10  21
ATOM     21  C   UNL     1       0.580   0.465  -2.378  0.00  0.00    +0.190 C 
ATOM     22  O   UNL     1       1.325   1.378  -2.643  0.00  0.00    -0.292 OA
BRANCH  21  23
ATOM     23  C   UNL     1      -0.641   0.219  -3.227  0.00  0.00    +0.233 C 
BRANCH  23  24
ATOM     24  O   UNL     1      -0.697   1.190  -4.274  0.00  0.00    -0.387 OA
ATOM     25  H   UNL     1      -1.459   1.092  -4.862  0.00  0.00    +0.210 HD
ENDBRANCH  23  24
ENDBRANCH  21  23
ENDBRANCH  10  21
BRANCH  10  26
ATOM     26  O   UNL     1       0.512  -1.775  -1.479  0.00  0.00    -0.380 OA
ATOM     27  H   UNL     1       0.956  -2.150  -2.251  0.00  0.00    +0.211 HD
ENDBRANCH  10  26
BRANCH   4  28
ATOM     28  O   UNL     1      -2.009   1.367   1.688  0.00  0.00    -0.391 OA
ATOM     29  H   UNL     1      -2.618   1.752   1.043  0.00  0.00    +0.210 HD
ENDBRANCH   4  28
TORSDOF 5
