REMARK  Name = ZINC36861263
REMARK  4 active torsions:
REMARK  status: ('A' for Active; 'I' for Inactive)
REMARK    1  A    between atoms: C_3  and  N_8
REMARK    2  A    between atoms: C_9  and  C_11
REMARK    3  A    between atoms: C_13  and  N_19
REMARK    4  A    between atoms: N_15  and  C_16
REMARK                            x       y       z     vdW  Elec       q    Type
REMARK                         _______ _______ _______ _____ _____    ______ ____
ROOT
ATOM      1  N   UNL     1       3.684   2.184   1.165  0.00  0.00    -0.280 N 
ATOM      2  C   UNL     1       4.826   1.511   0.921  0.00  0.00    +0.265 C 
ATOM      3  O   UNL     1       4.848   0.297   1.009  0.00  0.00    -0.268 OA
ATOM      4  H   UNL     1       3.649   3.144   1.031  0.00  0.00    +0.155 HD
ENDROOT
BRANCH   1   7
ATOM      5  C   UNL     1       0.567   1.418   2.958  0.00  0.00    +0.003 A 
ATOM      6  C   UNL     1       1.687   2.097   2.519  0.00  0.00    +0.023 A 
ATOM      7  C   UNL     1       2.550   1.498   1.611  0.00  0.00    +0.035 A 
ATOM      8  C   UNL     1       2.284   0.217   1.145  0.00  0.00    +0.038 A 
ATOM      9  C   UNL     1       1.162  -0.457   1.587  0.00  0.00    +0.020 A 
ATOM     10  C   UNL     1       0.304   0.143   2.493  0.00  0.00    +0.015 A 
ATOM     11 BR   UNL     1       0.797  -2.201   0.954  0.00  0.00    -0.050 Br
ENDBRANCH   1   7
BRANCH   2  12
ATOM     12  C   UNL     1       6.042   2.241   0.548  0.00  0.00    +0.107 A 
ATOM     13  C   UNL     1       7.302   1.699   0.395  0.00  0.00    +0.055 A 
ATOM     14  C   UNL     1       8.161   2.747   0.036  0.00  0.00    +0.043 A 
ATOM     15  C   UNL     1       7.423   3.887  -0.022  0.00  0.00    +0.109 A 
ATOM     16  N   UNL     1       6.131   3.588   0.283  0.00  0.00    -0.338 N 
BRANCH  16  17
ATOM     17  C   UNL     1       5.021   4.542   0.325  0.00  0.00    +0.088 C 
ATOM     18  C   UNL     1       5.370   6.031   0.371  0.00  0.00    +0.027 C 
ATOM     19  C   UNL     1       4.819   5.335   1.618  0.00  0.00    +0.027 C 
ENDBRANCH  16  17
BRANCH  14  20
ATOM     20  N   UNL     1       9.541   2.639  -0.218  0.00  0.00    -0.357 N 
ATOM     21  H   UNL     1       9.980   1.777  -0.150  0.00  0.00    +0.142 HD
ATOM     22  H   UNL     1      10.052   3.426  -0.461  0.00  0.00    +0.142 HD
ENDBRANCH  14  20
ENDBRANCH   2  12
TORSDOF 4
