REMARK  Name = ZINC39510498
REMARK  4 active torsions:
REMARK  status: ('A' for Active; 'I' for Inactive)
REMARK    1  A    between atoms: C_4  and  O_21
REMARK    2  A    between atoms: C_5  and  C_7
REMARK    3  A    between atoms: C_13  and  O_20
REMARK    4  A    between atoms: N_18  and  O_19
REMARK                            x       y       z     vdW  Elec       q    Type
REMARK                         _______ _______ _______ _____ _____    ______ ____
ROOT
ATOM      1  C   UNL     1       1.227  -2.187  -0.022  0.00  0.00    +0.025 C 
ATOM      2  C   UNL     1       0.451  -2.746   1.197  0.00  0.00    +0.010 C 
ATOM      3  C   UNL     1       0.050  -4.166   0.725  0.00  0.00    +0.028 C 
ATOM      4  C   UNL     1      -0.288  -3.986  -0.766  0.00  0.00    +0.073 C 
ATOM      5  C   UNL     1       0.459  -2.730  -1.245  0.00  0.00    +0.035 C 
ATOM      6  C   UNL     1      -1.795  -3.794  -0.933  0.00  0.00    +0.137 C 
ATOM      7  C   UNL     1      -2.521  -5.054  -0.453  0.00  0.00    +0.034 C 
ATOM      8  C   UNL     1      -2.004  -6.261  -1.240  0.00  0.00    +0.020 C 
ATOM      9  C   UNL     1      -0.491  -6.382  -1.047  0.00  0.00    +0.115 C 
ATOM     10  N   UNL     1       0.164  -5.156  -1.523  0.00  0.00    -0.182 NA
ENDROOT
BRANCH   1  15
ATOM     11  C   UNL     1      -0.017   1.378   0.010  0.00  0.00    +0.001 A 
ATOM     12  C   UNL     1       1.170   2.088   0.002  0.00  0.00    +0.004 A 
ATOM     13  C   UNL     1       2.377   1.417  -0.013  0.00  0.00    +0.046 A 
ATOM     14  C   UNL     1       2.399   0.030  -0.021  0.00  0.00    +0.120 A 
ATOM     15  C   UNL     1       1.207  -0.680  -0.013  0.00  0.00    -0.003 A 
ATOM     16  C   UNL     1       0.002  -0.004   0.002  0.00  0.00    +0.007 A 
BRANCH  14  17
ATOM     17  O   UNL     1       3.586  -0.632  -0.037  0.00  0.00    -0.506 OA
ATOM     18  H   UNL     1       3.938  -0.829   0.842  0.00  0.00    +0.292 HD
ENDBRANCH  14  17
ENDBRANCH   1  15
BRANCH  10  19
ATOM     19  O   UNL     1      -0.053  -4.969  -2.958  0.00  0.00    -0.312 OA
ATOM     20  H   UNL     1       0.231  -5.718  -3.499  0.00  0.00    +0.237 HD
ENDBRANCH  10  19
BRANCH   6  21
ATOM     21  O   UNL     1      -2.221  -2.672  -0.157  0.00  0.00    -0.390 OA
ATOM     22  H   UNL     1      -3.169  -2.491  -0.215  0.00  0.00    +0.210 HD
ENDBRANCH   6  21
TORSDOF 4
