REMARK  Name = ZINC20705941
REMARK  5 active torsions:
REMARK  status: ('A' for Active; 'I' for Inactive)
REMARK    1  A    between atoms: C_1  and  N_2
REMARK    2  A    between atoms: N_5  and  S_8
REMARK    3  A    between atoms: S_8  and  C_11
REMARK    4  A    between atoms: C_24  and  C_27
REMARK    5  A    between atoms: C_29  and  N_34
REMARK                            x       y       z     vdW  Elec       q    Type
REMARK                         _______ _______ _______ _____ _____    ______ ____
ROOT
ATOM      1  C   UNL     1       1.177  -3.791   1.425  0.00  0.00    +0.106 A 
ATOM      2  C   UNL     1       2.453  -3.916   1.942  0.00  0.00    +0.030 A 
ATOM      3  C   UNL     1       3.370  -2.898   1.779  0.00  0.00    +0.025 A 
ATOM      4  C   UNL     1       3.021  -1.742   1.091  0.00  0.00    +0.031 A 
ATOM      5  C   UNL     1       1.734  -1.616   0.578  0.00  0.00    -0.018 A 
ATOM      6  C   UNL     1       0.820  -2.647   0.735  0.00  0.00    +0.034 A 
ATOM      7  C   UNL     1       1.407  -0.391  -0.183  0.00  0.00    +0.049 C 
ATOM      8  C   UNL     1       0.015   0.119  -0.290  0.00  0.00    -0.023 C 
ATOM      9  C   UNL     1       0.054   1.444  -0.367  0.00  0.00    -0.030 C 
ATOM     10  C   UNL     1       1.502   1.931  -0.284  0.00  0.00    +0.033 C 
ATOM     11  C   UNL     1       2.168   0.788   0.494  0.00  0.00    +0.029 C 
ATOM     12  C   UNL     1       3.639   0.528   0.223  0.00  0.00    +0.106 C 
ATOM     13  N   UNL     1       3.964  -0.717   0.951  0.00  0.00    -0.336 N 
ATOM     14  H   UNL     1       4.962  -0.850   1.394  0.00  0.00    +0.147 HD
ENDROOT
BRANCH  12  15
ATOM     15  C   UNL     1       4.474   1.670   0.744  0.00  0.00    -0.007 A 
ATOM     16  C   UNL     1       3.935   2.562   1.651  0.00  0.00    +0.039 A 
ATOM     17  C   UNL     1       4.702   3.607   2.133  0.00  0.00    +0.127 A 
ATOM     18  C   UNL     1       6.005   3.765   1.699  0.00  0.00    +0.034 A 
ATOM     19  C   UNL     1       6.543   2.876   0.788  0.00  0.00    +0.022 A 
ATOM     20  C   UNL     1       5.778   1.828   0.309  0.00  0.00    +0.046 A 
ATOM     21 CL   UNL     1       6.453   0.711  -0.836  0.00  0.00    -0.083 Cl
BRANCH  17  22
ATOM     22  N   UNL     1       4.126   4.559   3.109  0.00  0.00    +0.056 N 
ATOM     23  O   UNL     1       4.801   5.481   3.530  0.00  0.00    -0.126 OA
ATOM     24  O   UNL     1       2.978   4.419   3.491  0.00  0.00    -0.126 OA
ENDBRANCH  17  22
ENDBRANCH  12  15
BRANCH   1  25
ATOM     25  S   UNL     1       0.005  -5.088   1.645  0.00  0.00    +0.061 S 
ATOM     26  O   UNL     1      -0.946  -4.959   0.597  0.00  0.00    -0.153 OA
ATOM     27  O   UNL     1       0.752  -6.279   1.853  0.00  0.00    -0.153 OA
BRANCH  25  32
ATOM     28  C   UNL     1      -1.552  -2.481   6.486  0.00  0.00    -0.096 C 
ATOM     29  N   UNL     1      -1.534  -3.482   5.411  0.00  0.00    +0.380 N 
ATOM     30  C   UNL     1      -1.886  -2.874   4.120  0.00  0.00    -0.062 C 
ATOM     31  C   UNL     1      -2.033  -3.975   3.064  0.00  0.00    +0.091 C 
ATOM     32  N   UNL     1      -0.804  -4.783   3.057  0.00  0.00    -0.180 NA
ATOM     33  C   UNL     1      -0.315  -5.318   4.337  0.00  0.00    +0.091 C 
ATOM     34  C   UNL     1      -0.233  -4.160   5.344  0.00  0.00    -0.062 C 
ATOM     35  H   UNL     1      -2.296  -4.242   5.641  0.00  0.00    -0.082 HD
ENDBRANCH  25  32
ENDBRANCH   1  25
TORSDOF 4
