REMARK  Name = ZINC01896168
REMARK  9 active torsions:
REMARK  status: ('A' for Active; 'I' for Inactive)
REMARK    1  A    between atoms: C_1  and  C_2
REMARK    2  A    between atoms: C_2  and  C_3
REMARK    3  A    between atoms: C_2  and  C_4
REMARK    4  A    between atoms: C_11  and  C_43
REMARK    5  A    between atoms: N_23  and  C_26
REMARK    6  A    between atoms: C_29  and  S_32
REMARK    7  A    between atoms: S_32  and  N_35
REMARK    8  A    between atoms: C_39  and  C_40
REMARK    9  A    between atoms: C_39  and  C_41
REMARK                            x       y       z     vdW  Elec       q    Type
REMARK                         _______ _______ _______ _____ _____    ______ ____
ROOT
ATOM      1  C   UNL     1      -2.151   0.907  -0.796  0.00  0.00    -0.066 C 
ATOM      2  C   UNL     1      -2.572   1.463   0.340  0.00  0.00    -0.019 C 
ATOM      3  C   UNL     1      -1.448   2.050   1.173  0.00  0.00    +0.004 C 
ATOM      4  C   UNL     1      -2.003   2.665   2.450  0.00  0.00    +0.012 C 
ATOM      5  C   UNL     1      -2.975   3.795   2.104  0.00  0.00    +0.006 C 
ATOM      6  C   UNL     1      -3.082   3.931   0.584  0.00  0.00    +0.012 C 
ATOM      7  C   UNL     1      -1.704   4.243  -0.001  0.00  0.00    -0.025 C 
ATOM      8  C   UNL     1      -0.731   3.110   0.332  0.00  0.00    +0.007 C 
ATOM      9  C   UNL     1      -0.259   2.456  -0.991  0.00  0.00    +0.013 C 
ATOM     10  C   UNL     1      -0.642   0.970  -1.006  0.00  0.00    +0.028 C 
ATOM     11  C   UNL     1       0.028   0.284   0.192  0.00  0.00    +0.096 C 
ATOM     12  C   UNL     1      -0.459   0.930   1.506  0.00  0.00    +0.098 C 
ATOM     13  C   UNL     1       0.800   1.530   2.093  0.00  0.00    +0.231 C 
ATOM     14  O   UNL     1       0.865   2.140   3.139  0.00  0.00    -0.274 OA
ATOM     15  N   UNL     1       1.830   1.282   1.275  0.00  0.00    -0.210 N 
ATOM     16  C   UNL     1       1.510   0.588   0.175  0.00  0.00    +0.231 C 
ATOM     17  O   UNL     1       2.285   0.257  -0.696  0.00  0.00    -0.274 OA
ATOM     18  C   UNL     1      -1.814   4.387  -1.520  0.00  0.00    +0.007 C 
ATOM     19  C   UNL     1      -2.781   5.523  -1.857  0.00  0.00    +0.002 C 
ATOM     20  C   UNL     1      -4.160   5.208  -1.274  0.00  0.00    +0.018 C 
ATOM     21  C   UNL     1      -4.050   5.067   0.245  0.00  0.00    +0.072 C 
ATOM     22  C   UNL     1      -5.428   4.753   0.829  0.00  0.00    +0.023 C 
ATOM     23  C   UNL     1      -1.184   5.552   0.598  0.00  0.00    +0.012 C 
ENDROOT
BRANCH  15  24
ATOM     24  C   UNL     1       3.136   1.713   1.547  0.00  0.00    +0.044 A 
ATOM     25  C   UNL     1       4.134   0.786   1.814  0.00  0.00    +0.026 A 
ATOM     26  C   UNL     1       5.420   1.214   2.076  0.00  0.00    +0.030 A 
ATOM     27  C   UNL     1       5.713   2.565   2.084  0.00  0.00    +0.105 A 
ATOM     28  C   UNL     1       4.720   3.492   1.823  0.00  0.00    +0.030 A 
ATOM     29  C   UNL     1       3.433   3.070   1.555  0.00  0.00    +0.026 A 
BRANCH  27  30
ATOM     30  S   UNL     1       7.354   3.107   2.426  0.00  0.00    +0.056 S 
ATOM     31  O   UNL     1       8.216   2.026   2.099  0.00  0.00    -0.153 OA
ATOM     32  O   UNL     1       7.488   4.393   1.836  0.00  0.00    -0.153 OA
BRANCH  30  33
ATOM     33  N   UNL     1       7.467   3.324   4.064  0.00  0.00    -0.204 NA
ATOM     34  H   UNL     1       6.699   3.151   4.630  0.00  0.00    +0.144 HD
ATOM     35  H   UNL     1       8.301   3.624   4.457  0.00  0.00    +0.144 HD
ENDBRANCH  30  33
ENDBRANCH  27  30
ENDBRANCH  15  24
BRANCH   1  37
ATOM     36  C   UNL     1      -2.967   0.977  -3.137  0.00  0.00    +0.012 C 
ATOM     37  C   UNL     1      -3.080   0.259  -1.790  0.00  0.00    +0.009 C 
ATOM     38  C   UNL     1      -2.696  -1.212  -1.964  0.00  0.00    +0.012 C 
ENDBRANCH   1  37
BRANCH  21  39
ATOM     39  C   UNL     1      -3.537   6.356   0.833  0.00  0.00    +0.362 C 
ATOM     40  O   UNL     1      -3.353   7.315   0.120  0.00  0.00    -0.246 OA
ATOM     41  O   UNL     1      -3.285   6.441   2.149  0.00  0.00    -0.246 OA
ENDBRANCH  21  39
TORSDOF 5
