REMARK  Name = ZINC28284270
REMARK  9 active torsions:
REMARK  status: ('A' for Active; 'I' for Inactive)
REMARK    1  A    between atoms: C_1  and  O_2
REMARK    2  A    between atoms: O_2  and  C_3
REMARK    3  A    between atoms: C_5  and  C_11
REMARK    4  A    between atoms: C_7  and  O_9
REMARK    5  A    between atoms: O_9  and  C_10
REMARK    6  A    between atoms: N_13  and  C_14
REMARK    7  A    between atoms: C_19  and  S_20
REMARK    8  A    between atoms: S_20  and  N_23
REMARK    9  A    between atoms: N_23  and  C_24
REMARK                            x       y       z     vdW  Elec       q    Type
REMARK                         _______ _______ _______ _____ _____    ______ ____
ROOT
ATOM      1  C   UNL     1      -0.965   2.558  -0.322  0.00  0.00    +0.061 A 
ATOM      2  C   UNL     1       0.353   2.140  -0.452  0.00  0.00    +0.028 A 
ATOM      3  C   UNL     1       1.377   3.065  -0.404  0.00  0.00    +0.040 A 
ATOM      4  C   UNL     1       1.091   4.408  -0.222  0.00  0.00    +0.125 A 
ATOM      5  C   UNL     1      -0.222   4.826  -0.086  0.00  0.00    +0.069 A 
ATOM      6  C   UNL     1      -1.249   3.904  -0.132  0.00  0.00    +0.134 A 
ATOM      7  F   UNL     1       2.095   5.311  -0.176  0.00  0.00    -0.205 F 
ENDROOT
BRANCH   1  10
ATOM      8  C   UNL     1      -1.839   0.468  -1.049  0.00  0.00    +0.249 C 
ATOM      9  O   UNL     1      -0.760   0.201  -1.541  0.00  0.00    -0.270 OA
ATOM     10  N   UNL     1      -2.006   1.624  -0.376  0.00  0.00    -0.280 N 
ATOM     11  H   UNL     1      -2.959   1.832   0.131  0.00  0.00    +0.155 HD
BRANCH   8  14
ATOM     12  C   UNL     1      -3.891  -2.502  -2.102  0.00  0.00    +0.124 A 
ATOM     13  C   UNL     1      -2.830  -1.621  -1.974  0.00  0.00    +0.059 A 
ATOM     14  C   UNL     1      -2.968  -0.476  -1.189  0.00  0.00    +0.044 A 
ATOM     15  C   UNL     1      -4.173  -0.227  -0.531  0.00  0.00    +0.059 A 
ATOM     16  C   UNL     1      -5.231  -1.110  -0.670  0.00  0.00    +0.124 A 
ATOM     17  C   UNL     1      -5.090  -2.248  -1.452  0.00  0.00    +0.091 A 
BRANCH  12  19
ATOM     18  C   UNL     1      -4.892  -4.483  -2.955  0.00  0.00    +0.277 C 
ATOM     19  O   UNL     1      -3.758  -3.618  -2.867  0.00  0.00    -0.495 OA
ENDBRANCH  12  19
BRANCH  16  20
ATOM     20  O   UNL     1      -6.408  -0.865  -0.035  0.00  0.00    -0.495 OA
ATOM     21  C   UNL     1      -7.455  -1.821  -0.218  0.00  0.00    +0.277 C 
ENDBRANCH  16  20
ENDBRANCH   8  14
ENDBRANCH   1  10
BRANCH   6  22
ATOM     22  S   UNL     1      -2.920   4.437   0.041  0.00  0.00    +0.093 S 
ATOM     23  O   UNL     1      -2.878   5.841   0.258  0.00  0.00    -0.148 OA
ATOM     24  O   UNL     1      -3.646   3.853  -1.032  0.00  0.00    -0.148 OA
BRANCH  22  25
ATOM     25  N   UNL     1      -3.507   3.760   1.433  0.00  0.00    -0.098 NA
BRANCH  25  26
ATOM     26  C   UNL     1      -2.994   4.153   2.672  0.00  0.00    +0.074 A 
ATOM     27  C   UNL     1      -1.621   4.246   2.858  0.00  0.00    +0.028 A 
ATOM     28  C   UNL     1      -1.116   4.639   4.082  0.00  0.00    +0.017 A 
ATOM     29  C   UNL     1      -1.976   4.930   5.126  0.00  0.00    +0.018 A 
ATOM     30  C   UNL     1      -3.345   4.833   4.945  0.00  0.00    +0.017 A 
ATOM     31  C   UNL     1      -3.856   4.445   3.722  0.00  0.00    +0.028 A 
ATOM     32 BR   UNL     1      -1.281   5.461   6.802  0.00  0.00    -0.050 Br
ENDBRANCH  25  26
ENDBRANCH  22  25
ENDBRANCH   6  22
TORSDOF 7
