REMARK  Name = ZINC45012726
REMARK  5 active torsions:
REMARK  status: ('A' for Active; 'I' for Inactive)
REMARK    1  A    between atoms: C_1  and  C_2
REMARK    2  A    between atoms: C_4  and  C_7
REMARK    3  A    between atoms: C_7  and  N_8
REMARK    4  A    between atoms: N_11  and  C_12
REMARK    5  A    between atoms: C_17  and  C_18
REMARK                            x       y       z     vdW  Elec       q    Type
REMARK                         _______ _______ _______ _____ _____    ______ ____
ROOT
ATOM      1  N   UNL     1       1.438  -3.670  -1.952  0.00  0.00    -0.292 N 
ATOM      2  C   UNL     1       1.691  -4.743  -2.727  0.00  0.00    +0.304 C 
ATOM      3  O   UNL     1       0.771  -5.397  -3.178  0.00  0.00    -0.252 OA
ATOM      4  N   UNL     1       2.963  -5.091  -3.001  0.00  0.00    -0.269 N 
ATOM      5  H   UNL     1       2.172  -3.148  -1.591  0.00  0.00    +0.151 HD
ATOM      6  H   UNL     1       3.696  -4.534  -2.695  0.00  0.00    +0.156 HD
ENDROOT
BRANCH   4   7
ATOM      7  C   UNL     1       3.227  -6.252  -3.724  0.00  0.00    +0.049 A 
ATOM      8  C   UNL     1       2.369  -6.651  -4.740  0.00  0.00    +0.027 A 
ATOM      9  C   UNL     1       2.632  -7.801  -5.456  0.00  0.00    +0.040 A 
ATOM     10  C   UNL     1       3.752  -8.568  -5.168  0.00  0.00    +0.124 A 
ATOM     11  C   UNL     1       4.616  -8.188  -4.162  0.00  0.00    +0.055 A 
ATOM     12  C   UNL     1       4.365  -7.021  -3.432  0.00  0.00    +0.087 A 
ATOM     13  F   UNL     1       3.998  -9.692  -5.875  0.00  0.00    -0.205 F 
BRANCH  12  14
ATOM     14  C   UNL     1       5.285  -6.606  -2.361  0.00  0.00    +0.388 C 
ATOM     15  O   UNL     1       6.325  -7.222  -2.175  0.00  0.00    -0.241 OA
ATOM     16  O   UNL     1       5.010  -5.644  -1.657  0.00  0.00    -0.241 OA
ENDBRANCH  12  14
ENDBRANCH   4   7
BRANCH   1  17
ATOM     17  C   UNL     1       0.054  -3.291  -1.653  0.00  0.00    +0.183 C 
BRANCH  17  21
ATOM     18  C   UNL     1       0.006   1.554  -0.080  0.00  0.00    +0.069 C 
ATOM     19  C   UNL     1       0.026   0.047  -0.067  0.00  0.00    +0.081 A 
ATOM     20  C   UNL     1       0.026  -0.788  -1.198  0.00  0.00    +0.072 A 
ATOM     21  C   UNL     1       0.047  -2.067  -0.775  0.00  0.00    +0.154 A 
ATOM     22  O   UNL     1       0.059  -2.059   0.567  0.00  0.00    -0.358 OA
ATOM     23  N   UNL     1       0.051  -0.709   0.994  0.00  0.00    -0.083 NA
ENDBRANCH  17  21
ENDBRANCH   1  17
TORSDOF 4
