REMARK  Name = ZINC39444819
REMARK  5 active torsions:
REMARK  status: ('A' for Active; 'I' for Inactive)
REMARK    1  A    between atoms: C_3  and  S_17
REMARK    2  A    between atoms: C_6  and  N_7
REMARK    3  A    between atoms: C_8  and  C_10
REMARK    4  A    between atoms: S_17  and  N_20
REMARK    5  A    between atoms: N_20  and  C_21
REMARK                            x       y       z     vdW  Elec       q    Type
REMARK                         _______ _______ _______ _____ _____    ______ ____
ROOT
ATOM      1  C   UNL     1      -0.100   2.271   0.558  0.00  0.00    +0.025 A 
ATOM      2  C   UNL     1       1.205   2.700   0.413  0.00  0.00    +0.030 A 
ATOM      3  C   UNL     1       2.224   1.778   0.259  0.00  0.00    +0.105 A 
ATOM      4  C   UNL     1       1.942   0.425   0.250  0.00  0.00    +0.030 A 
ATOM      5  C   UNL     1       0.639  -0.011   0.395  0.00  0.00    +0.025 A 
ATOM      6  C   UNL     1      -0.387   0.912   0.549  0.00  0.00    +0.034 A 
ENDROOT
BRANCH   6   7
ATOM      7  N   UNL     1      -1.708   0.474   0.697  0.00  0.00    -0.283 N 
ATOM      8  C   UNL     1      -2.721   1.210   0.198  0.00  0.00    +0.249 C 
ATOM      9  O   UNL     1      -2.485   2.197  -0.465  0.00  0.00    -0.273 OA
ATOM     10  H   UNL     1      -1.894  -0.359   1.157  0.00  0.00    +0.155 HD
BRANCH   8  11
ATOM     11  C   UNL     1      -4.148   0.805   0.465  0.00  0.00    +0.256 C 
ATOM     12  C   UNL     1      -4.601   1.300   1.828  0.00  0.00    +0.073 C 
ATOM     13  C   UNL     1      -5.616   2.125   1.548  0.00  0.00    +0.152 C 
ATOM     14  N   UNL     1      -5.829   2.189   0.217  0.00  0.00    -0.160 NA
ATOM     15  N   UNL     1      -5.066   1.490  -0.461  0.00  0.00    -0.169 NA
ATOM     16 CL   UNL     1      -3.952   0.891   3.385  0.00  0.00    -0.084 Cl
ENDBRANCH   8  11
ENDBRANCH   6   7
BRANCH   3  17
ATOM     17  S   UNL     1       3.888   2.330   0.073  0.00  0.00    +0.059 S 
ATOM     18  O   UNL     1       4.646   1.201  -0.339  0.00  0.00    -0.153 OA
ATOM     19  O   UNL     1       3.835   3.530  -0.686  0.00  0.00    -0.153 OA
BRANCH  17  20
ATOM     20  N   UNL     1       4.437   2.746   1.579  0.00  0.00    -0.184 NA
ATOM     21  H   UNL     1       4.589   3.679   1.799  0.00  0.00    +0.149 HD
BRANCH  20  22
ATOM     22  C   UNL     1       4.691   1.706   2.579  0.00  0.00    +0.041 C 
ATOM     23  C   UNL     1       5.867   0.839   2.124  0.00  0.00    +0.027 C 
ATOM     24  C   UNL     1       6.133  -0.247   3.168  0.00  0.00    -0.009 C 
ATOM     25  C   UNL     1       6.471   0.407   4.510  0.00  0.00    +0.007 C 
ATOM     26  C   UNL     1       5.295   1.274   4.964  0.00  0.00    -0.009 C 
ATOM     27  C   UNL     1       5.029   2.360   3.920  0.00  0.00    +0.027 C 
ATOM     28  C   UNL     1       4.048   0.402   5.122  0.00  0.00    +0.007 C 
ATOM     29  C   UNL     1       3.711  -0.253   3.780  0.00  0.00    -0.009 C 
ATOM     30  C   UNL     1       4.886  -1.120   3.326  0.00  0.00    +0.007 C 
ATOM     31  C   UNL     1       3.445   0.834   2.736  0.00  0.00    +0.027 C 
ENDBRANCH  20  22
ENDBRANCH  17  20
ENDBRANCH   3  17
TORSDOF 5
