REMARK  Name = ZINC58836520
REMARK  4 active torsions:
REMARK  status: ('A' for Active; 'I' for Inactive)
REMARK    1  A    between atoms: C_4  and  N_7
REMARK    2  A    between atoms: C_8  and  C_10
REMARK    3  A    between atoms: N_15  and  N_19
REMARK    4  A    between atoms: C_20  and  C_21
REMARK                            x       y       z     vdW  Elec       q    Type
REMARK                         _______ _______ _______ _____ _____    ______ ____
ROOT
ATOM      1  C   UNL     1       4.993  -2.690   0.174  0.00  0.00    +0.149 C 
ATOM      2  C   UNL     1       4.950  -3.985  -0.639  0.00  0.00    +0.122 C 
ATOM      3  C   UNL     1       6.131  -4.856  -0.386  0.00  0.00    +0.243 C 
ATOM      4  O   UNL     1       6.453  -5.584  -1.301  0.00  0.00    -0.273 OA
ATOM      5  N   UNL     1       6.878  -4.941   0.705  0.00  0.00    -0.137 N 
ATOM      6  C   UNL     1       6.758  -4.095   1.799  0.00  0.00    +0.177 C 
ATOM      7  N   UNL     1       7.696  -4.013   2.699  0.00  0.00    -0.278 NA
ATOM      8  S   UNL     1       5.276  -3.130   1.920  0.00  0.00    -0.076 S 
ATOM      9  H   UNL     1       7.591  -3.415   3.456  0.00  0.00    +0.189 HD
ENDROOT
BRANCH   1  11
ATOM     10  N   UNL     1       3.658  -0.612   0.030  0.00  0.00    -0.285 N 
ATOM     11  C   UNL     1       3.682  -1.959   0.039  0.00  0.00    +0.231 C 
ATOM     12  O   UNL     1       2.647  -2.584  -0.062  0.00  0.00    -0.274 OA
ATOM     13  H   UNL     1       4.490  -0.112   0.037  0.00  0.00    +0.155 HD
BRANCH  10  17
ATOM     14  C   UNL     1       0.016   1.409  -0.027  0.00  0.00    +0.000 A 
ATOM     15  C   UNL     1       0.128   0.208   0.648  0.00  0.00    +0.002 A 
ATOM     16  C   UNL     1       1.334  -0.465   0.669  0.00  0.00    +0.023 A 
ATOM     17  C   UNL     1       2.435   0.067   0.010  0.00  0.00    +0.033 A 
ATOM     18  C   UNL     1       2.319   1.274  -0.667  0.00  0.00    +0.023 A 
ATOM     19  C   UNL     1       1.110   1.941  -0.684  0.00  0.00    +0.002 A 
ENDBRANCH  10  17
ENDBRANCH   1  11
BRANCH   5  20
ATOM     20  N   UNL     1       7.850  -5.949   0.759  0.00  0.00    -0.178 NA
ATOM     21  C   UNL     1       7.751  -6.899   1.637  0.00  0.00    +0.139 C 
BRANCH  21  22
ATOM     22  C   UNL     1       8.712  -8.017   1.624  0.00  0.00    -0.002 A 
ATOM     23  C   UNL     1       9.733  -8.052   0.670  0.00  0.00    +0.013 A 
ATOM     24  C   UNL     1      10.631  -9.098   0.660  0.00  0.00    +0.050 A 
ATOM     25  C   UNL     1      10.524 -10.120   1.594  0.00  0.00    +0.166 A 
ATOM     26  C   UNL     1       9.507 -10.091   2.548  0.00  0.00    +0.167 A 
ATOM     27  C   UNL     1       8.608  -9.042   2.568  0.00  0.00    +0.059 A 
ATOM     28  O   UNL     1       9.621 -11.198   3.339  0.00  0.00    -0.453 OA
ATOM     29  C   UNL     1      10.462 -12.109   2.607  0.00  0.00    +0.466 C 
ATOM     30  O   UNL     1      11.273 -11.244   1.789  0.00  0.00    -0.453 OA
ENDBRANCH  21  22
ENDBRANCH   5  20
TORSDOF 4
