REMARK  Name = ZINC14532681
REMARK  7 active torsions:
REMARK  status: ('A' for Active; 'I' for Inactive)
REMARK    1  A    between atoms: C_1  and  N_2
REMARK    2  A    between atoms: C_5  and  C_7
REMARK    3  A    between atoms: N_9  and  C_10
REMARK    4  A    between atoms: C_10  and  C_11
REMARK    5  A    between atoms: C_19  and  N_23
REMARK    6  A    between atoms: N_23  and  C_24
REMARK    7  A    between atoms: C_24  and  C_25
REMARK                            x       y       z     vdW  Elec       q    Type
REMARK                         _______ _______ _______ _____ _____    ______ ____
ROOT
ATOM      1  C   UNL     1       2.754   0.740   6.836  0.00  0.00    +0.172 C 
ATOM      2  N   UNL     1       1.404   0.683   6.269  0.00  0.00    -0.270 N 
ATOM      3  C   UNL     1       1.089   0.987   5.000  0.00  0.00    +0.043 A 
ATOM      4  C   UNL     1      -0.248   0.809   4.865  0.00  0.00    +0.007 A 
ATOM      5  C   UNL     1      -0.711   0.388   6.123  0.00  0.00    +0.150 A 
ATOM      6  N   UNL     1       0.346   0.336   6.916  0.00  0.00    -0.166 NA
ATOM      7  C   UNL     1      -1.016   1.038   3.592  0.00  0.00    +0.058 C 
ATOM      8  C   UNL     1      -0.016   1.091   2.429  0.00  0.00    +0.059 C 
ATOM      9  C   UNL     1       1.122   2.054   2.777  0.00  0.00    +0.025 C 
ATOM     10  C   UNL     1       1.993   1.445   3.884  0.00  0.00    +0.057 C 
ENDROOT
BRANCH   5  11
ATOM     11  C   UNL     1      -2.105   0.066   6.488  0.00  0.00    +0.265 C 
ATOM     12  O   UNL     1      -2.987   0.156   5.656  0.00  0.00    -0.268 OA
ATOM     13  N   UNL     1      -2.400  -0.328   7.743  0.00  0.00    -0.306 N 
ATOM     14  H   UNL     1      -1.601  -0.409   8.495  0.00  0.00    +0.149 HD
BRANCH  13  15
ATOM     15  C   UNL     1      -3.783  -0.647   8.105  0.00  0.00    +0.142 C 
BRANCH  15  16
ATOM     16  C   UNL     1      -3.841  -1.057   9.554  0.00  0.00    +0.005 A 
ATOM     17  C   UNL     1      -3.900  -2.396   9.892  0.00  0.00    +0.008 A 
ATOM     18  C   UNL     1      -3.948  -2.773  11.221  0.00  0.00    +0.000 A 
ATOM     19  C   UNL     1      -3.947  -1.810  12.213  0.00  0.00    +0.003 A 
ATOM     20  C   UNL     1      -3.893  -0.471  11.878  0.00  0.00    +0.038 A 
ATOM     21  C   UNL     1      -3.840  -0.093  10.547  0.00  0.00    +0.128 A 
ATOM     22  F   UNL     1      -3.788   1.216  10.218  0.00  0.00    -0.205 F 
ENDBRANCH  15  16
ENDBRANCH  13  15
ENDBRANCH   5  11
BRANCH   8  23
ATOM     23  N   UNL     1      -0.700   1.560   1.217  0.00  0.00    -0.308 NA
ATOM     24  H   UNL     1      -1.732   1.179   1.208  0.00  0.00    +0.123 HD
BRANCH  23  25
ATOM     25  C   UNL     1      -0.013   1.086   0.008  0.00  0.00    +0.134 C 
BRANCH  25  26
ATOM     26  C   UNL     1      -0.742   1.585  -1.213  0.00  0.00    +0.031 A 
ATOM     27  C   UNL     1      -1.666   0.892  -1.896  0.00  0.00    +0.032 A 
ATOM     28  C   UNL     1      -2.115   1.746  -2.998  0.00  0.00    -0.000 A 
ATOM     29  C   UNL     1      -3.042   1.591  -4.031  0.00  0.00    +0.010 A 
ATOM     30  C   UNL     1      -3.231   2.602  -4.930  0.00  0.00    +0.001 A 
ATOM     31  C   UNL     1      -2.508   3.783  -4.825  0.00  0.00    +0.002 A 
ATOM     32  C   UNL     1      -1.588   3.957  -3.814  0.00  0.00    +0.026 A 
ATOM     33  C   UNL     1      -1.380   2.940  -2.888  0.00  0.00    +0.047 A 
ATOM     34  N   UNL     1      -0.555   2.810  -1.793  0.00  0.00    -0.357 N 
ATOM     35  H   UNL     1       0.174   3.515  -1.367  0.00  0.00    +0.166 HD
ENDBRANCH  25  26
ENDBRANCH  23  25
ENDBRANCH   8  23
TORSDOF 6
