REMARK  Name = ZINC20558540
REMARK  8 active torsions:
REMARK  status: ('A' for Active; 'I' for Inactive)
REMARK    1  A    between atoms: C_1  and  O_2
REMARK    2  A    between atoms: O_2  and  C_3
REMARK    3  A    between atoms: C_3  and  C_5
REMARK    4  A    between atoms: C_8  and  C_11
REMARK    5  A    between atoms: C_13  and  C_37
REMARK    6  A    between atoms: C_14  and  N_36
REMARK    7  A    between atoms: N_21  and  C_28
REMARK    8  A    between atoms: C_28  and  C_29
REMARK                            x       y       z     vdW  Elec       q    Type
REMARK                         _______ _______ _______ _____ _____    ______ ____
ROOT
ATOM      1  C   UNL     1      -4.617   0.520  -0.326  0.00  0.00    +0.118 C 
ATOM      2  C   UNL     1      -4.401  -0.705   0.520  0.00  0.00    +0.099 C 
ATOM      3  C   UNL     1      -3.148  -1.065   0.893  0.00  0.00    +0.199 C 
ATOM      4  O   UNL     1      -2.077  -0.347   0.519  0.00  0.00    -0.439 OA
ATOM      5  C   UNL     1      -2.220   0.948   0.129  0.00  0.00    +0.162 C 
ATOM      6  C   UNL     1      -3.401   1.403  -0.279  0.00  0.00    +0.141 C 
ATOM      7  S   UNL     1      -3.536   3.095  -0.777  0.00  0.00    +0.076 S 
ATOM      8  O   UNL     1      -4.768   3.582  -0.263  0.00  0.00    -0.150 OA
ATOM      9  O   UNL     1      -3.202   3.150  -2.158  0.00  0.00    -0.150 OA
ATOM     10  N   UNL     1      -2.320   3.877   0.050  0.00  0.00    -0.198 N 
ATOM     11  C   UNL     1      -1.091   3.214   0.148  0.00  0.00    +0.062 A 
ATOM     12  C   UNL     1      -1.022   1.820   0.168  0.00  0.00    +0.042 A 
ATOM     13  C   UNL     1       0.233   1.204   0.255  0.00  0.00    +0.013 A 
ATOM     14  C   UNL     1       1.379   1.967   0.317  0.00  0.00    +0.001 A 
ATOM     15  C   UNL     1       1.301   3.349   0.299  0.00  0.00    +0.002 A 
ATOM     16  C   UNL     1       0.071   3.971   0.214  0.00  0.00    +0.025 A 
ENDROOT
BRANCH   1  20
ATOM     17  C   UNL     1      -5.354  -0.660  -4.370  0.00  0.00    +0.059 A 
ATOM     18  C   UNL     1      -6.320   0.058  -3.661  0.00  0.00    +0.015 A 
ATOM     19  C   UNL     1      -6.076   0.435  -2.357  0.00  0.00    +0.005 A 
ATOM     20  C   UNL     1      -4.877   0.104  -1.751  0.00  0.00    -0.033 A 
ATOM     21  C   UNL     1      -3.913  -0.603  -2.449  0.00  0.00    +0.005 A 
ATOM     22  C   UNL     1      -4.147  -0.991  -3.752  0.00  0.00    +0.015 A 
BRANCH  17  23
ATOM     23  C   UNL     1      -5.609  -1.067  -5.767  0.00  0.00    +0.339 C 
ATOM     24  O   UNL     1      -6.660  -0.777  -6.302  0.00  0.00    -0.245 OA
BRANCH  23  26
ATOM     25  C   UNL     1      -4.993  -2.126  -7.816  0.00  0.00    +0.280 C 
ATOM     26  O   UNL     1      -4.675  -1.759  -6.447  0.00  0.00    -0.464 OA
ENDBRANCH  23  26
ENDBRANCH  17  23
ENDBRANCH   1  20
BRANCH   3  27
ATOM     27  N   UNL     1      -2.971  -2.184   1.668  0.00  0.00    -0.328 N 
ATOM     28  H   UNL     1      -1.959  -2.486   1.977  0.00  0.00    +0.145 HD
ATOM     29  H   UNL     1      -3.842  -2.780   1.981  0.00  0.00    +0.145 HD
ENDBRANCH   3  27
BRANCH   2  30
ATOM     30  C   UNL     1      -5.523  -1.494   0.932  0.00  0.00    +0.101 C 
ATOM     31  N   UNL     1      -6.413  -2.119   1.259  0.00  0.00    -0.191 NA
ENDBRANCH   2  30
BRANCH  10  32
ATOM     32  C   UNL     1      -2.528   5.198   0.648  0.00  0.00    +0.169 C 
BRANCH  32  33
ATOM     33  C   UNL     1      -2.936   5.038   2.090  0.00  0.00    +0.007 A 
ATOM     34  C   UNL     1      -4.267   5.141   2.447  0.00  0.00    +0.008 A 
ATOM     35  C   UNL     1      -4.642   4.988   3.769  0.00  0.00    +0.000 A 
ATOM     36  C   UNL     1      -3.685   4.744   4.736  0.00  0.00    +0.003 A 
ATOM     37  C   UNL     1      -2.353   4.646   4.382  0.00  0.00    +0.038 A 
ATOM     38  C   UNL     1      -1.976   4.793   3.058  0.00  0.00    +0.128 A 
ATOM     39  F   UNL     1      -0.674   4.698   2.710  0.00  0.00    -0.205 F 
ENDBRANCH  32  33
ENDBRANCH  10  32
TORSDOF 7
