REMARK  Name = ZINC10785856
REMARK  8 active torsions:
REMARK  status: ('A' for Active; 'I' for Inactive)
REMARK    1  A    between atoms: C_1  and  C_2
REMARK    2  A    between atoms: C_9  and  N_18
REMARK    3  A    between atoms: C_10  and  C_11
REMARK    4  A    between atoms: C_14  and  O_16
REMARK    5  A    between atoms: O_16  and  C_17
REMARK    6  A    between atoms: C_19  and  C_21
REMARK    7  A    between atoms: N_27  and  S_28
REMARK    8  A    between atoms: S_28  and  C_31
REMARK                            x       y       z     vdW  Elec       q    Type
REMARK                         _______ _______ _______ _____ _____    ______ ____
ROOT
ATOM      1  C   UNL     1       6.303  -6.413   3.239  0.00  0.00    +0.008 C 
ATOM      2  C   UNL     1       5.257  -6.399   2.123  0.00  0.00    -0.009 C 
ATOM      3  C   UNL     1       5.958  -6.401   0.761  0.00  0.00    +0.008 C 
ATOM      4  C   UNL     1       4.935  -6.638  -0.351  0.00  0.00    +0.037 C 
ATOM      5  C   UNL     1       3.797  -5.636  -0.192  0.00  0.00    -0.023 A 
ATOM      6  C   UNL     1       3.598  -4.990   0.977  0.00  0.00    -0.004 A 
ATOM      7  S   UNL     1       2.197  -3.947   0.684  0.00  0.00    -0.077 S 
ATOM      8  C   UNL     1       1.873  -4.370  -0.965  0.00  0.00    +0.084 A 
ATOM      9  C   UNL     1       2.861  -5.303  -1.252  0.00  0.00    +0.069 A 
ATOM     10  C   UNL     1       4.398  -5.130   2.235  0.00  0.00    +0.046 C 
ENDROOT
BRANCH   9  11
ATOM     11  C   UNL     1       2.955  -5.927  -2.574  0.00  0.00    +0.255 C 
ATOM     12  O   UNL     1       3.632  -5.412  -3.443  0.00  0.00    -0.270 OA
ATOM     13  N   UNL     1       2.291  -7.072  -2.827  0.00  0.00    -0.217 N 
ATOM     14  C   UNL     1       2.377  -7.647  -4.043  0.00  0.00    +0.407 C 
ATOM     15  O   UNL     1       3.054  -7.132  -4.911  0.00  0.00    -0.226 OA
ATOM     16  H   UNL     1       1.750  -7.483  -2.134  0.00  0.00    +0.161 HD
BRANCH  14  17
ATOM     17  O   UNL     1       1.714  -8.790  -4.296  0.00  0.00    -0.453 OA
ATOM     18  C   UNL     1       1.853  -9.353  -5.628  0.00  0.00    +0.282 C 
ENDBRANCH  14  17
ENDBRANCH   9  11
BRANCH   8  19
ATOM     19  N   UNL     1       0.874  -3.889  -1.796  0.00  0.00    -0.278 N 
ATOM     20  C   UNL     1      -0.005  -2.976  -1.337  0.00  0.00    +0.236 C 
ATOM     21  O   UNL     1       0.080  -2.575  -0.196  0.00  0.00    -0.274 OA
ATOM     22  H   UNL     1       0.806  -4.210  -2.709  0.00  0.00    +0.155 HD
BRANCH  20  23
ATOM     23  C   UNL     1      -1.091  -2.454  -2.241  0.00  0.00    +0.166 C 
ATOM     24  C   UNL     1      -0.902  -0.948  -2.454  0.00  0.00    +0.030 C 
ATOM     25  C   UNL     1      -2.084  -0.399  -3.257  0.00  0.00    +0.003 C 
ATOM     26  C   UNL     1      -3.381  -0.618  -2.474  0.00  0.00    +0.017 C 
ATOM     27  C   UNL     1      -3.598  -2.124  -2.265  0.00  0.00    +0.110 C 
ATOM     28  N   UNL     1      -2.402  -2.683  -1.619  0.00  0.00    -0.164 NA
BRANCH  28  29
ATOM     29  S   UNL     1      -2.531  -3.561  -0.221  0.00  0.00    +0.068 S 
ATOM     30  O   UNL     1      -1.376  -4.386  -0.152  0.00  0.00    -0.152 OA
ATOM     31  O   UNL     1      -3.849  -4.091  -0.194  0.00  0.00    -0.152 OA
BRANCH  29  32
ATOM     32  C   UNL     1      -2.419  -2.424   1.120  0.00  0.00    +0.143 A 
ATOM     33  C   UNL     1      -3.410  -1.748   1.752  0.00  0.00    +0.036 A 
ATOM     34  C   UNL     1      -3.084  -0.898   2.792  0.00  0.00    +0.010 A 
ATOM     35  C   UNL     1      -1.783  -0.764   3.149  0.00  0.00    +0.047 A 
ATOM     36  S   UNL     1      -0.970  -1.862   1.999  0.00  0.00    -0.077 S 
ENDBRANCH  29  32
ENDBRANCH  28  29
ENDBRANCH  20  23
ENDBRANCH   8  19
TORSDOF 6
