REMARK  Name = ZINC37064377
REMARK  6 active torsions:
REMARK  status: ('A' for Active; 'I' for Inactive)
REMARK    1  A    between atoms: C_1  and  C_2
REMARK    2  A    between atoms: C_5  and  N_21
REMARK    3  A    between atoms: C_6  and  S_9
REMARK    4  A    between atoms: C_7  and  C_8
REMARK    5  A    between atoms: S_9  and  N_12
REMARK    6  A    between atoms: N_12  and  C_13
REMARK                            x       y       z     vdW  Elec       q    Type
REMARK                         _______ _______ _______ _____ _____    ______ ____
ROOT
ATOM      1  S   UNL     1      -0.772  -2.962   2.742  0.00  0.00    +0.074 S 
ATOM      2  O   UNL     1      -1.663  -2.512   3.754  0.00  0.00    -0.150 OA
ATOM      3  O   UNL     1      -0.989  -4.166   2.018  0.00  0.00    -0.150 OA
ENDROOT
BRANCH   1   9
ATOM      4  C   UNL     1      -1.746   1.930   1.186  0.00  0.00    +0.044 C 
ATOM      5  C   UNL     1      -1.141   0.583   0.887  0.00  0.00    -0.046 A 
ATOM      6  C   UNL     1      -0.506   0.365  -0.322  0.00  0.00    +0.005 A 
ATOM      7  C   UNL     1       0.049  -0.869  -0.600  0.00  0.00    +0.025 A 
ATOM      8  C   UNL     1      -0.030  -1.891   0.337  0.00  0.00    +0.052 A 
ATOM      9  C   UNL     1      -0.668  -1.669   1.551  0.00  0.00    +0.132 A 
ATOM     10  C   UNL     1      -1.217  -0.431   1.824  0.00  0.00    -0.019 A 
ATOM     11  C   UNL     1      -1.904  -0.187   3.143  0.00  0.00    +0.046 C 
BRANCH   8  12
ATOM     12  N   UNL     1       0.530  -3.140   0.060  0.00  0.00    -0.356 N 
ATOM     13  H   UNL     1       0.747  -3.382  -0.854  0.00  0.00    +0.142 HD
ATOM     14  H   UNL     1       0.703  -3.765   0.781  0.00  0.00    +0.142 HD
ENDBRANCH   8  12
ENDBRANCH   1   9
BRANCH   1  15
ATOM     15  N   UNL     1       0.719  -3.097   3.450  0.00  0.00    -0.215 N 
ATOM     16  H   UNL     1       1.254  -3.893   3.305  0.00  0.00    +0.174 HD
BRANCH  15  17
ATOM     17  C   UNL     1       1.206  -2.064   4.257  0.00  0.00    +0.066 A 
ATOM     18  C   UNL     1       0.340  -1.357   5.081  0.00  0.00    +0.029 A 
ATOM     19  C   UNL     1       0.823  -0.337   5.877  0.00  0.00    +0.040 A 
ATOM     20  C   UNL     1       2.170  -0.018   5.854  0.00  0.00    +0.125 A 
ATOM     21  C   UNL     1       3.036  -0.720   5.034  0.00  0.00    +0.060 A 
ATOM     22  C   UNL     1       2.559  -1.746   4.240  0.00  0.00    +0.066 A 
ATOM     23 CL   UNL     1       3.646  -2.632   3.217  0.00  0.00    -0.081 Cl
ATOM     24  F   UNL     1       2.640   0.981   6.633  0.00  0.00    -0.205 F 
ENDBRANCH  15  17
ENDBRANCH   1  15
TORSDOF 4
