REMARK  Name = ZINC44855391
REMARK  7 active torsions:
REMARK  status: ('A' for Active; 'I' for Inactive)
REMARK    1  A    between atoms: C_1  and  C_2
REMARK    2  A    between atoms: C_9  and  C_30
REMARK    3  A    between atoms: C_9  and  C_31
REMARK    4  A    between atoms: C_11  and  N_13
REMARK    5  A    between atoms: C_14  and  C_16
REMARK    6  A    between atoms: N_19  and  C_22
REMARK    7  A    between atoms: C_22  and  C_23
REMARK                            x       y       z     vdW  Elec       q    Type
REMARK                         _______ _______ _______ _____ _____    ______ ____
ROOT
ATOM      1  N   UNL     1       0.972  -4.728  -1.109  0.00  0.00    -0.308 N 
ATOM      2  C   UNL     1       0.549  -4.820  -2.385  0.00  0.00    +0.216 C 
ATOM      3  O   UNL     1      -0.595  -4.532  -2.667  0.00  0.00    -0.276 OA
ATOM      4  H   UNL     1       1.887  -4.958  -0.883  0.00  0.00    +0.149 HD
ENDROOT
BRANCH   1  15
ATOM      5  C   UNL     1      -0.018   1.503   0.010  0.00  0.00    +0.044 C 
ATOM      6  C   UNL     1       0.002  -0.004   0.002  0.00  0.00    -0.047 A 
ATOM      7  C   UNL     1       0.006  -0.689  -1.199  0.00  0.00    +0.004 A 
ATOM      8  C   UNL     1       0.022  -2.070  -1.206  0.00  0.00    +0.009 A 
ATOM      9  C   UNL     1       0.036  -2.775  -0.013  0.00  0.00    +0.015 A 
ATOM     10  C   UNL     1       0.036  -2.092   1.190  0.00  0.00    +0.126 A 
ATOM     11  C   UNL     1       0.023  -0.701   1.193  0.00  0.00    +0.049 A 
ATOM     12  O   UNL     1       0.061  -2.743   2.382  0.00  0.00    -0.486 OA
ATOM     13  C   UNL     1      -0.288  -4.128   2.394  0.00  0.00    +0.107 C 
ATOM     14  C   UNL     1       0.506  -4.837   1.290  0.00  0.00    +0.074 C 
ATOM     15  C   UNL     1       0.049  -4.282  -0.062  0.00  0.00    +0.110 C 
ATOM     16  C   UNL     1      -1.788  -4.283   2.133  0.00  0.00    +0.055 C 
ATOM     17  C   UNL     1       0.064  -4.736   3.754  0.00  0.00    +0.055 C 
ENDBRANCH   1  15
BRANCH   2  18
ATOM     18  C   UNL     1       1.498  -5.279  -3.462  0.00  0.00    +0.071 C 
ATOM     19  C   UNL     1       2.686  -4.316  -3.543  0.00  0.00    -0.006 C 
ATOM     20  C   UNL     1       3.604  -4.743  -4.690  0.00  0.00    -0.078 C 
ATOM     21  N   UNL     1       2.860  -4.711  -5.955  0.00  0.00    +0.382 N 
ATOM     22  C   UNL     1       1.762  -5.684  -5.911  0.00  0.00    -0.078 C 
ATOM     23  C   UNL     1       0.773  -5.294  -4.811  0.00  0.00    -0.006 C 
ATOM     24  H   UNL     1       2.483  -3.786  -6.099  0.00  0.00    -0.081 HD
BRANCH  21  25
ATOM     25  C   UNL     1       3.766  -5.046  -7.062  0.00  0.00    -0.043 C 
BRANCH  25  26
ATOM     26  C   UNL     1       3.035  -4.894  -8.371  0.00  0.00    -0.064 A 
ATOM     27  C   UNL     1       2.348  -5.967  -8.907  0.00  0.00    +0.003 A 
ATOM     28  C   UNL     1       1.677  -5.829 -10.108  0.00  0.00    +0.015 A 
ATOM     29  C   UNL     1       1.694  -4.616 -10.773  0.00  0.00    +0.018 A 
ATOM     30  C   UNL     1       2.382  -3.543 -10.237  0.00  0.00    +0.015 A 
ATOM     31  C   UNL     1       3.048  -3.681  -9.033  0.00  0.00    +0.003 A 
ATOM     32 BR   UNL     1       0.777  -4.426 -12.416  0.00  0.00    -0.050 Br
ENDBRANCH  25  26
ENDBRANCH  21  25
ENDBRANCH   2  18
TORSDOF 4
