REMARK  Name = ZINC10785850
REMARK  8 active torsions:
REMARK  status: ('A' for Active; 'I' for Inactive)
REMARK    1  A    between atoms: C_1  and  C_2
REMARK    2  A    between atoms: C_2  and  O_3
REMARK    3  A    between atoms: O_3  and  C_4
REMARK    4  A    between atoms: C_7  and  C_9
REMARK    5  A    between atoms: C_13  and  N_14
REMARK    6  A    between atoms: C_15  and  C_17
REMARK    7  A    between atoms: N_23  and  S_24
REMARK    8  A    between atoms: S_24  and  C_27
REMARK                            x       y       z     vdW  Elec       q    Type
REMARK                         _______ _______ _______ _____ _____    ______ ____
ROOT
ATOM      1  C   UNL     1      -2.574   1.475   6.270  0.00  0.00    +0.069 A 
ATOM      2  C   UNL     1      -3.436   2.066   7.280  0.00  0.00    -0.023 A 
ATOM      3  C   UNL     1      -4.521   2.713   6.803  0.00  0.00    -0.004 A 
ATOM      4  S   UNL     1      -4.405   2.554   5.043  0.00  0.00    -0.077 S 
ATOM      5  C   UNL     1      -2.942   1.632   4.941  0.00  0.00    +0.084 A 
ATOM      6  C   UNL     1      -5.579   3.412   7.599  0.00  0.00    +0.043 C 
ATOM      7  C   UNL     1      -5.454   2.967   9.064  0.00  0.00    +0.005 C 
ATOM      8  C   UNL     1      -3.985   3.065   9.485  0.00  0.00    +0.005 C 
ATOM      9  C   UNL     1      -3.168   1.982   8.778  0.00  0.00    +0.037 C 
ENDROOT
BRANCH   1  13
ATOM     10  C   UNL     1      -0.302  -1.260   7.207  0.00  0.00    +0.407 C 
ATOM     11  O   UNL     1       0.755  -0.671   7.312  0.00  0.00    -0.226 OA
ATOM     12  N   UNL     1      -1.418  -0.585   6.865  0.00  0.00    -0.217 N 
ATOM     13  C   UNL     1      -1.361   0.742   6.641  0.00  0.00    +0.255 C 
ATOM     14  O   UNL     1      -0.302   1.332   6.747  0.00  0.00    -0.270 OA
ATOM     15  H   UNL     1      -2.262  -1.056   6.781  0.00  0.00    +0.161 HD
BRANCH  10  16
ATOM     16  O   UNL     1      -0.359  -2.586   7.431  0.00  0.00    -0.450 OA
BRANCH  16  18
ATOM     17  C   UNL     1       0.621  -4.739   8.008  0.00  0.00    +0.048 C 
ATOM     18  C   UNL     1       0.882  -3.247   7.795  0.00  0.00    +0.230 C 
ENDBRANCH  16  18
ENDBRANCH  10  16
ENDBRANCH   1  13
BRANCH   5  19
ATOM     19  N   UNL     1      -2.294   1.168   3.807  0.00  0.00    -0.278 N 
ATOM     20  C   UNL     1      -2.808   1.420   2.586  0.00  0.00    +0.236 C 
ATOM     21  O   UNL     1      -3.837   2.053   2.480  0.00  0.00    -0.274 OA
ATOM     22  H   UNL     1      -1.471   0.661   3.891  0.00  0.00    +0.155 HD
BRANCH  20  23
ATOM     23  C   UNL     1      -2.103   0.915   1.353  0.00  0.00    +0.166 C 
ATOM     24  C   UNL     1      -1.652   2.103   0.498  0.00  0.00    +0.030 C 
ATOM     25  C   UNL     1      -1.062   1.585  -0.816  0.00  0.00    +0.003 C 
ATOM     26  C   UNL     1      -2.134   0.813  -1.589  0.00  0.00    +0.017 C 
ATOM     27  C   UNL     1      -2.591  -0.389  -0.757  0.00  0.00    +0.110 C 
ATOM     28  N   UNL     1      -3.025   0.087   0.564  0.00  0.00    -0.164 NA
BRANCH  28  29
ATOM     29  S   UNL     1      -4.523  -0.303   1.151  0.00  0.00    +0.068 S 
ATOM     30  O   UNL     1      -4.912  -1.507   0.505  0.00  0.00    -0.152 OA
ATOM     31  O   UNL     1      -4.447  -0.188   2.566  0.00  0.00    -0.152 OA
BRANCH  29  32
ATOM     32  C   UNL     1      -5.639   0.946   0.604  0.00  0.00    +0.143 A 
ATOM     33  C   UNL     1      -6.371   0.996  -0.536  0.00  0.00    +0.036 A 
ATOM     34  C   UNL     1      -7.192   2.086  -0.757  0.00  0.00    +0.010 A 
ATOM     35  C   UNL     1      -7.232   3.077   0.166  0.00  0.00    +0.047 A 
ATOM     36  S   UNL     1      -6.091   2.478   1.401  0.00  0.00    -0.077 S 
ENDBRANCH  29  32
ENDBRANCH  28  29
ENDBRANCH  20  23
ENDBRANCH   5  19
TORSDOF 7
