REMARK  Name = ZINC45108677
REMARK  4 active torsions:
REMARK  status: ('A' for Active; 'I' for Inactive)
REMARK    1  A    between atoms: C_1  and  C_2
REMARK    2  A    between atoms: C_2  and  C_3
REMARK    3  A    between atoms: C_2  and  C_4
REMARK    4  A    between atoms: C_2  and  N_7
REMARK                            x       y       z     vdW  Elec       q    Type
REMARK                         _______ _______ _______ _____ _____    ______ ____
ROOT
ATOM      1  N   UNL     1       0.688  -0.476  -1.203  0.00  0.00    -0.310 N 
ATOM      2  C   UNL     1       2.002  -0.124  -1.432  0.00  0.00    +0.160 A 
ATOM      3  N   UNL     1       2.798   0.614  -0.692  0.00  0.00    -0.225 NA
ATOM      4  C   UNL     1       4.076   0.879  -1.044  0.00  0.00    +0.081 A 
ATOM      5  C   UNL     1       5.031   1.652  -0.344  0.00  0.00    +0.044 A 
ATOM      6  C   UNL     1       6.296   1.825  -0.844  0.00  0.00    +0.020 A 
ATOM      7  C   UNL     1       6.683   1.251  -2.047  0.00  0.00    +0.016 A 
ATOM      8  C   UNL     1       5.774   0.488  -2.758  0.00  0.00    +0.018 A 
ATOM      9  C   UNL     1       4.506   0.311  -2.264  0.00  0.00    +0.041 A 
ATOM     10  S   UNL     1       3.057  -0.561  -2.808  0.00  0.00    -0.052 S 
ATOM     11 BR   UNL     1       7.539   2.868   0.125  0.00  0.00    -0.050 Br
ATOM     12  H   UNL     1       0.218  -1.037  -1.840  0.00  0.00    +0.149 HD
ENDROOT
BRANCH   1  14
ATOM     13  C   UNL     1      -0.019   1.526   0.010  0.00  0.00    +0.041 C 
ATOM     14  C   UNL     1       0.002  -0.004   0.002  0.00  0.00    +0.104 C 
ATOM     15  C   UNL     1       0.742  -0.511   1.242  0.00  0.00    +0.041 C 
BRANCH  14  16
ATOM     16  C   UNL     1      -1.412  -0.526   0.013  0.00  0.00    +0.233 C 
ATOM     17  O   UNL     1      -1.939  -0.827   1.062  0.00  0.00    -0.274 OA
ATOM     18  N   UNL     1      -2.090  -0.657  -1.144  0.00  0.00    -0.328 N 
ATOM     19  H   UNL     1      -1.669  -0.416  -1.984  0.00  0.00    +0.145 HD
ATOM     20  H   UNL     1      -3.000  -0.993  -1.137  0.00  0.00    +0.145 HD
ENDBRANCH  14  16
ENDBRANCH   1  14
TORSDOF 2
