REMARK  Name = ZINC38649801
REMARK  13 active torsions:
REMARK  status: ('A' for Active; 'I' for Inactive)
REMARK    1  A    between atoms: C_1  and  C_2
REMARK    2  A    between atoms: C_2  and  C_4
REMARK    3  A    between atoms: C_2  and  O_31
REMARK    4  A    between atoms: C_4  and  O_6
REMARK    5  A    between atoms: O_6  and  C_7
REMARK    6  A    between atoms: C_14  and  N_30
REMARK    7  A    between atoms: C_15  and  C_28
REMARK    8  A    between atoms: C_16  and  C_18
REMARK    9  A    between atoms: C_21  and  C_24
REMARK   10  A    between atoms: C_24  and  C_25
REMARK   11  A    between atoms: C_24  and  C_26
REMARK   12  A    between atoms: C_24  and  C_27
REMARK   13  A    between atoms: O_31  and  C_32
REMARK                            x       y       z     vdW  Elec       q    Type
REMARK                         _______ _______ _______ _____ _____    ______ ____
ROOT
ATOM      1  C   UNL     1       1.553  -1.271   3.254  0.00  0.00    +0.135 A 
ATOM      2  C   UNL     1       2.778  -1.579   2.678  0.00  0.00    +0.047 A 
ATOM      3  C   UNL     1       3.751  -2.215   3.424  0.00  0.00    +0.012 A 
ATOM      4  C   UNL     1       3.510  -2.547   4.746  0.00  0.00    +0.008 A 
ATOM      5  C   UNL     1       2.288  -2.242   5.325  0.00  0.00    +0.138 A 
ATOM      6  C   UNL     1       1.311  -1.597   4.578  0.00  0.00    +0.093 A 
ATOM      7  O   UNL     1       2.033  -2.559   6.619  0.00  0.00    -0.441 OA
ATOM      8  C   UNL     1       3.050  -2.814   7.459  0.00  0.00    +0.199 C 
ATOM      9  C   UNL     1       4.285  -3.143   7.012  0.00  0.00    +0.098 C 
ATOM     10  C   UNL     1       4.583  -3.241   5.542  0.00  0.00    +0.098 C 
ENDROOT
BRANCH  10  11
ATOM     11  C   UNL     1       4.642  -4.693   5.141  0.00  0.00    -0.035 A 
ATOM     12  C   UNL     1       3.530  -5.498   5.295  0.00  0.00    +0.005 A 
ATOM     13  C   UNL     1       3.584  -6.830   4.927  0.00  0.00    +0.004 A 
ATOM     14  C   UNL     1       4.751  -7.355   4.405  0.00  0.00    -0.042 A 
ATOM     15  C   UNL     1       5.864  -6.549   4.250  0.00  0.00    +0.004 A 
ATOM     16  C   UNL     1       5.808  -5.217   4.614  0.00  0.00    +0.005 A 
BRANCH  14  17
ATOM     17  C   UNL     1       4.811  -8.807   4.005  0.00  0.00    -0.013 C 
ATOM     18  C   UNL     1       3.766  -9.081   2.922  0.00  0.00    +0.015 C 
ATOM     19  C   UNL     1       6.205  -9.129   3.462  0.00  0.00    +0.015 C 
ATOM     20  C   UNL     1       4.524  -9.684   5.225  0.00  0.00    +0.015 C 
ENDBRANCH  14  17
ENDBRANCH  10  11
BRANCH   8  21
ATOM     21  N   UNL     1       2.830  -2.737   8.812  0.00  0.00    -0.328 N 
ATOM     22  H   UNL     1       1.951  -2.503   9.148  0.00  0.00    +0.145 HD
ATOM     23  H   UNL     1       3.554  -2.918   9.432  0.00  0.00    +0.145 HD
ENDBRANCH   8  21
BRANCH   9  24
ATOM     24  C   UNL     1       5.328  -3.401   7.958  0.00  0.00    +0.101 C 
ATOM     25  N   UNL     1       6.156  -3.606   8.708  0.00  0.00    -0.191 NA
ENDBRANCH   9  24
BRANCH   1  26
ATOM     26  O   UNL     1       0.595  -0.645   2.520  0.00  0.00    -0.423 OA
BRANCH  26  27
ATOM     27  C   UNL     1      -0.095  -1.376   1.630  0.00  0.00    +0.353 C 
ATOM     28  O   UNL     1       0.107  -2.564   1.538  0.00  0.00    -0.246 OA
BRANCH  27  30
ATOM     29  C   UNL     1      -0.427   0.273  -0.192  0.00  0.00    +0.064 C 
ATOM     30  C   UNL     1      -1.122  -0.715   0.747  0.00  0.00    +0.279 C 
BRANCH  30  31
ATOM     31  O   UNL     1      -1.798  -1.710  -0.024  0.00  0.00    -0.475 OA
BRANCH  31  32
ATOM     32  C   UNL     1      -3.035  -1.394  -0.491  0.00  0.00    +0.157 A 
ATOM     33  C   UNL     1      -3.567  -0.136  -0.253  0.00  0.00    +0.048 A 
ATOM     34  C   UNL     1      -4.824   0.183  -0.729  0.00  0.00    +0.004 A 
ATOM     35  C   UNL     1      -5.554  -0.750  -1.441  0.00  0.00    +0.003 A 
ATOM     36  C   UNL     1      -5.028  -2.006  -1.680  0.00  0.00    +0.042 A 
ATOM     37  C   UNL     1      -3.767  -2.329  -1.212  0.00  0.00    +0.165 A 
ATOM     38  F   UNL     1      -3.250  -3.554  -1.451  0.00  0.00    -0.202 F 
ENDBRANCH  31  32
ENDBRANCH  30  31
ENDBRANCH  27  30
ENDBRANCH  26  27
ENDBRANCH   1  26
TORSDOF 9
