REMARK  Name = ZINC39683345
REMARK  11 active torsions:
REMARK  status: ('A' for Active; 'I' for Inactive)
REMARK    1  A    between atoms: C_1  and  C_2
REMARK    2  A    between atoms: C_2  and  C_3
REMARK    3  A    between atoms: C_2  and  C_4
REMARK    4  A    between atoms: C_4  and  O_5
REMARK    5  A    between atoms: O_5  and  C_6
REMARK    6  A    between atoms: C_6  and  C_7
REMARK    7  A    between atoms: C_7  and  C_8
REMARK    8  A    between atoms: C_8  and  N_9
REMARK    9  A    between atoms: C_10  and  C_12
REMARK   10  A    between atoms: C_23  and  C_25
REMARK   11  A    between atoms: C_28  and  C_30
REMARK                            x       y       z     vdW  Elec       q    Type
REMARK                         _______ _______ _______ _____ _____    ______ ____
ROOT
ATOM      1  C   UNL     1      -7.931  -0.051  -5.615  0.00  0.00    +0.100 C 
ATOM      2  C   UNL     1      -8.086   1.486  -5.636  0.00  0.00    +0.121 C 
ATOM      3  N   UNL     1      -9.357   1.724  -6.359  0.00  0.00    -0.294 N 
ATOM      4  C   UNL     1     -10.261   0.652  -5.878  0.00  0.00    +0.115 C 
ATOM      5  C   UNL     1      -9.360  -0.595  -5.774  0.00  0.00    -0.004 C 
ATOM      6  C   UNL     1      -9.469  -1.432  -7.044  0.00  0.00    -0.010 C 
ATOM      7  C   UNL     1     -10.884  -2.008  -7.150  0.00  0.00    -0.082 C 
ATOM      8  N   UNL     1     -11.168  -2.834  -5.970  0.00  0.00    +0.379 N 
ATOM      9  C   UNL     1     -11.152  -2.001  -4.761  0.00  0.00    -0.082 C 
ATOM     10  C   UNL     1      -9.749  -1.425  -4.554  0.00  0.00    -0.010 C 
ATOM     11  C   UNL     1      -9.631   2.696  -7.252  0.00  0.00    +0.282 C 
ATOM     12  O   UNL     1     -10.733   2.760  -7.764  0.00  0.00    -0.267 OA
ATOM     13  H   UNL     1     -12.077  -3.261  -6.070  0.00  0.00    -0.086 HD
ATOM     14  H   UNL     1     -10.467  -3.555  -5.889  0.00  0.00    -0.086 HD
ENDROOT
BRANCH  11  15
ATOM     15  C   UNL     1      -8.601   3.675  -7.607  0.00  0.00    +0.190 A 
ATOM     16  C   UNL     1      -8.747   4.718  -8.496  0.00  0.00    +0.055 A 
ATOM     17  C   UNL     1      -7.524   5.394  -8.530  0.00  0.00    +0.050 A 
ATOM     18  C   UNL     1      -6.683   4.747  -7.670  0.00  0.00    +0.136 A 
ATOM     19  O   UNL     1      -7.344   3.718  -7.115  0.00  0.00    -0.450 OA
BRANCH  18  20
ATOM     20  C   UNL     1      -5.282   5.122  -7.391  0.00  0.00    +0.017 A 
ATOM     21  C   UNL     1      -4.712   6.226  -8.027  0.00  0.00    +0.014 A 
ATOM     22  C   UNL     1      -3.404   6.571  -7.763  0.00  0.00    +0.039 A 
ATOM     23  C   UNL     1      -2.655   5.824  -6.867  0.00  0.00    +0.123 A 
ATOM     24  C   UNL     1      -3.215   4.727  -6.233  0.00  0.00    +0.039 A 
ATOM     25  C   UNL     1      -4.525   4.376  -6.485  0.00  0.00    +0.014 A 
ATOM     26  F   UNL     1      -1.373   6.167  -6.612  0.00  0.00    -0.205 F 
ENDBRANCH  18  20
ENDBRANCH  11  15
BRANCH   1  28
ATOM     27  N   UNL     1      -6.604  -1.628  -4.247  0.00  0.00    -0.315 N 
ATOM     28  C   UNL     1      -7.340  -0.501  -4.303  0.00  0.00    +0.218 C 
ATOM     29  O   UNL     1      -7.529   0.151  -3.299  0.00  0.00    -0.275 OA
ATOM     30  H   UNL     1      -6.453  -2.150  -5.051  0.00  0.00    +0.149 HD
BRANCH  27  31
ATOM     31  C   UNL     1      -6.030  -2.065  -2.972  0.00  0.00    +0.106 C 
BRANCH  31  32
ATOM     32  C   UNL     1      -5.245  -3.362  -3.184  0.00  0.00    +0.047 C 
BRANCH  32  33
ATOM     33  C   UNL     1      -4.646  -3.819  -1.852  0.00  0.00    +0.161 C 
BRANCH  33  34
ATOM     34  O   UNL     1      -3.914  -5.029  -2.050  0.00  0.00    -0.379 OA
BRANCH  34  35
ATOM     35  C   UNL     1      -3.310  -5.544  -0.861  0.00  0.00    +0.162 C 
BRANCH  35  37
ATOM     36  C   UNL     1      -1.393  -6.520  -2.131  0.00  0.00    +0.009 C 
ATOM     37  C   UNL     1      -2.557  -6.835  -1.190  0.00  0.00    +0.009 C 
ATOM     38  C   UNL     1      -2.016  -7.452   0.102  0.00  0.00    +0.009 C 
ENDBRANCH  35  37
ENDBRANCH  34  35
ENDBRANCH  33  34
ENDBRANCH  32  33
ENDBRANCH  31  32
ENDBRANCH  27  31
ENDBRANCH   1  28
TORSDOF 9
