REMARK  Name = ZINC22838592
REMARK  7 active torsions:
REMARK  status: ('A' for Active; 'I' for Inactive)
REMARK    1  A    between atoms: C_1  and  C_2
REMARK    2  A    between atoms: C_11  and  N_29
REMARK    3  A    between atoms: C_13  and  S_15
REMARK    4  A    between atoms: S_15  and  C_16
REMARK    5  A    between atoms: C_16  and  C_17
REMARK    6  A    between atoms: N_19  and  C_20
REMARK    7  A    between atoms: N_19  and  C_21
REMARK                            x       y       z     vdW  Elec       q    Type
REMARK                         _______ _______ _______ _____ _____    ______ ____
ROOT
ATOM      1  C   UNL     1       8.222   1.233 -12.405  0.00  0.00    +0.008 C 
ATOM      2  C   UNL     1       7.208   1.147 -11.261  0.00  0.00    -0.009 C 
ATOM      3  C   UNL     1       6.856   2.558 -10.780  0.00  0.00    +0.008 C 
ATOM      4  C   UNL     1       6.042   2.478  -9.488  0.00  0.00    +0.037 C 
ATOM      5  C   UNL     1       4.857   1.542  -9.709  0.00  0.00    -0.025 A 
ATOM      6  C   UNL     1       4.854   0.665 -10.732  0.00  0.00    -0.004 A 
ATOM      7  S   UNL     1       3.310  -0.196 -10.600  0.00  0.00    -0.073 S 
ATOM      8  C   UNL     1       2.668   0.626  -9.164  0.00  0.00    +0.115 A 
ATOM      9  C   UNL     1       3.682   1.548  -8.835  0.00  0.00    +0.051 A 
ATOM     10  C   UNL     1       3.425   2.360  -7.695  0.00  0.00    +0.129 A 
ATOM     11  N   UNL     1       2.290   2.207  -7.035  0.00  0.00    -0.207 NA
ATOM     12  C   UNL     1       1.375   1.317  -7.400  0.00  0.00    +0.191 A 
ATOM     13  N   UNL     1       1.563   0.529  -8.451  0.00  0.00    -0.214 NA
ATOM     14  C   UNL     1       5.927   0.463 -11.759  0.00  0.00    +0.046 C 
ENDROOT
BRANCH  10  15
ATOM     15  N   UNL     1       4.353   3.299  -7.283  0.00  0.00    -0.343 N 
ATOM     16  H   UNL     1       4.149   3.924  -6.401  0.00  0.00    +0.144 HD
ATOM     17  H   UNL     1       5.295   3.421  -7.837  0.00  0.00    +0.144 HD
ENDBRANCH  10  15
BRANCH  12  18
ATOM     18  S   UNL     1      -0.113   1.173  -6.468  0.00  0.00    -0.077 S 
BRANCH  18  19
ATOM     19  C   UNL     1       0.183   2.438  -5.207  0.00  0.00    +0.173 C 
BRANCH  19  20
ATOM     20  C   UNL     1      -0.994   2.496  -4.268  0.00  0.00    +0.226 C 
ATOM     21  O   UNL     1      -1.940   1.756  -4.434  0.00  0.00    -0.275 OA
ATOM     22  N   UNL     1      -0.995   3.371  -3.243  0.00  0.00    -0.299 N 
ATOM     23  C   UNL     1       0.147   4.265  -3.041  0.00  0.00    +0.132 C 
BRANCH  22  24
ATOM     24  C   UNL     1      -2.140   3.428  -2.330  0.00  0.00    +0.098 C 
ATOM     25  C   UNL     1      -2.764   4.832  -2.380  0.00  0.00    +0.046 C 
ATOM     26  C   UNL     1      -3.759   4.963  -1.192  0.00  0.00    +0.168 C 
ATOM     27  S   UNL     1      -2.801   4.121   0.145  0.00  0.00    -0.029 S 
ATOM     28  O   UNL     1      -3.670   3.252   0.860  0.00  0.00    -0.174 OA
ATOM     29  O   UNL     1      -2.042   5.091   0.855  0.00  0.00    -0.174 OA
ATOM     30  C   UNL     1      -1.665   3.112  -0.891  0.00  0.00    +0.188 C 
ENDBRANCH  22  24
ENDBRANCH  19  20
ENDBRANCH  18  19
ENDBRANCH  12  18
TORSDOF 5
