REMARK  Name = ZINC43218948
REMARK  7 active torsions:
REMARK  status: ('A' for Active; 'I' for Inactive)
REMARK    1  A    between atoms: C_1  and  N_2
REMARK    2  A    between atoms: N_2  and  C_3
REMARK    3  A    between atoms: N_2  and  C_4
REMARK    4  A    between atoms: C_7  and  C_10
REMARK    5  A    between atoms: N_18  and  C_21
REMARK    6  A    between atoms: C_27  and  C_29
REMARK    7  A    between atoms: C_27  and  C_35
REMARK                            x       y       z     vdW  Elec       q    Type
REMARK                         _______ _______ _______ _____ _____    ______ ____
ROOT
ATOM      1  C   UNL     1      -0.006  -2.813  -4.924  0.00  0.00    -0.026 C 
ATOM      2  C   UNL     1      -1.404  -2.828  -5.534  0.00  0.00    +0.077 C 
ATOM      3  C   UNL     1      -0.973  -3.201  -7.003  0.00  0.00    +0.090 C 
ATOM      4  C   UNL     1      -2.219  -3.650  -7.576  0.00  0.00    +0.225 C 
ATOM      5  O   UNL     1      -2.592  -3.525  -8.723  0.00  0.00    -0.275 OA
ATOM      6  N   UNL     1      -2.890  -4.250  -6.540  0.00  0.00    -0.239 N 
ATOM      7  C   UNL     1      -2.334  -3.978  -5.306  0.00  0.00    +0.225 C 
ATOM      8  O   UNL     1      -2.544  -4.548  -4.258  0.00  0.00    -0.275 OA
ATOM      9  C   UNL     1       0.124  -2.266  -7.285  0.00  0.00    +0.074 C 
ATOM     10  N   UNL     1       0.808  -2.084  -5.951  0.00  0.00    +0.398 N 
ATOM     11  H   UNL     1       0.844  -1.101  -5.725  0.00  0.00    -0.083 HD
ATOM     12  H   UNL     1       1.743  -2.464  -5.979  0.00  0.00    -0.083 HD
ENDROOT
BRANCH   1  16
ATOM     13  C   UNL     1       0.000  -0.696  -1.211  0.00  0.00    +0.029 A 
ATOM     14  C   UNL     1       0.013  -2.085  -1.221  0.00  0.00    +0.023 A 
ATOM     15  C   UNL     1       0.010  -2.766  -2.422  0.00  0.00    +0.004 A 
ATOM     16  C   UNL     1      -0.005  -2.066  -3.615  0.00  0.00    -0.060 A 
ATOM     17  C   UNL     1      -0.018  -0.684  -3.609  0.00  0.00    +0.004 A 
ATOM     18  C   UNL     1      -0.021   0.004  -2.411  0.00  0.00    +0.023 A 
BRANCH  13  20
ATOM     19  C   UNL     1      -0.018   1.461   0.010  0.00  0.00    +0.129 C 
ATOM     20  N   UNL     1       0.002  -0.004   0.002  0.00  0.00    -0.336 N 
ATOM     21  C   UNL     1       0.024  -0.743   1.267  0.00  0.00    +0.129 C 
ENDBRANCH  13  20
ENDBRANCH   1  16
BRANCH   6  22
ATOM     22  C   UNL     1      -4.082  -5.082  -6.719  0.00  0.00    +0.084 C 
ATOM     23  C   UNL     1      -5.254  -4.466  -5.952  0.00  0.00    +0.023 C 
ATOM     24  C   UNL     1      -6.499  -5.336  -6.139  0.00  0.00    +0.002 C 
ATOM     25  C   UNL     1      -6.223  -6.743  -5.605  0.00  0.00    +0.000 C 
ATOM     26  C   UNL     1      -5.051  -7.359  -6.372  0.00  0.00    +0.002 C 
ATOM     27  C   UNL     1      -3.807  -6.489  -6.185  0.00  0.00    +0.023 C 
ENDBRANCH   6  22
BRANCH   9  28
ATOM     28  C   UNL     1       1.087  -2.870  -8.275  0.00  0.00    -0.047 A 
ATOM     29  C   UNL     1       0.632  -3.767  -9.223  0.00  0.00    +0.003 A 
ATOM     30  C   UNL     1       1.516  -4.320 -10.131  0.00  0.00    +0.000 A 
ATOM     31  C   UNL     1       2.854  -3.977 -10.090  0.00  0.00    +0.000 A 
ATOM     32  C   UNL     1       3.309  -3.080  -9.141  0.00  0.00    +0.000 A 
ATOM     33  C   UNL     1       2.425  -2.523  -8.237  0.00  0.00    +0.003 A 
ENDBRANCH   9  28
BRANCH   9  34
ATOM     34  C   UNL     1      -0.419  -0.961  -7.808  0.00  0.00    +0.350 C 
ATOM     35  O   UNL     1      -0.200   0.075  -7.205  0.00  0.00    -0.248 OA
ATOM     36  O   UNL     1      -1.077  -0.942  -8.835  0.00  0.00    -0.248 OA
ENDBRANCH   9  34
TORSDOF 5
