REMARK  Name = ZINC63706834
REMARK  8 active torsions:
REMARK  status: ('A' for Active; 'I' for Inactive)
REMARK    1  A    between atoms: N_9  and  C_11
REMARK    2  A    between atoms: C_11  and  C_13
REMARK    3  A    between atoms: C_11  and  C_31
REMARK    4  A    between atoms: C_13  and  N_14
REMARK    5  A    between atoms: C_15  and  C_17
REMARK    6  A    between atoms: N_19  and  C_20
REMARK    7  A    between atoms: C_20  and  C_21
REMARK    8  A    between atoms: C_21  and  C_22
REMARK                            x       y       z     vdW  Elec       q    Type
REMARK                         _______ _______ _______ _____ _____    ______ ____
ROOT
ATOM      1  N   UNL     1       5.305  -2.065   2.540  0.00  0.00    -0.306 N 
ATOM      2  C   UNL     1       6.006  -1.486   3.535  0.00  0.00    +0.299 C 
ATOM      3  O   UNL     1       7.087  -0.985   3.304  0.00  0.00    -0.265 OA
ATOM      4  H   UNL     1       4.441  -2.466   2.725  0.00  0.00    +0.149 HD
ENDROOT
BRANCH   2   5
ATOM      5  C   UNL     1       5.452  -1.460   4.923  0.00  0.00    +0.299 C 
ATOM      6  O   UNL     1       4.371  -1.961   5.154  0.00  0.00    -0.265 OA
ATOM      7  N   UNL     1       6.152  -0.881   5.918  0.00  0.00    -0.307 N 
ATOM      8  H   UNL     1       7.016  -0.481   5.733  0.00  0.00    +0.149 HD
BRANCH   7   9
ATOM      9  C   UNL     1       5.609  -0.856   7.278  0.00  0.00    +0.109 C 
BRANCH   9  10
ATOM     10  C   UNL     1       6.595  -0.146   8.208  0.00  0.00    +0.052 C 
BRANCH  10  11
ATOM     11  C   UNL     1       6.036  -0.120   9.607  0.00  0.00    -0.040 C 
ATOM     12  C   UNL     1       6.296  -0.998  10.603  0.00  0.00    -0.001 A 
ATOM     13  C   UNL     1       7.143  -2.194  10.678  0.00  0.00    +0.010 A 
ATOM     14  C   UNL     1       7.202  -2.885  11.839  0.00  0.00    +0.001 A 
ATOM     15  C   UNL     1       6.474  -2.489  12.970  0.00  0.00    +0.002 A 
ATOM     16  C   UNL     1       5.675  -1.401  12.978  0.00  0.00    +0.026 A 
ATOM     17  C   UNL     1       5.538  -0.600  11.811  0.00  0.00    +0.043 A 
ATOM     18  N   UNL     1       4.838   0.482  11.572  0.00  0.00    -0.380 N 
ATOM     19  C   UNL     1       5.076   0.896  10.184  0.00  0.00    +0.144 C 
ATOM     20  H   UNL     1       4.261   0.934  12.206  0.00  0.00    +0.160 HD
ENDBRANCH  10  11
ENDBRANCH   9  10
ENDBRANCH   7   9
ENDBRANCH   2   5
BRANCH   1  21
ATOM     21  C   UNL     1       5.849  -2.090   1.180  0.00  0.00    +0.128 C 
BRANCH  21  22
ATOM     22  C   UNL     1       4.863  -2.801   0.250  0.00  0.00    +0.111 C 
BRANCH  22  31
ATOM     23  C   UNL     1      -0.162   1.208   0.197  0.00  0.00    +0.000 A 
ATOM     24  C   UNL     1       0.989   1.938   0.431  0.00  0.00    +0.000 A 
ATOM     25  C   UNL     1       2.216   1.307   0.427  0.00  0.00    +0.005 A 
ATOM     26  C   UNL     1       2.303  -0.057   0.190  0.00  0.00    -0.030 A 
ATOM     27  C   UNL     1       1.156  -0.785  -0.039  0.00  0.00    -0.042 A 
ATOM     28  C   UNL     1      -0.077  -0.150  -0.037  0.00  0.00    +0.004 A 
ATOM     29  C   UNL     1       1.198  -2.271  -0.288  0.00  0.00    +0.051 C 
ATOM     30  C   UNL     1       2.619  -2.697  -0.660  0.00  0.00    +0.090 C 
ATOM     31  N   UNL     1       3.548  -2.153   0.344  0.00  0.00    -0.289 NA
ATOM     32  C   UNL     1       3.666  -0.699   0.191  0.00  0.00    +0.120 C 
ENDBRANCH  22  31
BRANCH  22  33
ATOM     33  C   UNL     1       5.363  -2.719  -1.169  0.00  0.00    +0.008 A 
ATOM     34  C   UNL     1       5.876  -3.700  -1.952  0.00  0.00    +0.013 A 
ATOM     35  C   UNL     1       6.274  -3.392  -3.239  0.00  0.00    +0.008 A 
ATOM     36  C   UNL     1       6.141  -2.117  -3.680  0.00  0.00    +0.045 A 
ATOM     37  S   UNL     1       5.427  -1.306  -2.259  0.00  0.00    -0.100 S 
ENDBRANCH  22  33
ENDBRANCH  21  22
ENDBRANCH   1  21
TORSDOF 8
