REMARK  Name = ZINC10121225
REMARK  14 active torsions:
REMARK  status: ('A' for Active; 'I' for Inactive)
REMARK    1  A    between atoms: C_1  and  C_2
REMARK    2  A    between atoms: C_2  and  C_3
REMARK    3  A    between atoms: C_3  and  C_5
REMARK    4  A    between atoms: C_3  and  O_6
REMARK    5  A    between atoms: O_6  and  C_7
REMARK    6  A    between atoms: C_11  and  C_13
REMARK    7  A    between atoms: N_15  and  C_16
REMARK    8  A    between atoms: C_16  and  N_18
REMARK    9  A    between atoms: N_18  and  C_19
REMARK   10  A    between atoms: C_22  and  S_25
REMARK   11  A    between atoms: S_25  and  N_28
REMARK   12  A    between atoms: N_28  and  C_29
REMARK   13  A    between atoms: C_31  and  C_36
REMARK   14  A    between atoms: C_33  and  C_35
REMARK                            x       y       z     vdW  Elec       q    Type
REMARK                         _______ _______ _______ _____ _____    ______ ____
ROOT
ATOM      1  N   UNL     1       2.557   7.307  -0.404  0.00  0.00    -0.297 N 
ATOM      2  H   UNL     1       2.340   8.007  -1.040  0.00  0.00    +0.154 HD
ENDROOT
BRANCH   1   3
ATOM      3  C   UNL     1       1.592   6.359  -0.051  0.00  0.00    +0.033 A 
ATOM      4  C   UNL     1       1.468   5.951   1.271  0.00  0.00    +0.025 A 
ATOM      5  C   UNL     1       0.513   5.015   1.617  0.00  0.00    +0.030 A 
ATOM      6  C   UNL     1      -0.319   4.484   0.648  0.00  0.00    +0.109 A 
ATOM      7  C   UNL     1      -0.194   4.883  -0.670  0.00  0.00    +0.030 A 
ATOM      8  C   UNL     1       0.755   5.823  -1.021  0.00  0.00    +0.025 A 
BRANCH   6   9
ATOM      9  S   UNL     1      -1.535   3.289   1.093  0.00  0.00    +0.072 S 
ATOM     10  O   UNL     1      -1.137   2.751   2.347  0.00  0.00    -0.150 OA
ATOM     11  O   UNL     1      -1.743   2.475  -0.053  0.00  0.00    -0.150 OA
BRANCH   9  12
ATOM     12  N   UNL     1      -2.951   4.106   1.357  0.00  0.00    -0.216 N 
ATOM     13  H   UNL     1      -3.360   4.096   2.236  0.00  0.00    +0.174 HD
BRANCH  12  14
ATOM     14  C   UNL     1      -3.555   4.811   0.313  0.00  0.00    +0.049 A 
ATOM     15  C   UNL     1      -3.496   6.198   0.284  0.00  0.00    +0.028 A 
ATOM     16  C   UNL     1      -4.099   6.892  -0.746  0.00  0.00    -0.048 A 
ATOM     17  C   UNL     1      -4.762   6.207  -1.748  0.00  0.00    +0.006 A 
ATOM     18  C   UNL     1      -4.824   4.826  -1.722  0.00  0.00    -0.048 A 
ATOM     19  C   UNL     1      -4.222   4.126  -0.694  0.00  0.00    +0.028 A 
ATOM     20  C   UNL     1      -5.547   4.084  -2.816  0.00  0.00    +0.044 C 
ATOM     21  C   UNL     1      -4.035   8.397  -0.779  0.00  0.00    +0.044 C 
ENDBRANCH  12  14
ENDBRANCH   9  12
ENDBRANCH   6   9
ENDBRANCH   1   3
BRANCH   1  22
ATOM     22  C   UNL     1       3.790   7.249   0.138  0.00  0.00    +0.141 C 
ATOM     23  S   UNL     1       4.215   5.941   1.158  0.00  0.00    -0.018 S 
BRANCH  22  26
ATOM     24  C   UNL     1       5.920   8.161   0.421  0.00  0.00    +0.250 C 
ATOM     25  O   UNL     1       6.221   7.233   1.145  0.00  0.00    -0.270 OA
ATOM     26  N   UNL     1       4.687   8.220  -0.122  0.00  0.00    -0.264 N 
ATOM     27  H   UNL     1       4.446   8.961  -0.699  0.00  0.00    +0.157 HD
BRANCH  24  32
ATOM     28  C   UNL     1       9.097  10.170   0.425  0.00  0.00    +0.122 A 
ATOM     29  C   UNL     1       8.746  11.228  -0.403  0.00  0.00    +0.046 A 
ATOM     30  C   UNL     1       7.481  11.287  -0.959  0.00  0.00    +0.004 A 
ATOM     31  C   UNL     1       6.562  10.291  -0.700  0.00  0.00    +0.013 A 
ATOM     32  C   UNL     1       6.904   9.226   0.136  0.00  0.00    +0.041 A 
ATOM     33  C   UNL     1       8.181   9.168   0.697  0.00  0.00    +0.058 A 
BRANCH  28  34
ATOM     34  O   UNL     1      10.341  10.117   0.969  0.00  0.00    -0.489 OA
BRANCH  34  35
ATOM     35  C   UNL     1      11.195  11.242   0.747  0.00  0.00    +0.170 C 
ATOM     36  C   UNL     1      11.904  11.086  -0.600  0.00  0.00    +0.052 C 
BRANCH  35  38
ATOM     37  C   UNL     1      11.533  11.602   3.196  0.00  0.00    +0.007 C 
ATOM     38  C   UNL     1      12.235  11.322   1.866  0.00  0.00    +0.041 C 
ENDBRANCH  35  38
ENDBRANCH  34  35
ENDBRANCH  28  34
ENDBRANCH  24  32
ENDBRANCH  22  26
ENDBRANCH   1  22
TORSDOF 10
