REMARK  Name = ZINC01089453
REMARK  9 active torsions:
REMARK  status: ('A' for Active; 'I' for Inactive)
REMARK    1  A    between atoms: C_1  and  O_2
REMARK    2  A    between atoms: O_2  and  C_3
REMARK    3  A    between atoms: C_6  and  C_17
REMARK    4  A    between atoms: C_7  and  C_9
REMARK    5  A    between atoms: C_9  and  S_10
REMARK    6  A    between atoms: S_10  and  C_11
REMARK    7  A    between atoms: C_20  and  C_31
REMARK    8  A    between atoms: C_26  and  N_30
REMARK    9  A    between atoms: C_27  and  C_28
REMARK                            x       y       z     vdW  Elec       q    Type
REMARK                         _______ _______ _______ _____ _____    ______ ____
ROOT
ATOM      1  C   UNL     1      -4.558  -1.512   0.027  0.00  0.00    +0.102 C 
ATOM      2  C   UNL     1      -5.463  -1.322   1.217  0.00  0.00    +0.054 A 
ATOM      3  C   UNL     1      -5.521  -2.050   2.409  0.00  0.00    +0.100 A 
ATOM      4  N   UNL     1      -6.467  -1.521   3.162  0.00  0.00    -0.171 NA
ATOM      5  N   UNL     1      -7.035  -0.443   2.466  0.00  0.00    -0.246 N 
ATOM      6  H   UNL     1      -7.753   0.127   2.783  0.00  0.00    +0.192 HD
ATOM      7  C   UNL     1      -6.406  -0.338   1.276  0.00  0.00    +0.223 A 
ATOM      8  O   UNL     1      -6.607   0.546   0.267  0.00  0.00    -0.423 OA
ATOM      9  C   UNL     1      -6.040   0.271  -0.926  0.00  0.00    +0.200 C 
ATOM     10  C   UNL     1      -5.087  -0.671  -1.107  0.00  0.00    +0.098 C 
ENDROOT
BRANCH   1  14
ATOM     11  C   UNL     1      -0.592  -0.268   1.017  0.00  0.00    +0.120 A 
ATOM     12  C   UNL     1      -1.663   0.586   1.237  0.00  0.00    +0.046 A 
ATOM     13  C   UNL     1      -2.944   0.181   0.916  0.00  0.00    +0.008 A 
ATOM     14  C   UNL     1      -3.159  -1.073   0.376  0.00  0.00    -0.030 A 
ATOM     15  C   UNL     1      -2.094  -1.926   0.156  0.00  0.00    -0.030 A 
ATOM     16  C   UNL     1      -0.809  -1.524   0.470  0.00  0.00    +0.050 A 
BRANCH  11  18
ATOM     17  C   UNL     1       0.819   1.435   1.891  0.00  0.00    +0.277 C 
ATOM     18  O   UNL     1       0.670   0.128   1.331  0.00  0.00    -0.495 OA
ENDBRANCH  11  18
BRANCH  15  19
ATOM     19  C   UNL     1      -2.332  -3.293  -0.432  0.00  0.00    +0.111 C 
BRANCH  19  20
ATOM     20  S   UNL     1      -2.187  -3.208  -2.238  0.00  0.00    -0.101 S 
BRANCH  20  21
ATOM     21  C   UNL     1      -2.488  -4.861  -2.768  0.00  0.00    +0.097 A 
ATOM     22  C   UNL     1      -2.449  -5.168  -4.126  0.00  0.00    +0.035 A 
ATOM     23  C   UNL     1      -2.687  -6.469  -4.528  0.00  0.00    +0.004 A 
ATOM     24  C   UNL     1      -2.957  -7.424  -3.556  0.00  0.00    +0.020 A 
ATOM     25  C   UNL     1      -2.979  -7.050  -2.228  0.00  0.00    +0.112 A 
ATOM     26  N   UNL     1      -2.743  -5.801  -1.872  0.00  0.00    -0.249 NA
ENDBRANCH  20  21
ENDBRANCH  19  20
ENDBRANCH  15  19
ENDBRANCH   1  14
BRANCH   3  27
ATOM     27  C   UNL     1      -4.670  -3.212   2.765  0.00  0.00    +0.003 A 
ATOM     28  C   UNL     1      -4.418  -4.209   1.825  0.00  0.00    +0.010 A 
ATOM     29  C   UNL     1      -3.626  -5.287   2.161  0.00  0.00    +0.001 A 
ATOM     30  C   UNL     1      -3.082  -5.381   3.430  0.00  0.00    +0.000 A 
ATOM     31  C   UNL     1      -3.329  -4.395   4.367  0.00  0.00    +0.001 A 
ATOM     32  C   UNL     1      -4.115  -3.308   4.040  0.00  0.00    +0.010 A 
ENDBRANCH   3  27
BRANCH   9  33
ATOM     33  N   UNL     1      -6.455   0.990  -2.019  0.00  0.00    -0.328 N 
ATOM     34  H   UNL     1      -7.137   1.672  -1.921  0.00  0.00    +0.145 HD
ATOM     35  H   UNL     1      -6.066   0.815  -2.890  0.00  0.00    +0.145 HD
ENDBRANCH   9  33
BRANCH  10  36
ATOM     36  C   UNL     1      -4.562  -0.878  -2.423  0.00  0.00    +0.101 C 
ATOM     37  N   UNL     1      -4.145  -1.042  -3.467  0.00  0.00    -0.191 NA
ENDBRANCH  10  36
TORSDOF 8
