REMARK  Name = ZINC20701260
REMARK  4 active torsions:
REMARK  status: ('A' for Active; 'I' for Inactive)
REMARK    1  A    between atoms: C_3  and  O_29
REMARK    2  A    between atoms: C_6  and  N_7
REMARK    3  A    between atoms: C_17  and  C_20
REMARK    4  A    between atoms: C_25  and  O_26
REMARK                            x       y       z     vdW  Elec       q    Type
REMARK                         _______ _______ _______ _____ _____    ______ ____
ROOT
ATOM      1  C   UNL     1       0.456   1.855   0.074  0.00  0.00    +0.037 A 
ATOM      2  C   UNL     1       1.717   2.422   0.114  0.00  0.00    +0.049 A 
ATOM      3  C   UNL     1       2.835   1.647  -0.124  0.00  0.00    +0.138 A 
ATOM      4  C   UNL     1       2.712   0.281  -0.407  0.00  0.00    +0.076 A 
ATOM      5  C   UNL     1       1.431  -0.272  -0.457  0.00  0.00    +0.014 A 
ATOM      6  C   UNL     1       0.320   0.510  -0.212  0.00  0.00    +0.132 A 
ATOM      7  C   UNL     1       1.312  -1.706  -0.801  0.00  0.00    +0.051 C 
ATOM      8  C   UNL     1       0.197  -2.581  -0.336  0.00  0.00    -0.023 C 
ATOM      9  C   UNL     1       0.658  -3.814  -0.153  0.00  0.00    -0.030 C 
ATOM     10  C   UNL     1       2.153  -3.865  -0.477  0.00  0.00    +0.033 C 
ATOM     11  C   UNL     1       2.572  -2.414  -0.213  0.00  0.00    +0.029 C 
ATOM     12  C   UNL     1       3.733  -1.853  -1.008  0.00  0.00    +0.109 C 
ATOM     13  N   UNL     1       3.886  -0.444  -0.613  0.00  0.00    -0.333 N 
ATOM     14  H   UNL     1       4.891  -0.013  -0.494  0.00  0.00    +0.147 HD
ENDROOT
BRANCH  12  15
ATOM     15  C   UNL     1       3.437  -1.945  -2.483  0.00  0.00    +0.017 A 
ATOM     16  C   UNL     1       2.824  -0.889  -3.131  0.00  0.00    +0.029 A 
ATOM     17  C   UNL     1       2.551  -0.972  -4.485  0.00  0.00    +0.043 A 
ATOM     18  C   UNL     1       2.892  -2.111  -5.193  0.00  0.00    +0.043 A 
ATOM     19  C   UNL     1       3.506  -3.169  -4.548  0.00  0.00    +0.084 A 
ATOM     20  C   UNL     1       3.784  -3.085  -3.191  0.00  0.00    +0.140 A 
ATOM     21 CL   UNL     1       3.934  -4.597  -5.437  0.00  0.00    -0.080 Cl
ATOM     22 CL   UNL     1       1.781   0.355  -5.297  0.00  0.00    -0.083 Cl
BRANCH  20  23
ATOM     23  O   UNL     1       4.392  -4.122  -2.555  0.00  0.00    -0.505 OA
ATOM     24  H   UNL     1       4.667  -5.026  -3.118  0.00  0.00    +0.292 HD
ENDBRANCH  20  23
ENDBRANCH  12  15
BRANCH   6  25
ATOM     25  N   UNL     1      -1.028  -0.098  -0.255  0.00  0.00    +0.057 N 
ATOM     26  O   UNL     1      -1.361  -0.775  -1.211  0.00  0.00    -0.126 OA
ATOM     27  O   UNL     1      -1.806   0.079   0.666  0.00  0.00    -0.126 OA
ENDBRANCH   6  25
BRANCH   3  28
ATOM     28  O   UNL     1       4.069   2.217  -0.081  0.00  0.00    -0.505 OA
ATOM     29  H   UNL     1       4.964   1.605  -0.269  0.00  0.00    +0.292 HD
ENDBRANCH   3  28
TORSDOF 4
