REMARK  Name = ZINC03522810
REMARK  8 active torsions:
REMARK  status: ('A' for Active; 'I' for Inactive)
REMARK    1  A    between atoms: C_1  and  C_2
REMARK    2  A    between atoms: C_11  and  S_15
REMARK    3  A    between atoms: S_15  and  C_16
REMARK    4  A    between atoms: C_16  and  C_18
REMARK    5  A    between atoms: C_16  and  C_19
REMARK    6  A    between atoms: N_21  and  C_22
REMARK    7  A    between atoms: C_25  and  S_28
REMARK    8  A    between atoms: S_28  and  N_31
REMARK                            x       y       z     vdW  Elec       q    Type
REMARK                         _______ _______ _______ _____ _____    ______ ____
ROOT
ATOM      1  C   UNL     1       3.112  -2.694  -0.040  0.00  0.00    +0.136 C 
ATOM      2  C   UNL     1       2.377  -2.944   1.279  0.00  0.00    +0.029 C 
ENDROOT
BRANCH   1   3
ATOM      3  C   UNL     1       4.229  -3.694  -0.189  0.00  0.00    +0.230 C 
ATOM      4  O   UNL     1       5.354  -3.403   0.158  0.00  0.00    -0.274 OA
ATOM      5  N   UNL     1       3.978  -4.912  -0.709  0.00  0.00    -0.285 N 
ATOM      6  H   UNL     1       3.068  -5.170  -0.924  0.00  0.00    +0.155 HD
BRANCH   5   7
ATOM      7  C   UNL     1       5.031  -5.806  -0.937  0.00  0.00    +0.034 A 
ATOM      8  C   UNL     1       4.992  -6.662  -2.030  0.00  0.00    +0.025 A 
ATOM      9  C   UNL     1       6.035  -7.539  -2.256  0.00  0.00    +0.030 A 
ATOM     10  C   UNL     1       7.112  -7.572  -1.389  0.00  0.00    +0.105 A 
ATOM     11  C   UNL     1       7.151  -6.725  -0.297  0.00  0.00    +0.030 A 
ATOM     12  C   UNL     1       6.114  -5.842  -0.069  0.00  0.00    +0.025 A 
BRANCH  10  13
ATOM     13  S   UNL     1       8.437  -8.697  -1.677  0.00  0.00    +0.056 S 
ATOM     14  O   UNL     1       8.419  -8.999  -3.066  0.00  0.00    -0.153 OA
ATOM     15  O   UNL     1       9.580  -8.152  -1.031  0.00  0.00    -0.153 OA
BRANCH  13  16
ATOM     16  N   UNL     1       8.069 -10.102  -0.883  0.00  0.00    -0.204 NA
ATOM     17  H   UNL     1       7.241 -10.173  -0.382  0.00  0.00    +0.144 HD
ATOM     18  H   UNL     1       8.680 -10.854  -0.919  0.00  0.00    +0.144 HD
ENDBRANCH  13  16
ENDBRANCH  10  13
ENDBRANCH   5   7
ENDBRANCH   1   3
BRANCH   1  19
ATOM     19  S   UNL     1       3.797  -1.019  -0.041  0.00  0.00    -0.093 S 
BRANCH  19  29
ATOM     20  C   UNL     1       6.772   5.069  -0.128  0.00  0.00    +0.008 C 
ATOM     21  C   UNL     1       5.663   4.054  -0.410  0.00  0.00    -0.009 C 
ATOM     22  C   UNL     1       5.903   2.787   0.416  0.00  0.00    +0.008 C 
ATOM     23  C   UNL     1       4.949   1.683  -0.038  0.00  0.00    +0.037 C 
ATOM     24  C   UNL     1       3.522   2.223  -0.014  0.00  0.00    -0.025 A 
ATOM     25  C   UNL     1       3.288   3.551  -0.003  0.00  0.00    -0.004 A 
ATOM     26  S   UNL     1       1.523   3.711   0.026  0.00  0.00    -0.073 S 
ATOM     27  C   UNL     1       1.099   1.988   0.023  0.00  0.00    +0.113 A 
ATOM     28  C   UNL     1       2.352   1.343  -0.001  0.00  0.00    +0.043 A 
ATOM     29  C   UNL     1       2.307  -0.079  -0.009  0.00  0.00    +0.109 A 
ATOM     30  N   UNL     1       1.131  -0.686   0.007  0.00  0.00    -0.229 NA
ATOM     31  C   UNL     1      -0.007  -0.015   0.030  0.00  0.00    +0.223 A 
ATOM     32  N   UNL     1      -0.028   1.304   0.037  0.00  0.00    -0.228 NA
ATOM     33  C   UNL     1       4.306   4.652  -0.012  0.00  0.00    +0.046 C 
ENDBRANCH  19  29
ENDBRANCH   1  19
TORSDOF 6
