REMARK  Name = ZINC24890149
REMARK  7 active torsions:
REMARK  status: ('A' for Active; 'I' for Inactive)
REMARK    1  A    between atoms: C_1  and  C_2
REMARK    2  A    between atoms: C_5  and  N_8
REMARK    3  A    between atoms: C_9  and  C_31
REMARK    4  A    between atoms: C_11  and  C_16
REMARK    5  A    between atoms: N_18  and  C_19
REMARK    6  A    between atoms: C_22  and  C_25
REMARK    7  A    between atoms: N_27  and  C_28
REMARK                            x       y       z     vdW  Elec       q    Type
REMARK                         _______ _______ _______ _____ _____    ______ ____
ROOT
ATOM      1  N   UNL     1       3.300   7.805  -1.747  0.00  0.00    -0.263 N 
ATOM      2  C   UNL     1       3.360   7.502  -0.312  0.00  0.00    +0.130 C 
ATOM      3  C   UNL     1       3.625   5.983  -0.222  0.00  0.00    +0.110 C 
ATOM      4  C   UNL     1       4.326   5.704  -1.572  0.00  0.00    +0.111 C 
ATOM      5  C   UNL     1       3.841   6.815  -2.478  0.00  0.00    +0.221 C 
ATOM      6  O   UNL     1       3.927   6.812  -3.688  0.00  0.00    -0.275 OA
ENDROOT
BRANCH   1  11
ATOM      7  C   UNL     1       1.070  12.544  -3.928  0.00  0.00    +0.044 C 
ATOM      8  C   UNL     1       1.663  11.285  -3.348  0.00  0.00    -0.050 A 
ATOM      9  C   UNL     1       1.780  11.145  -1.978  0.00  0.00    +0.005 A 
ATOM     10  C   UNL     1       2.322   9.992  -1.444  0.00  0.00    +0.024 A 
ATOM     11  C   UNL     1       2.751   8.974  -2.285  0.00  0.00    +0.037 A 
ATOM     12  C   UNL     1       2.638   9.120  -3.661  0.00  0.00    +0.024 A 
ATOM     13  C   UNL     1       2.089  10.273  -4.189  0.00  0.00    +0.005 A 
ENDBRANCH   1  11
BRANCH   2  14
ATOM     14  C   UNL     1       4.486   8.267   0.336  0.00  0.00    +0.011 A 
ATOM     15  C   UNL     1       4.540   8.824   1.570  0.00  0.00    +0.013 A 
ATOM     16  C   UNL     1       5.690   9.486   1.957  0.00  0.00    +0.008 A 
ATOM     17  C   UNL     1       6.730   9.558   1.091  0.00  0.00    +0.045 A 
ATOM     18  S   UNL     1       6.097   8.667  -0.321  0.00  0.00    -0.100 S 
ENDBRANCH   2  14
BRANCH   3  19
ATOM     19  C   UNL     1       2.332   5.215  -0.117  0.00  0.00    +0.223 C 
ATOM     20  O   UNL     1       1.274   5.808  -0.113  0.00  0.00    -0.275 OA
ATOM     21  N   UNL     1       2.352   3.870  -0.029  0.00  0.00    -0.285 N 
ATOM     22  H   UNL     1       3.311   3.339   0.055  0.00  0.00    +0.155 HD
BRANCH  21  23
ATOM     23  C   UNL     1       1.156   3.153  -0.043  0.00  0.00    +0.033 A 
ATOM     24  C   UNL     1       0.080   3.613  -0.796  0.00  0.00    +0.024 A 
ATOM     25  C   UNL     1      -1.102   2.907  -0.812  0.00  0.00    +0.015 A 
ATOM     26  C   UNL     1      -1.222   1.730  -0.068  0.00  0.00    +0.037 A 
ATOM     27  C   UNL     1      -0.137   1.268   0.682  0.00  0.00    +0.015 A 
ATOM     28  C   UNL     1       1.042   1.979   0.695  0.00  0.00    +0.024 A 
BRANCH  26  29
ATOM     29  C   UNL     1      -2.489   0.974  -0.079  0.00  0.00    +0.244 C 
ATOM     30  O   UNL     1      -3.430   1.375  -0.736  0.00  0.00    -0.270 OA
ATOM     31  N   UNL     1      -2.603  -0.161   0.640  0.00  0.00    -0.308 N 
ATOM     32  H   UNL     1      -1.751  -0.523   1.234  0.00  0.00    +0.149 HD
BRANCH  31  33
ATOM     33  C   UNL     1      -3.861  -0.911   0.629  0.00  0.00    +0.073 C 
ATOM     34  C   UNL     1      -4.378  -1.442   1.968  0.00  0.00    +0.024 C 
ATOM     35  C   UNL     1      -3.792  -2.409   0.936  0.00  0.00    +0.024 C 
ENDBRANCH  31  33
ENDBRANCH  26  29
ENDBRANCH  21  23
ENDBRANCH   3  19
TORSDOF 6
