REMARK  Name = ZINC39637454
REMARK  7 active torsions:
REMARK  status: ('A' for Active; 'I' for Inactive)
REMARK    1  A    between atoms: C_1  and  C_2
REMARK    2  A    between atoms: C_7  and  N_12
REMARK    3  A    between atoms: C_9  and  C_11
REMARK    4  A    between atoms: C_13  and  C_15
REMARK    5  A    between atoms: C_26  and  C_28
REMARK    6  A    between atoms: C_31  and  O_34
REMARK    7  A    between atoms: O_34  and  C_35
REMARK                            x       y       z     vdW  Elec       q    Type
REMARK                         _______ _______ _______ _____ _____    ______ ____
ROOT
ATOM      1  C   UNL     1      -2.034  -3.874   2.501  0.00  0.00    +0.100 C 
ATOM      2  C   UNL     1      -3.164  -3.147   3.263  0.00  0.00    +0.121 C 
ATOM      3  N   UNL     1      -4.043  -4.234   3.756  0.00  0.00    -0.296 N 
ATOM      4  C   UNL     1      -3.105  -5.304   4.174  0.00  0.00    +0.115 C 
ATOM      5  C   UNL     1      -1.998  -5.289   3.102  0.00  0.00    -0.004 C 
ATOM      6  C   UNL     1      -2.292  -6.328   2.024  0.00  0.00    -0.010 C 
ATOM      7  C   UNL     1      -2.195  -7.729   2.634  0.00  0.00    -0.082 C 
ATOM      8  N   UNL     1      -0.850  -7.933   3.184  0.00  0.00    +0.379 N 
ATOM      9  C   UNL     1      -0.609  -6.990   4.282  0.00  0.00    -0.082 C 
ATOM     10  C   UNL     1      -0.640  -5.557   3.743  0.00  0.00    -0.010 C 
ATOM     11  C   UNL     1      -5.389  -4.247   3.812  0.00  0.00    +0.248 C 
ATOM     12  O   UNL     1      -6.027  -3.341   3.312  0.00  0.00    -0.270 OA
ATOM     13  H   UNL     1      -0.769  -8.878   3.530  0.00  0.00    -0.086 HD
ATOM     14  H   UNL     1      -0.165  -7.784   2.458  0.00  0.00    -0.086 HD
ENDROOT
BRANCH  11  15
ATOM     15  C   UNL     1      -6.089  -5.362   4.479  0.00  0.00    +0.055 A 
ATOM     16  C   UNL     1      -5.415  -6.176   5.402  0.00  0.00    +0.020 A 
ATOM     17  C   UNL     1      -6.112  -7.205   6.000  0.00  0.00    +0.068 A 
ATOM     18  C   UNL     1      -7.450  -7.402   5.671  0.00  0.00    +0.220 A 
ATOM     19  N   UNL     1      -8.059  -6.617   4.795  0.00  0.00    -0.220 NA
ATOM     20  C   UNL     1      -7.433  -5.619   4.206  0.00  0.00    +0.127 A 
BRANCH  18  21
ATOM     21  O   UNL     1      -8.140  -8.411   6.255  0.00  0.00    -0.438 OA
BRANCH  21  22
ATOM     22  C   UNL     1      -9.469  -8.514   5.988  0.00  0.00    +0.130 A 
ATOM     23  C   UNL     1      -9.895  -9.049   4.780  0.00  0.00    +0.046 A 
ATOM     24  C   UNL     1     -11.246  -9.152   4.511  0.00  0.00    +0.004 A 
ATOM     25  C   UNL     1     -12.173  -8.725   5.444  0.00  0.00    +0.000 A 
ATOM     26  C   UNL     1     -11.750  -8.192   6.648  0.00  0.00    +0.004 A 
ATOM     27  C   UNL     1     -10.401  -8.091   6.924  0.00  0.00    +0.046 A 
ENDBRANCH  21  22
ENDBRANCH  18  21
ENDBRANCH  11  15
BRANCH   1  29
ATOM     28  N   UNL     1       0.213  -3.164   1.749  0.00  0.00    -0.312 N 
ATOM     29  C   UNL     1      -0.717  -3.175   2.724  0.00  0.00    +0.218 C 
ATOM     30  O   UNL     1      -0.495  -2.623   3.780  0.00  0.00    -0.275 OA
ATOM     31  H   UNL     1       0.035  -3.606   0.904  0.00  0.00    +0.149 HD
BRANCH  28  37
ATOM     32  C   UNL     1       2.898  -2.897  -1.596  0.00  0.00    +0.008 C 
ATOM     33  C   UNL     1       2.307  -3.312  -0.247  0.00  0.00    -0.009 C 
ATOM     34  C   UNL     1       3.274  -4.262   0.463  0.00  0.00    +0.003 C 
ATOM     35  C   UNL     1       2.682  -4.677   1.812  0.00  0.00    +0.002 C 
ATOM     36  C   UNL     1       2.460  -3.435   2.676  0.00  0.00    +0.022 C 
ATOM     37  C   UNL     1       1.493  -2.485   1.966  0.00  0.00    +0.076 C 
ATOM     38  C   UNL     1       2.085  -2.070   0.617  0.00  0.00    +0.009 C 
ATOM     39  C   UNL     1       1.118  -1.120  -0.093  0.00  0.00    +0.009 C 
ENDBRANCH  28  37
ENDBRANCH   1  29
TORSDOF 5
