REMARK  Name = ZINC57336358
REMARK  6 active torsions:
REMARK  status: ('A' for Active; 'I' for Inactive)
REMARK    1  A    between atoms: C_4  and  N_29
REMARK    2  A    between atoms: C_5  and  C_7
REMARK    3  A    between atoms: C_7  and  C_8
REMARK    4  A    between atoms: C_8  and  C_9
REMARK    5  A    between atoms: C_8  and  C_19
REMARK    6  A    between atoms: C_30  and  C_32
REMARK                            x       y       z     vdW  Elec       q    Type
REMARK                         _______ _______ _______ _____ _____    ______ ____
ROOT
ATOM      1  C   UNL     1       1.473  -2.904   1.919  0.00  0.00    +0.057 C 
ENDROOT
BRANCH   1   2
ATOM      2  C   UNL     1       1.496  -4.399   2.104  0.00  0.00    -0.015 A 
ATOM      3  C   UNL     1       2.525  -5.221   1.843  0.00  0.00    +0.087 A 
ATOM      4  N   UNL     1       2.176  -6.512   2.134  0.00  0.00    -0.360 N 
ATOM      5  H   UNL     1       2.756  -7.283   2.027  0.00  0.00    +0.165 HD
ATOM      6  C   UNL     1       0.882  -6.554   2.600  0.00  0.00    +0.047 A 
ATOM      7  C   UNL     1       0.400  -5.232   2.608  0.00  0.00    +0.003 A 
ATOM      8  C   UNL     1      -0.899  -4.966   3.043  0.00  0.00    +0.010 A 
ATOM      9  C   UNL     1      -1.697  -5.992   3.464  0.00  0.00    +0.001 A 
ATOM     10  C   UNL     1      -1.225  -7.298   3.462  0.00  0.00    +0.002 A 
ATOM     11  C   UNL     1       0.051  -7.584   3.028  0.00  0.00    +0.026 A 
ENDBRANCH   1   2
BRANCH   1  12
ATOM     12  C   UNL     1       2.550  -2.277   2.766  0.00  0.00    -0.015 A 
ATOM     13  C   UNL     1       3.873  -2.473   2.650  0.00  0.00    +0.087 A 
ATOM     14  N   UNL     1       4.538  -1.737   3.592  0.00  0.00    -0.360 N 
ATOM     15  H   UNL     1       5.502  -1.715   3.704  0.00  0.00    +0.165 HD
ATOM     16  C   UNL     1       3.637  -1.030   4.357  0.00  0.00    +0.047 A 
ATOM     17  C   UNL     1       2.353  -1.333   3.869  0.00  0.00    +0.003 A 
ATOM     18  C   UNL     1       1.229  -0.749   4.456  0.00  0.00    +0.010 A 
ATOM     19  C   UNL     1       1.383   0.118   5.501  0.00  0.00    +0.001 A 
ATOM     20  C   UNL     1       2.648   0.423   5.984  0.00  0.00    +0.002 A 
ATOM     21  C   UNL     1       3.770  -0.149   5.425  0.00  0.00    +0.026 A 
ENDBRANCH   1  12
BRANCH   1  22
ATOM     22  C   UNL     1       1.722  -2.568   0.447  0.00  0.00    +0.050 C 
BRANCH  22  27
ATOM     23  C   UNL     1       2.586   1.078  -0.020  0.00  0.00    +0.000 A 
ATOM     24  C   UNL     1       1.332   1.650  -0.138  0.00  0.00    +0.002 A 
ATOM     25  C   UNL     1       0.202   0.860  -0.067  0.00  0.00    +0.023 A 
ATOM     26  C   UNL     1       0.325  -0.510   0.123  0.00  0.00    +0.037 A 
ATOM     27  C   UNL     1       1.584  -1.082   0.241  0.00  0.00    -0.025 A 
ATOM     28  C   UNL     1       2.712  -0.286   0.170  0.00  0.00    +0.005 A 
BRANCH  26  29
ATOM     29  N   UNL     1      -0.819  -1.313   0.196  0.00  0.00    -0.283 N 
ATOM     30  C   UNL     1      -1.994  -0.856  -0.280  0.00  0.00    +0.246 C 
ATOM     31  O   UNL     1      -2.042   0.209  -0.858  0.00  0.00    -0.273 OA
ATOM     32  H   UNL     1      -0.766  -2.198   0.588  0.00  0.00    +0.155 HD
BRANCH  30  33
ATOM     33  C   UNL     1      -3.249  -1.670  -0.095  0.00  0.00    +0.204 C 
ATOM     34  C   UNL     1      -3.670  -1.678   1.396  0.00  0.00    +0.043 C 
ATOM     35  C   UNL     1      -5.194  -1.954   1.271  0.00  0.00    +0.031 C 
ATOM     36  C   UNL     1      -5.554  -1.216  -0.036  0.00  0.00    +0.161 C 
ATOM     37  O   UNL     1      -4.347  -1.060  -0.794  0.00  0.00    -0.367 OA
ENDBRANCH  30  33
ENDBRANCH  26  29
ENDBRANCH  22  27
ENDBRANCH   1  22
TORSDOF 6
