REMARK  Name = ZINC39696264
REMARK  8 active torsions:
REMARK  status: ('A' for Active; 'I' for Inactive)
REMARK    1  A    between atoms: C_1  and  C_2
REMARK    2  A    between atoms: C_2  and  C_3
REMARK    3  A    between atoms: C_6  and  C_9
REMARK    4  A    between atoms: C_9  and  C_11
REMARK    5  A    between atoms: C_9  and  N_12
REMARK    6  A    between atoms: C_13  and  C_15
REMARK    7  A    between atoms: C_26  and  C_28
REMARK    8  A    between atoms: C_31  and  C_33
REMARK                            x       y       z     vdW  Elec       q    Type
REMARK                         _______ _______ _______ _____ _____    ______ ____
ROOT
ATOM      1  C   UNL     1      -6.692  -4.983  -1.997  0.00  0.00    +0.100 C 
ATOM      2  C   UNL     1      -5.375  -5.764  -2.202  0.00  0.00    +0.121 C 
ATOM      3  N   UNL     1      -5.529  -6.981  -1.371  0.00  0.00    -0.294 N 
ATOM      4  C   UNL     1      -6.945  -7.378  -1.558  0.00  0.00    +0.115 C 
ATOM      5  C   UNL     1      -7.721  -6.047  -1.579  0.00  0.00    -0.004 C 
ATOM      6  C   UNL     1      -8.857  -6.113  -2.595  0.00  0.00    -0.010 C 
ATOM      7  C   UNL     1      -9.896  -7.136  -2.128  0.00  0.00    -0.082 C 
ATOM      8  N   UNL     1     -10.413  -6.743  -0.811  0.00  0.00    +0.379 N 
ATOM      9  C   UNL     1      -9.332  -6.772   0.181  0.00  0.00    -0.082 C 
ATOM     10  C   UNL     1      -8.269  -5.734  -0.189  0.00  0.00    -0.010 C 
ATOM     11  C   UNL     1      -4.593  -7.591  -0.617  0.00  0.00    +0.282 C 
ATOM     12  O   UNL     1      -4.876  -8.593   0.013  0.00  0.00    -0.267 OA
ATOM     13  H   UNL     1     -10.793  -5.810  -0.865  0.00  0.00    -0.086 HD
ATOM     14  H   UNL     1     -11.141  -7.384  -0.532  0.00  0.00    -0.086 HD
ENDROOT
BRANCH  11  15
ATOM     15  C   UNL     1      -3.233  -7.047  -0.556  0.00  0.00    +0.190 A 
ATOM     16  C   UNL     1      -2.184  -7.571   0.167  0.00  0.00    +0.055 A 
ATOM     17  C   UNL     1      -1.082  -6.741  -0.061  0.00  0.00    +0.050 A 
ATOM     18  C   UNL     1      -1.494  -5.751  -0.907  0.00  0.00    +0.136 A 
ATOM     19  O   UNL     1      -2.789  -5.949  -1.203  0.00  0.00    -0.450 OA
BRANCH  18  20
ATOM     20  C   UNL     1      -0.653  -4.649  -1.417  0.00  0.00    +0.017 A 
ATOM     21  C   UNL     1       0.690  -4.560  -1.042  0.00  0.00    +0.011 A 
ATOM     22  C   UNL     1       1.470  -3.529  -1.522  0.00  0.00    +0.001 A 
ATOM     23  C   UNL     1       0.925  -2.583  -2.373  0.00  0.00    +0.000 A 
ATOM     24  C   UNL     1      -0.405  -2.665  -2.748  0.00  0.00    +0.001 A 
ATOM     25  C   UNL     1      -1.195  -3.695  -2.280  0.00  0.00    +0.011 A 
ENDBRANCH  18  20
ENDBRANCH  11  15
BRANCH   1  27
ATOM     26  N   UNL     1      -7.267  -2.826  -0.931  0.00  0.00    -0.308 N 
ATOM     27  C   UNL     1      -6.529  -3.954  -0.909  0.00  0.00    +0.219 C 
ATOM     28  O   UNL     1      -5.733  -4.140  -0.013  0.00  0.00    -0.275 OA
ATOM     29  H   UNL     1      -7.904  -2.678  -1.647  0.00  0.00    +0.149 HD
BRANCH  26  30
ATOM     30  C   UNL     1      -7.109  -1.826   0.128  0.00  0.00    +0.100 C 
ATOM     31  C   UNL     1      -7.987  -2.204   1.322  0.00  0.00    +0.033 C 
BRANCH  30  35
ATOM     32  C   UNL     1      -8.280   2.007  -1.350  0.00  0.00    -0.048 A 
ATOM     33  C   UNL     1      -7.175   1.891  -0.528  0.00  0.00    +0.004 A 
ATOM     34  C   UNL     1      -6.796   0.651  -0.049  0.00  0.00    +0.006 A 
ATOM     35  C   UNL     1      -7.522  -0.474  -0.393  0.00  0.00    -0.027 A 
ATOM     36  C   UNL     1      -8.628  -0.358  -1.214  0.00  0.00    +0.006 A 
ATOM     37  C   UNL     1      -9.010   0.882  -1.689  0.00  0.00    +0.004 A 
BRANCH  32  39
ATOM     38  C   UNL     1      -9.669   4.008  -0.888  0.00  0.00    +0.009 C 
ATOM     39  C   UNL     1      -8.694   3.359  -1.871  0.00  0.00    +0.032 C 
ENDBRANCH  32  39
ENDBRANCH  30  35
ENDBRANCH  26  30
ENDBRANCH   1  27
TORSDOF 6
