REMARK  Name = ZINC59293552
REMARK  11 active torsions:
REMARK  status: ('A' for Active; 'I' for Inactive)
REMARK    1  A    between atoms: C_1  and  C_2
REMARK    2  A    between atoms: C_2  and  C_3
REMARK    3  A    between atoms: C_3  and  N_4
REMARK    4  A    between atoms: N_4  and  C_5
REMARK    5  A    between atoms: C_5  and  C_6
REMARK    6  A    between atoms: C_6  and  C_7
REMARK    7  A    between atoms: C_8  and  C_10
REMARK    8  A    between atoms: C_16  and  C_17
REMARK    9  A    between atoms: C_24  and  N_36
REMARK   10  A    between atoms: C_25  and  C_34
REMARK   11  A    between atoms: C_26  and  C_28
REMARK                            x       y       z     vdW  Elec       q    Type
REMARK                         _______ _______ _______ _____ _____    ______ ____
ROOT
ATOM      1  C   UNL     1       2.841  -2.242  -0.439  0.00  0.00    +0.058 C 
ATOM      2  C   UNL     1       4.016  -2.716   0.051  0.00  0.00    +0.099 A 
ATOM      3  N   UNL     1       5.083  -1.921   0.419  0.00  0.00    -0.257 N 
ATOM      4  C   UNL     1       6.188  -2.534   0.889  0.00  0.00    +0.271 A 
ATOM      5  O   UNL     1       7.161  -1.889   1.230  0.00  0.00    -0.266 OA
ATOM      6  C   UNL     1       6.187  -4.000   0.981  0.00  0.00    +0.079 A 
ATOM      7  C   UNL     1       7.163  -4.836   1.415  0.00  0.00    +0.028 C 
ATOM      8  S   UNL     1       4.556  -4.384   0.366  0.00  0.00    -0.065 S 
ATOM      9  C   UNL     1       4.974  -0.531   0.289  0.00  0.00    +0.118 C 
ATOM     10  C   UNL     1       3.873   0.094  -0.182  0.00  0.00    +0.079 C 
ATOM     11  C   UNL     1       2.681  -0.744  -0.601  0.00  0.00    +0.100 C 
ENDROOT
BRANCH   7  12
ATOM     12  C   UNL     1       8.379  -4.288   2.033  0.00  0.00    -0.024 A 
ATOM     13  C   UNL     1       8.295  -3.191   2.898  0.00  0.00    +0.008 A 
ATOM     14  C   UNL     1       9.440  -2.683   3.474  0.00  0.00    +0.001 A 
ATOM     15  C   UNL     1      10.670  -3.255   3.199  0.00  0.00    +0.000 A 
ATOM     16  C   UNL     1      10.762  -4.340   2.344  0.00  0.00    +0.001 A 
ATOM     17  C   UNL     1       9.626  -4.864   1.765  0.00  0.00    +0.008 A 
ENDBRANCH   7  12
BRANCH  11  18
ATOM     18  C   UNL     1       2.384  -0.455  -2.050  0.00  0.00    -0.035 A 
ATOM     19  C   UNL     1       3.244  -0.905  -3.034  0.00  0.00    +0.004 A 
ATOM     20  C   UNL     1       2.971  -0.641  -4.364  0.00  0.00    +0.000 A 
ATOM     21  C   UNL     1       1.839   0.074  -4.708  0.00  0.00    +0.000 A 
ATOM     22  C   UNL     1       0.980   0.523  -3.724  0.00  0.00    +0.000 A 
ATOM     23  C   UNL     1       1.250   0.255  -2.395  0.00  0.00    +0.004 A 
ENDBRANCH  11  18
BRANCH   1  25
ATOM     24  N   UNL     1       0.863  -3.450   0.118  0.00  0.00    -0.298 N 
ATOM     25  C   UNL     1       1.802  -3.119  -0.790  0.00  0.00    +0.246 C 
ATOM     26  O   UNL     1       1.749  -3.581  -1.917  0.00  0.00    -0.270 OA
BRANCH  24  27
ATOM     27  C   UNL     1       0.985  -2.984   1.501  0.00  0.00    +0.108 C 
BRANCH  27  29
ATOM     28  C   UNL     1       1.800  -3.585   3.786  0.00  0.00    +0.005 C 
ATOM     29  C   UNL     1       1.782  -4.006   2.315  0.00  0.00    +0.016 C 
ENDBRANCH  27  29
ENDBRANCH  24  27
BRANCH  24  30
ATOM     30  C   UNL     1      -0.281  -4.276  -0.278  0.00  0.00    +0.108 C 
BRANCH  30  31
ATOM     31  C   UNL     1      -1.422  -3.373  -0.751  0.00  0.00    +0.016 C 
ATOM     32  C   UNL     1      -2.616  -4.235  -1.165  0.00  0.00    +0.005 C 
ENDBRANCH  30  31
ENDBRANCH  24  30
ENDBRANCH   1  25
BRANCH   9  33
ATOM     33  N   UNL     1       6.048   0.240   0.661  0.00  0.00    -0.343 N 
ATOM     34  H   UNL     1       6.950  -0.095   0.544  0.00  0.00    +0.144 HD
ATOM     35  H   UNL     1       5.903   1.121   1.042  0.00  0.00    +0.144 HD
ENDBRANCH   9  33
BRANCH  10  36
ATOM     36  C   UNL     1       3.833   1.521  -0.286  0.00  0.00    +0.099 C 
ATOM     37  N   UNL     1       3.802   2.654  -0.369  0.00  0.00    -0.191 NA
ENDBRANCH  10  36
TORSDOF 9
