REMARK  Name = ZINC04322679
REMARK  7 active torsions:
REMARK  status: ('A' for Active; 'I' for Inactive)
REMARK    1  A    between atoms: C_1  and  C_2
REMARK    2  A    between atoms: C_9  and  C_11
REMARK    3  A    between atoms: N_13  and  N_14
REMARK    4  A    between atoms: C_15  and  C_16
REMARK    5  A    between atoms: C_18  and  O_24
REMARK    6  A    between atoms: C_19  and  O_23
REMARK    7  A    between atoms: O_24  and  C_25
REMARK                            x       y       z     vdW  Elec       q    Type
REMARK                         _______ _______ _______ _____ _____    ______ ____
ROOT
ATOM      1  N   UNL     1      -2.759  -3.910   1.349  0.00  0.00    -0.188 NA
ATOM      2  C   UNL     1      -3.396  -4.581   2.260  0.00  0.00    +0.138 C 
ENDROOT
BRANCH   2   3
ATOM      3  C   UNL     1      -4.040  -5.862   1.917  0.00  0.00    -0.001 A 
ATOM      4  C   UNL     1      -4.731  -6.583   2.894  0.00  0.00    +0.059 A 
ATOM      5  C   UNL     1      -5.333  -7.783   2.567  0.00  0.00    +0.163 A 
ATOM      6  C   UNL     1      -5.251  -8.272   1.265  0.00  0.00    +0.173 A 
ATOM      7  C   UNL     1      -4.565  -7.557   0.294  0.00  0.00    +0.063 A 
ATOM      8  C   UNL     1      -3.966  -6.355   0.612  0.00  0.00    +0.028 A 
ATOM      9 BR   UNL     1      -4.457  -8.227  -1.471  0.00  0.00    -0.046 Br
BRANCH   6  10
ATOM     10  O   UNL     1      -5.843  -9.454   0.946  0.00  0.00    -0.503 OA
ATOM     11  H   UNL     1      -6.758  -9.366   0.645  0.00  0.00    +0.292 HD
ENDBRANCH   6  10
BRANCH   5  12
ATOM     12  O   UNL     1      -6.006  -8.487   3.517  0.00  0.00    -0.491 OA
ATOM     13  C   UNL     1      -6.050  -7.926   4.830  0.00  0.00    +0.277 C 
ENDBRANCH   5  12
ENDBRANCH   2   3
BRANCH   1  16
ATOM     14  C   UNL     1      -1.486  -1.996   0.730  0.00  0.00    +0.236 C 
ATOM     15  O   UNL     1      -1.421  -2.423  -0.403  0.00  0.00    -0.274 OA
ATOM     16  N   UNL     1      -2.147  -2.693   1.676  0.00  0.00    -0.207 N 
ATOM     17  H   UNL     1      -2.199  -2.352   2.583  0.00  0.00    +0.177 HD
BRANCH  14  25
ATOM     18  C   UNL     1      -1.087   1.355   2.650  0.00  0.00    +0.012 C 
ATOM     19  C   UNL     1      -1.718   0.431   1.607  0.00  0.00    -0.017 C 
ATOM     20  C   UNL     1      -3.201   0.164   1.812  0.00  0.00    +0.008 C 
ATOM     21  C   UNL     1      -3.812  -0.458   0.557  0.00  0.00    +0.001 C 
ATOM     22  C   UNL     1      -3.515   0.457  -0.637  0.00  0.00    +0.000 C 
ATOM     23  C   UNL     1      -2.042   0.300  -1.016  0.00  0.00    +0.005 C 
ATOM     24  C   UNL     1      -1.150   0.530   0.200  0.00  0.00    +0.008 C 
ATOM     25  C   UNL     1      -0.827  -0.687   1.082  0.00  0.00    +0.086 C 
ENDBRANCH  14  25
ENDBRANCH   1  16
TORSDOF 5
