REMARK  Name = ZINC38621035
REMARK  8 active torsions:
REMARK  status: ('A' for Active; 'I' for Inactive)
REMARK    1  A    between atoms: C_1  and  C_2
REMARK    2  A    between atoms: C_6  and  N_8
REMARK    3  A    between atoms: C_9  and  C_11
REMARK    4  A    between atoms: N_13  and  C_14
REMARK    5  A    between atoms: C_14  and  C_15
REMARK    6  A    between atoms: C_15  and  C_17
REMARK    7  A    between atoms: C_15  and  N_26
REMARK    8  A    between atoms: N_29  and  C_32
REMARK                            x       y       z     vdW  Elec       q    Type
REMARK                         _______ _______ _______ _____ _____    ______ ____
ROOT
ATOM      1  C   UNL     1       0.326  -8.398   4.287  0.00  0.00    +0.104 C 
ENDROOT
BRANCH   1   2
ATOM      2  C   UNL     1       0.145  -9.041   5.638  0.00  0.00    -0.025 A 
ATOM      3  C   UNL     1      -1.107  -9.076   6.223  0.00  0.00    +0.009 A 
ATOM      4  C   UNL     1      -1.277  -9.665   7.462  0.00  0.00    +0.050 A 
ATOM      5  C   UNL     1      -0.193 -10.221   8.121  0.00  0.00    +0.166 A 
ATOM      6  C   UNL     1       1.068 -10.186   7.531  0.00  0.00    +0.167 A 
ATOM      7  C   UNL     1       1.231  -9.599   6.287  0.00  0.00    +0.054 A 
ATOM      8  O   UNL     1       1.959 -10.793   8.369  0.00  0.00    -0.453 OA
ATOM      9  C   UNL     1       1.310 -10.836   9.654  0.00  0.00    +0.466 C 
ATOM     10  O   UNL     1      -0.092 -10.850   9.328  0.00  0.00    -0.453 OA
ENDBRANCH   1   2
BRANCH   1  11
ATOM     11  N   UNL     1      -0.817  -8.736   3.427  0.00  0.00    -0.291 NA
ATOM     12  C   UNL     1      -0.982 -10.192   3.320  0.00  0.00    +0.104 C 
ATOM     13  C   UNL     1      -2.282 -10.501   2.570  0.00  0.00    +0.120 C 
ATOM     14  N   UNL     1      -2.264  -9.781   1.288  0.00  0.00    -0.325 N 
ATOM     15  C   UNL     1      -1.968  -8.340   1.302  0.00  0.00    +0.120 C 
ATOM     16  C   UNL     1      -0.680  -8.116   2.103  0.00  0.00    +0.104 C 
BRANCH  14  17
ATOM     17  C   UNL     1      -2.522 -10.448   0.086  0.00  0.00    +0.065 A 
ATOM     18  C   UNL     1      -3.821 -10.536  -0.397  0.00  0.00    +0.026 A 
ATOM     19  C   UNL     1      -4.072 -11.195  -1.584  0.00  0.00    +0.002 A 
ATOM     20  C   UNL     1      -3.033 -11.769  -2.292  0.00  0.00    +0.003 A 
ATOM     21  C   UNL     1      -1.737 -11.686  -1.816  0.00  0.00    +0.040 A 
ATOM     22  C   UNL     1      -1.477 -11.022  -0.631  0.00  0.00    +0.144 A 
ATOM     23  F   UNL     1      -0.211 -10.935  -0.168  0.00  0.00    -0.204 F 
ENDBRANCH  14  17
ENDBRANCH   1  11
BRANCH   1  24
ATOM     24  C   UNL     1       0.408  -6.879   4.452  0.00  0.00    +0.128 C 
BRANCH  24  27
ATOM     25  C   UNL     1       1.819  -5.258   5.601  0.00  0.00    +0.299 C 
ATOM     26  O   UNL     1       1.034  -4.390   5.278  0.00  0.00    -0.265 OA
ATOM     27  N   UNL     1       1.596  -6.537   5.237  0.00  0.00    -0.306 N 
ATOM     28  H   UNL     1       2.224  -7.230   5.495  0.00  0.00    +0.149 HD
BRANCH  25  30
ATOM     29  N   UNL     1       3.252  -3.630   6.764  0.00  0.00    -0.278 N 
ATOM     30  C   UNL     1       3.030  -4.909   6.401  0.00  0.00    +0.303 C 
ATOM     31  O   UNL     1       3.815  -5.777   6.724  0.00  0.00    -0.265 OA
ATOM     32  H   UNL     1       2.590  -2.949   6.570  0.00  0.00    +0.155 HD
BRANCH  29  38
ATOM     33  C   UNL     1       5.605  -0.852  10.067  0.00  0.00    +0.044 C 
ATOM     34  C   UNL     1       5.606  -1.943   9.027  0.00  0.00    -0.049 A 
ATOM     35  C   UNL     1       6.782  -2.605   8.722  0.00  0.00    +0.003 A 
ATOM     36  C   UNL     1       6.788  -3.606   7.769  0.00  0.00    +0.002 A 
ATOM     37  C   UNL     1       5.619  -3.949   7.117  0.00  0.00    +0.023 A 
ATOM     38  C   UNL     1       4.437  -3.287   7.422  0.00  0.00    +0.034 A 
ATOM     39  C   UNL     1       4.433  -2.284   8.384  0.00  0.00    +0.026 A 
ENDBRANCH  29  38
ENDBRANCH  25  30
ENDBRANCH  24  27
ENDBRANCH   1  24
TORSDOF 7
