REMARK  Name = ZINC67061339
REMARK  5 active torsions:
REMARK  status: ('A' for Active; 'I' for Inactive)
REMARK    1  A    between atoms: C_4  and  C_8
REMARK    2  A    between atoms: C_8  and  N_9
REMARK    3  A    between atoms: N_12  and  N_13
REMARK    4  A    between atoms: C_14  and  C_16
REMARK    5  A    between atoms: C_16  and  C_17
REMARK                            x       y       z     vdW  Elec       q    Type
REMARK                         _______ _______ _______ _____ _____    ______ ____
ROOT
ATOM      1  N   UNL     1       4.270  -0.743   1.315  0.00  0.00    -0.294 N 
ATOM      2  C   UNL     1       5.450  -1.353   1.542  0.00  0.00    +0.316 C 
ATOM      3  O   UNL     1       6.053  -1.873   0.623  0.00  0.00    -0.251 OA
ATOM      4  N   UNL     1       5.963  -1.386   2.789  0.00  0.00    -0.218 N 
ATOM      5  H   UNL     1       3.789  -0.328   2.049  0.00  0.00    +0.151 HD
ATOM      6  H   UNL     1       6.812  -1.825   2.952  0.00  0.00    +0.174 HD
ENDROOT
BRANCH   4   7
ATOM      7  N   UNL     1       5.269  -0.787   3.848  0.00  0.00    -0.233 N 
ATOM      8  C   UNL     1       5.781  -0.820   5.094  0.00  0.00    +0.229 C 
ATOM      9  O   UNL     1       6.843  -1.369   5.298  0.00  0.00    -0.274 OA
ATOM     10  H   UNL     1       4.419  -0.348   3.684  0.00  0.00    +0.173 HD
BRANCH   8  11
ATOM     11  C   UNL     1       5.035  -0.176   6.233  0.00  0.00    +0.101 C 
BRANCH  11  12
ATOM     12  C   UNL     1       5.828  -0.355   7.529  0.00  0.00    -0.002 C 
ATOM     13  C   UNL     1       7.150   0.408   7.428  0.00  0.00    +0.004 C 
ATOM     14  C   UNL     1       7.943   0.229   8.724  0.00  0.00    +0.000 C 
ATOM     15  C   UNL     1       7.129   0.772   9.900  0.00  0.00    +0.000 C 
ATOM     16  C   UNL     1       5.807   0.009  10.001  0.00  0.00    +0.000 C 
ATOM     17  C   UNL     1       5.014   0.188   8.705  0.00  0.00    +0.004 C 
ENDBRANCH  11  12
ENDBRANCH   8  11
ENDBRANCH   4   7
BRANCH   1  18
ATOM     18  C   UNL     1       3.713  -0.706  -0.039  0.00  0.00    +0.142 C 
BRANCH  18  22
ATOM     19  C   UNL     1      -0.017   1.380   0.010  0.00  0.00    +0.039 A 
ATOM     20  C   UNL     1       1.171   2.087   0.002  0.00  0.00    +0.018 A 
ATOM     21  C   UNL     1       2.378   1.412  -0.013  0.00  0.00    +0.023 A 
ATOM     22  C   UNL     1       2.397   0.029  -0.022  0.00  0.00    -0.014 A 
ATOM     23  C   UNL     1       1.211  -0.679  -0.014  0.00  0.00    +0.044 A 
ATOM     24  C   UNL     1       0.002  -0.004   0.002  0.00  0.00    +0.124 A 
ATOM     25  F   UNL     1      -1.158  -0.696   0.010  0.00  0.00    -0.205 F 
ATOM     26 BR   UNL     1       4.002   2.380  -0.025  0.00  0.00    -0.050 Br
ENDBRANCH  18  22
ENDBRANCH   1  18
TORSDOF 5
