REMARK  Name = ZINC49429256
REMARK  3 active torsions:
REMARK  status: ('A' for Active; 'I' for Inactive)
REMARK    1  A    between atoms: C_3  and  N_6
REMARK    2  A    between atoms: C_13  and  C_16
REMARK    3  A    between atoms: N_18  and  C_19
REMARK                            x       y       z     vdW  Elec       q    Type
REMARK                         _______ _______ _______ _____ _____    ______ ____
ROOT
ATOM      1  N   UNL     1       3.583   1.678   0.069  0.00  0.00    -0.264 N 
ATOM      2  C   UNL     1       4.617   0.814   0.075  0.00  0.00    +0.307 C 
ATOM      3  O   UNL     1       4.426  -0.361   0.325  0.00  0.00    -0.252 OA
ATOM      4  N   UNL     1       5.862   1.251  -0.197  0.00  0.00    -0.285 N 
ATOM      5  C   UNL     1       6.128   2.684  -0.383  0.00  0.00    +0.109 C 
ATOM      6  C   UNL     1       7.261   3.102   0.560  0.00  0.00    +0.020 C 
ATOM      7  C   UNL     1       8.475   2.201   0.323  0.00  0.00    +0.016 C 
ATOM      8  C   UNL     1       8.103   0.749   0.629  0.00  0.00    +0.093 C 
ATOM      9  C   UNL     1       6.981   0.305  -0.308  0.00  0.00    +0.122 C 
ATOM     10  H   UNL     1       3.744   2.626  -0.059  0.00  0.00    +0.157 HD
ENDROOT
BRANCH   1  13
ATOM     11  C   UNL     1      -0.075   1.221   0.463  0.00  0.00    +0.009 A 
ATOM     12  C   UNL     1       1.110   1.908   0.272  0.00  0.00    +0.031 A 
ATOM     13  C   UNL     1       2.278   1.208   0.246  0.00  0.00    +0.073 A 
ATOM     14  S   UNL     1       1.710  -0.466   0.497  0.00  0.00    -0.082 S 
ATOM     15  C   UNL     1      -0.038  -0.124   0.619  0.00  0.00    +0.047 A 
ENDBRANCH   1  13
BRANCH   8  16
ATOM     16  C   UNL     1       9.308  -0.133   0.427  0.00  0.00    +0.222 C 
ATOM     17  O   UNL     1      10.362   0.352   0.073  0.00  0.00    -0.275 OA
ATOM     18  N   UNL     1       9.215  -1.461   0.639  0.00  0.00    -0.285 N 
ATOM     19  H   UNL     1       8.356  -1.859   0.850  0.00  0.00    +0.155 HD
BRANCH  18  20
ATOM     20  C   UNL     1      10.357  -2.264   0.556  0.00  0.00    +0.036 A 
ATOM     21  C   UNL     1      10.259  -3.566   0.082  0.00  0.00    +0.043 A 
ATOM     22  C   UNL     1      11.389  -4.358   0.000  0.00  0.00    +0.044 A 
ATOM     23  C   UNL     1      12.618  -3.854   0.390  0.00  0.00    +0.040 A 
ATOM     24  C   UNL     1      12.719  -2.557   0.862  0.00  0.00    +0.044 A 
ATOM     25  C   UNL     1      11.592  -1.760   0.941  0.00  0.00    +0.043 A 
ATOM     26 CL   UNL     1      14.262  -1.929   1.350  0.00  0.00    -0.083 Cl
ATOM     27 CL   UNL     1      11.267  -5.985  -0.591  0.00  0.00    -0.083 Cl
ENDBRANCH  18  20
ENDBRANCH   8  16
TORSDOF 3
