REMARK  Name = ZINC51318354
REMARK  8 active torsions:
REMARK  status: ('A' for Active; 'I' for Inactive)
REMARK    1  A    between atoms: C_1  and  C_2
REMARK    2  A    between atoms: C_5  and  C_8
REMARK    3  A    between atoms: C_10  and  C_29
REMARK    4  A    between atoms: C_11  and  C_16
REMARK    5  A    between atoms: C_16  and  N_17
REMARK    6  A    between atoms: N_20  and  C_23
REMARK    7  A    between atoms: C_29  and  O_31
REMARK    8  A    between atoms: O_31  and  C_32
REMARK                            x       y       z     vdW  Elec       q    Type
REMARK                         _______ _______ _______ _____ _____    ______ ____
ROOT
ATOM      1  C   UNL     1       0.139  -4.952  -0.301  0.00  0.00    +0.144 C 
ATOM      2  C   UNL     1      -1.256  -5.465  -0.004  0.00  0.00    +0.079 C 
ATOM      3  C   UNL     1      -1.622  -5.576   1.291  0.00  0.00    +0.038 C 
ATOM      4  N   UNL     1      -0.764  -5.237   2.298  0.00  0.00    -0.271 N 
ATOM      5  C   UNL     1       0.478  -4.780   2.093  0.00  0.00    +0.304 C 
ATOM      6  O   UNL     1       1.169  -4.505   3.054  0.00  0.00    -0.252 OA
ATOM      7  N   UNL     1       0.985  -4.615   0.856  0.00  0.00    -0.288 N 
ATOM      8  H   UNL     1      -1.071  -5.333   3.213  0.00  0.00    +0.156 HD
ATOM      9  H   UNL     1       1.888  -4.282   0.731  0.00  0.00    +0.151 HD
ENDROOT
BRANCH   1  14
ATOM     10  C   UNL     1      -0.365  -0.222  -3.581  0.00  0.00    +0.044 C 
ATOM     11  C   UNL     1      -0.233  -1.455  -2.726  0.00  0.00    -0.050 A 
ATOM     12  C   UNL     1      -0.000  -2.684  -3.315  0.00  0.00    +0.004 A 
ATOM     13  C   UNL     1       0.120  -3.815  -2.530  0.00  0.00    +0.006 A 
ATOM     14  C   UNL     1       0.008  -3.719  -1.156  0.00  0.00    -0.022 A 
ATOM     15  C   UNL     1      -0.224  -2.490  -0.566  0.00  0.00    +0.006 A 
ATOM     16  C   UNL     1      -0.340  -1.358  -1.351  0.00  0.00    +0.004 A 
ENDBRANCH   1  14
BRANCH   2  17
ATOM     17  C   UNL     1      -2.144  -5.814  -1.048  0.00  0.00    +0.339 C 
ATOM     18  O   UNL     1      -3.214  -6.332  -0.788  0.00  0.00    -0.245 OA
BRANCH  17  19
ATOM     19  O   UNL     1      -1.805  -5.573  -2.332  0.00  0.00    -0.465 OA
ATOM     20  C   UNL     1      -2.749  -5.952  -3.334  0.00  0.00    +0.280 C 
ENDBRANCH  17  19
ENDBRANCH   2  17
BRANCH   3  21
ATOM     21  C   UNL     1      -3.001  -6.081   1.631  0.00  0.00    +0.135 C 
BRANCH  21  22
ATOM     22  N   UNL     1      -2.994  -7.550   1.648  0.00  0.00    -0.300 NA
ATOM     23  C   UNL     1      -2.270  -8.059   2.821  0.00  0.00    +0.066 C 
ATOM     24  C   UNL     1      -2.234  -9.588   2.770  0.00  0.00    -0.063 C 
ATOM     25  N   UNL     1      -3.607 -10.110   2.756  0.00  0.00    +0.383 N 
ATOM     26  C   UNL     1      -4.310  -9.612   1.566  0.00  0.00    -0.063 C 
ATOM     27  C   UNL     1      -4.363  -8.083   1.607  0.00  0.00    +0.066 C 
ATOM     28  H   UNL     1      -4.092  -9.803   3.586  0.00  0.00    -0.081 HD
BRANCH  25  29
ATOM     29  C   UNL     1      -3.572 -11.578   2.725  0.00  0.00    -0.068 C 
ATOM     30  C   UNL     1      -2.842 -12.097   3.966  0.00  0.00    -0.015 C 
ATOM     31  C   UNL     1      -2.806 -13.626   3.934  0.00  0.00    -0.002 C 
ATOM     32  C   UNL     1      -4.236 -14.170   3.919  0.00  0.00    -0.000 C 
ATOM     33  C   UNL     1      -4.966 -13.651   2.679  0.00  0.00    -0.002 C 
ATOM     34  C   UNL     1      -5.003 -12.122   2.711  0.00  0.00    -0.015 C 
ENDBRANCH  25  29
ENDBRANCH  21  22
ENDBRANCH   3  21
TORSDOF 6
