REMARK  Name = ZINC09595252
REMARK  4 active torsions:
REMARK  status: ('A' for Active; 'I' for Inactive)
REMARK    1  A    between atoms: C_4  and  N_7
REMARK    2  A    between atoms: C_8  and  C_17
REMARK    3  A    between atoms: C_10  and  C_12
REMARK    4  A    between atoms: C_21  and  C_30
REMARK                            x       y       z     vdW  Elec       q    Type
REMARK                         _______ _______ _______ _____ _____    ______ ____
ROOT
ATOM      1  C   UNL     1       3.610   3.145  -0.319  0.00  0.00    +0.269 C 
ATOM      2  O   UNL     1       2.645   3.562  -0.932  0.00  0.00    -0.268 OA
ATOM      3  N   UNL     1       4.673   3.946  -0.108  0.00  0.00    -0.259 N 
ATOM      4  C   UNL     1       5.790   3.521   0.752  0.00  0.00    +0.168 C 
ATOM      5  C   UNL     1       6.197   4.724   1.614  0.00  0.00    +0.276 C 
ATOM      6  O   UNL     1       6.561   5.806   0.752  0.00  0.00    -0.476 OA
ATOM      7  C   UNL     1       5.704   6.130  -0.252  0.00  0.00    +0.143 A 
ATOM      8  C   UNL     1       4.754   5.217  -0.702  0.00  0.00    +0.079 A 
ATOM      9  C   UNL     1       3.890   5.560  -1.730  0.00  0.00    +0.027 A 
ATOM     10  C   UNL     1       3.972   6.813  -2.309  0.00  0.00    +0.002 A 
ATOM     11  C   UNL     1       4.917   7.720  -1.867  0.00  0.00    +0.004 A 
ATOM     12  C   UNL     1       5.778   7.385  -0.838  0.00  0.00    +0.047 A 
ENDROOT
BRANCH   1  14
ATOM     13  N   UNL     1       2.520   0.967   0.387  0.00  0.00    -0.227 N 
ATOM     14  C   UNL     1       3.616   1.766   0.193  0.00  0.00    +0.130 A 
ATOM     15  C   UNL     1       4.725   1.036   0.560  0.00  0.00    +0.063 A 
ATOM     16  C   UNL     1       4.280  -0.225   0.992  0.00  0.00    +0.100 A 
ATOM     17  N   UNL     1       2.966  -0.264   0.884  0.00  0.00    -0.165 NA
BRANCH  13  21
ATOM     18  C   UNL     1      -1.441   2.013  -0.373  0.00  0.00    +0.000 A 
ATOM     19  C   UNL     1      -0.970   0.770  -0.756  0.00  0.00    +0.002 A 
ATOM     20  C   UNL     1       0.342   0.421  -0.506  0.00  0.00    +0.028 A 
ATOM     21  C   UNL     1       1.189   1.318   0.132  0.00  0.00    +0.066 A 
ATOM     22  C   UNL     1       0.711   2.563   0.521  0.00  0.00    +0.028 A 
ATOM     23  C   UNL     1      -0.600   2.909   0.262  0.00  0.00    +0.002 A 
ENDBRANCH  13  21
BRANCH  16  24
ATOM     24  C   UNL     1       5.141  -1.325   1.480  0.00  0.00    +0.039 A 
ATOM     25  C   UNL     1       4.783  -2.574   1.910  0.00  0.00    +0.018 A 
ATOM     26  C   UNL     1       5.771  -3.441   2.323  0.00  0.00    +0.008 A 
ATOM     27  C   UNL     1       7.065  -3.031   2.292  0.00  0.00    +0.046 A 
ATOM     28  S   UNL     1       6.917  -1.371   1.654  0.00  0.00    -0.095 S 
ENDBRANCH  16  24
ENDBRANCH   1  14
BRANCH   5  29
ATOM     29  C   UNL     1       7.372   4.351   2.480  0.00  0.00    +0.253 C 
ATOM     30  O   UNL     1       8.443   4.898   2.318  0.00  0.00    -0.272 OA
ATOM     31  N   UNL     1       7.234   3.410   3.435  0.00  0.00    -0.326 N 
ATOM     32  H   UNL     1       6.378   2.973   3.565  0.00  0.00    +0.145 HD
ATOM     33  H   UNL     1       7.991   3.170   3.992  0.00  0.00    +0.145 HD
ENDBRANCH   5  29
TORSDOF 4
