REMARK  Name = ZINC13073836
REMARK  8 active torsions:
REMARK  status: ('A' for Active; 'I' for Inactive)
REMARK    1  A    between atoms: C_1  and  C_2
REMARK    2  A    between atoms: C_2  and  C_3
REMARK    3  A    between atoms: N_11  and  C_15
REMARK    4  A    between atoms: C_15  and  C_16
REMARK    5  A    between atoms: N_18  and  C_19
REMARK    6  A    between atoms: C_21  and  S_26
REMARK    7  A    between atoms: C_24  and  C_25
REMARK    8  A    between atoms: S_26  and  N_29
REMARK                            x       y       z     vdW  Elec       q    Type
REMARK                         _______ _______ _______ _____ _____    ______ ____
ROOT
ATOM      1  C   UNL     1       6.584   1.325  -2.117  0.00  0.00    +0.235 C 
ATOM      2  O   UNL     1       6.199   1.598  -1.000  0.00  0.00    -0.274 OA
ATOM      3  N   UNL     1       6.216   0.162  -2.691  0.00  0.00    -0.284 N 
ATOM      4  H   UNL     1       6.575  -0.086  -3.557  0.00  0.00    +0.155 HD
ENDROOT
BRANCH   3   5
ATOM      5  C   UNL     1       5.315  -0.686  -2.038  0.00  0.00    +0.038 A 
ATOM      6  C   UNL     1       5.334  -0.787  -0.653  0.00  0.00    +0.052 A 
ATOM      7  C   UNL     1       4.443  -1.625  -0.011  0.00  0.00    +0.107 A 
ATOM      8  C   UNL     1       3.537  -2.367  -0.747  0.00  0.00    +0.029 A 
ATOM      9  C   UNL     1       3.512  -2.265  -2.125  0.00  0.00    +0.007 A 
ATOM     10  C   UNL     1       4.401  -1.428  -2.773  0.00  0.00    -0.029 A 
ATOM     11  C   UNL     1       4.376  -1.321  -4.276  0.00  0.00    +0.045 C 
BRANCH   7  12
ATOM     12  S   UNL     1       4.467  -1.755   1.746  0.00  0.00    +0.061 S 
ATOM     13  O   UNL     1       5.772  -1.378   2.164  0.00  0.00    -0.153 OA
ATOM     14  O   UNL     1       3.898  -3.017   2.068  0.00  0.00    -0.153 OA
BRANCH  12  15
ATOM     15  N   UNL     1       3.431  -0.605   2.336  0.00  0.00    -0.177 NA
ATOM     16  C   UNL     1       2.012  -0.918   2.553  0.00  0.00    +0.109 C 
ATOM     17  C   UNL     1       1.160   0.121   1.817  0.00  0.00    +0.017 C 
ATOM     18  C   UNL     1       1.571   1.524   2.268  0.00  0.00    +0.003 C 
ATOM     19  C   UNL     1       3.040   1.766   1.914  0.00  0.00    +0.017 C 
ATOM     20  C   UNL     1       3.913   0.746   2.651  0.00  0.00    +0.109 C 
ENDBRANCH  12  15
ENDBRANCH   7  12
ENDBRANCH   3   5
BRANCH   1  21
ATOM     21  C   UNL     1       7.474   2.285  -2.863  0.00  0.00    +0.214 C 
BRANCH  21  30
ATOM     22  C   UNL     1      10.879   5.081   1.294  0.00  0.00    -0.011 C 
ATOM     23  C   UNL     1       9.665   4.199   1.596  0.00  0.00    +0.006 C 
ATOM     24  C   UNL     1       8.416   4.820   0.965  0.00  0.00    +0.035 C 
ATOM     25  C   UNL     1       8.614   4.944  -0.542  0.00  0.00    +0.113 C 
ATOM     26  C   UNL     1       9.834   5.803  -0.857  0.00  0.00    +0.035 C 
ATOM     27  C   UNL     1      11.078   5.179  -0.219  0.00  0.00    +0.006 C 
ATOM     28  C   UNL     1       8.758   3.575  -1.168  0.00  0.00    +0.247 C 
ATOM     29  O   UNL     1       9.619   2.752  -0.942  0.00  0.00    -0.273 OA
ATOM     30  N   UNL     1       7.727   3.464  -2.031  0.00  0.00    -0.215 N 
ATOM     31  C   UNL     1       6.967   4.566  -2.036  0.00  0.00    +0.310 C 
ATOM     32  O   UNL     1       5.983   4.705  -2.736  0.00  0.00    -0.252 OA
ATOM     33  N   UNL     1       7.413   5.502  -1.176  0.00  0.00    -0.285 N 
ATOM     34  H   UNL     1       7.021   6.373  -1.011  0.00  0.00    +0.151 HD
BRANCH  22  36
ATOM     35  C   UNL     1      13.315   5.410   1.740  0.00  0.00    +0.004 C 
ATOM     36  C   UNL     1      12.126   4.467   1.934  0.00  0.00    -0.000 C 
ENDBRANCH  22  36
ENDBRANCH  21  30
ENDBRANCH   1  21
TORSDOF 6
