REMARK  Name = ZINC58903563
REMARK  8 active torsions:
REMARK  status: ('A' for Active; 'I' for Inactive)
REMARK    1  A    between atoms: C_1  and  C_2
REMARK    2  A    between atoms: N_5  and  C_7
REMARK    3  A    between atoms: C_14  and  N_35
REMARK    4  A    between atoms: C_15  and  C_32
REMARK    5  A    between atoms: C_16  and  C_18
REMARK    6  A    between atoms: C_22  and  O_24
REMARK    7  A    between atoms: O_24  and  C_25
REMARK    8  A    between atoms: C_25  and  C_26
REMARK                            x       y       z     vdW  Elec       q    Type
REMARK                         _______ _______ _______ _____ _____    ______ ____
ROOT
ATOM      1  C   UNL     1       0.496   1.530  -0.089  0.00  0.00    +0.068 C 
ATOM      2  C   UNL     1       0.284   0.038  -0.052  0.00  0.00    +0.068 A 
ATOM      3  C   UNL     1       0.163  -0.794  -1.157  0.00  0.00    +0.049 A 
ATOM      4  C   UNL     1      -0.018  -2.072  -0.709  0.00  0.00    +0.230 A 
ATOM      5  N   UNL     1      -0.008  -2.034   0.642  0.00  0.00    -0.200 N 
ATOM      6  N   UNL     1       0.188  -0.699   1.029  0.00  0.00    -0.168 NA
ATOM      7  O   UNL     1      -0.173  -3.128  -1.545  0.00  0.00    -0.423 OA
ATOM      8  C   UNL     1      -0.420  -2.865  -2.843  0.00  0.00    +0.195 C 
ATOM      9  C   UNL     1      -0.266  -1.644  -3.407  0.00  0.00    +0.083 C 
ATOM     10  C   UNL     1       0.209  -0.446  -2.623  0.00  0.00    +0.096 C 
ENDROOT
BRANCH   5  11
ATOM     11  C   UNL     1      -0.161  -3.130   1.501  0.00  0.00    +0.069 A 
ATOM     12  C   UNL     1      -1.002  -4.177   1.150  0.00  0.00    +0.028 A 
ATOM     13  C   UNL     1      -1.151  -5.256   1.999  0.00  0.00    +0.002 A 
ATOM     14  C   UNL     1      -0.462  -5.295   3.198  0.00  0.00    +0.000 A 
ATOM     15  C   UNL     1       0.377  -4.254   3.550  0.00  0.00    +0.002 A 
ATOM     16  C   UNL     1       0.533  -3.174   2.703  0.00  0.00    +0.028 A 
ENDBRANCH   5  11
BRANCH  10  17
ATOM     17  C   UNL     1       1.623  -0.107  -3.021  0.00  0.00    -0.032 A 
ATOM     18  C   UNL     1       2.625  -1.049  -2.878  0.00  0.00    +0.005 A 
ATOM     19  C   UNL     1       3.923  -0.741  -3.242  0.00  0.00    +0.004 A 
ATOM     20  C   UNL     1       4.221   0.509  -3.750  0.00  0.00    +0.045 A 
ATOM     21  C   UNL     1       3.217   1.455  -3.895  0.00  0.00    +0.121 A 
ATOM     22  C   UNL     1       1.914   1.142  -3.534  0.00  0.00    +0.050 A 
BRANCH  21  23
ATOM     23  O   UNL     1       3.508   2.685  -4.394  0.00  0.00    -0.487 OA
BRANCH  23  24
ATOM     24  C   UNL     1       4.869   2.936  -4.750  0.00  0.00    +0.264 C 
BRANCH  24  25
ATOM     25  C   UNL     1       4.999   4.340  -5.281  0.00  0.00    -0.010 A 
ATOM     26  C   UNL     1       4.837   4.586  -6.631  0.00  0.00    +0.007 A 
ATOM     27  C   UNL     1       4.957   5.874  -7.118  0.00  0.00    +0.000 A 
ATOM     28  C   UNL     1       5.237   6.917  -6.255  0.00  0.00    +0.000 A 
ATOM     29  C   UNL     1       5.398   6.670  -4.904  0.00  0.00    +0.000 A 
ATOM     30  C   UNL     1       5.275   5.383  -4.416  0.00  0.00    +0.007 A 
ENDBRANCH  24  25
ENDBRANCH  23  24
ENDBRANCH  21  23
ENDBRANCH  10  17
BRANCH   9  31
ATOM     31  C   UNL     1      -0.558  -1.487  -4.772  0.00  0.00    +0.243 C 
ATOM     32  O   UNL     1      -1.613  -0.980  -5.114  0.00  0.00    -0.271 OA
ATOM     33  N   UNL     1       0.326  -1.897  -5.702  0.00  0.00    -0.325 N 
ATOM     34  H   UNL     1       1.165  -2.300  -5.430  0.00  0.00    +0.145 HD
ATOM     35  H   UNL     1       0.124  -1.788  -6.645  0.00  0.00    +0.145 HD
ENDBRANCH   9  31
BRANCH   8  36
ATOM     36  N   UNL     1      -0.854  -3.893  -3.639  0.00  0.00    -0.329 N 
ATOM     37  H   UNL     1      -0.890  -4.796  -3.287  0.00  0.00    +0.145 HD
ATOM     38  H   UNL     1      -1.124  -3.717  -4.554  0.00  0.00    +0.145 HD
ENDBRANCH   8  36
TORSDOF 7
