REMARK  Name = ZINC33078179
REMARK  10 active torsions:
REMARK  status: ('A' for Active; 'I' for Inactive)
REMARK    1  A    between atoms: C_1  and  C_2
REMARK    2  A    between atoms: C_4  and  N_29
REMARK    3  A    between atoms: N_8  and  C_9
REMARK    4  A    between atoms: C_12  and  N_15
REMARK    5  A    between atoms: N_15  and  S_16
REMARK    6  A    between atoms: S_16  and  C_19
REMARK    7  A    between atoms: C_22  and  O_27
REMARK    8  A    between atoms: C_23  and  O_25
REMARK    9  A    between atoms: O_25  and  C_26
REMARK   10  A    between atoms: O_27  and  C_28
REMARK                            x       y       z     vdW  Elec       q    Type
REMARK                         _______ _______ _______ _____ _____    ______ ____
ROOT
ATOM      1  C   UNL     1      -1.087   7.528  -0.560  0.00  0.00    +0.034 A 
ATOM      2  C   UNL     1       0.164   8.127  -0.647  0.00  0.00    +0.025 A 
ATOM      3  C   UNL     1       0.272   9.503  -0.653  0.00  0.00    +0.026 A 
ATOM      4  C   UNL     1      -0.870  10.289  -0.562  0.00  0.00    +0.048 A 
ATOM      5  C   UNL     1      -2.119   9.691  -0.470  0.00  0.00    +0.026 A 
ATOM      6  C   UNL     1      -2.228   8.315  -0.469  0.00  0.00    +0.025 A 
ENDROOT
BRANCH   1  14
ATOM      7  C   UNL     1       2.427   5.979  -3.692  0.00  0.00    +0.063 C 
ATOM      8  C   UNL     1       1.435   5.276  -2.802  0.00  0.00    +0.019 A 
ATOM      9  C   UNL     1       1.423   3.897  -2.725  0.00  0.00    +0.064 A 
ATOM     10  C   UNL     1       0.483   3.285  -1.892  0.00  0.00    +0.126 A 
ATOM     11  N   UNL     1      -0.356   4.047  -1.197  0.00  0.00    -0.201 NA
ATOM     12  C   UNL     1      -0.308   5.367  -1.296  0.00  0.00    +0.199 A 
ATOM     13  N   UNL     1       0.570   5.974  -2.082  0.00  0.00    -0.331 N 
ATOM     14  N   UNL     1      -1.196   6.132  -0.559  0.00  0.00    -0.285 N 
ATOM     15  H   UNL     1      -1.989   5.643   0.027  0.00  0.00    +0.155 HD
ATOM     16  H   UNL     1       0.572   7.073  -2.132  0.00  0.00    +0.168 HD
BRANCH  10  17
ATOM     17  N   UNL     1       0.431   1.905  -1.786  0.00  0.00    -0.315 N 
ATOM     18  C   UNL     1      -0.624   1.488  -0.854  0.00  0.00    +0.106 C 
ATOM     19  C   UNL     1      -0.750  -0.037  -0.872  0.00  0.00    +0.019 C 
ATOM     20  C   UNL     1       0.589  -0.660  -0.469  0.00  0.00    +0.003 C 
ATOM     21  C   UNL     1       1.680  -0.172  -1.427  0.00  0.00    +0.019 C 
ATOM     22  C   UNL     1       1.735   1.357  -1.392  0.00  0.00    +0.106 C 
ENDBRANCH  10  17
ENDBRANCH   1  14
BRANCH   4  23
ATOM     23  N   UNL     1      -0.760  11.685  -0.563  0.00  0.00    -0.216 N 
ATOM     24  H   UNL     1      -0.530  12.217  -1.498  0.00  0.00    +0.174 HD
BRANCH  23  25
ATOM     25  S   UNL     1      -0.975  12.534   0.842  0.00  0.00    +0.072 S 
ATOM     26  O   UNL     1      -0.750  13.901   0.529  0.00  0.00    -0.150 OA
ATOM     27  O   UNL     1      -2.193  12.073   1.412  0.00  0.00    -0.150 OA
BRANCH  25  28
ATOM     28  C   UNL     1       0.311  12.050   1.945  0.00  0.00    +0.112 A 
ATOM     29  C   UNL     1       0.151  10.934   2.745  0.00  0.00    +0.032 A 
ATOM     30  C   UNL     1       1.159  10.548   3.608  0.00  0.00    +0.051 A 
ATOM     31  C   UNL     1       2.329  11.286   3.681  0.00  0.00    +0.162 A 
ATOM     32  C   UNL     1       2.489  12.413   2.880  0.00  0.00    +0.163 A 
ATOM     33  C   UNL     1       1.476  12.792   2.013  0.00  0.00    +0.078 A 
BRANCH  32  34
ATOM     34  O   UNL     1       3.635  13.141   2.947  0.00  0.00    -0.491 OA
ATOM     35  C   UNL     1       3.729  14.284   2.095  0.00  0.00    +0.277 C 
ENDBRANCH  32  34
BRANCH  31  36
ATOM     36  O   UNL     1       3.320  10.911   4.533  0.00  0.00    -0.491 OA
ATOM     37  C   UNL     1       3.088   9.744   5.325  0.00  0.00    +0.277 C 
ENDBRANCH  31  36
ENDBRANCH  25  28
ENDBRANCH  23  25
ENDBRANCH   4  23
TORSDOF 7
