REMARK  Name = ZINC09790932
REMARK  9 active torsions:
REMARK  status: ('A' for Active; 'I' for Inactive)
REMARK    1  A    between atoms: C_1  and  C_2
REMARK    2  A    between atoms: C_5  and  O_9
REMARK    3  A    between atoms: C_6  and  C_8
REMARK    4  A    between atoms: O_9  and  C_10
REMARK    5  A    between atoms: C_10  and  C_11
REMARK    6  A    between atoms: C_14  and  S_17
REMARK    7  A    between atoms: N_15  and  N_16
REMARK    8  A    between atoms: S_17  and  C_18
REMARK    9  A    between atoms: C_18  and  C_19
REMARK                            x       y       z     vdW  Elec       q    Type
REMARK                         _______ _______ _______ _____ _____    ______ ____
ROOT
ATOM      1  C   UNL     1      -0.282   1.804  -2.290  0.00  0.00    +0.189 A 
ATOM      2  N   UNL     1      -1.301   2.230  -2.982  0.00  0.00    -0.128 NA
ATOM      3  N   UNL     1      -2.363   2.213  -2.259  0.00  0.00    -0.121 NA
ATOM      4  C   UNL     1      -2.077   1.768  -1.057  0.00  0.00    +0.209 A 
ATOM      5  N   UNL     1      -0.741   1.490  -1.041  0.00  0.00    -0.225 N 
ENDROOT
BRANCH   5   6
ATOM      6  N   UNL     1      -0.012   1.005   0.008  0.00  0.00    -0.295 N 
ATOM      7  H   UNL     1       0.002  -0.004   0.002  0.00  0.00    +0.163 HD
ATOM      8  H   UNL     1       0.925   1.379   0.001  0.00  0.00    +0.163 HD
ENDBRANCH   5   6
BRANCH   1   9
ATOM      9  C   UNL     1       1.139   1.680  -2.777  0.00  0.00    +0.306 C 
BRANCH   9  10
ATOM     10  O   UNL     1       1.337   0.381  -3.340  0.00  0.00    -0.484 OA
BRANCH  10  15
ATOM     11  C   UNL     1       6.464  -0.771  -5.369  0.00  0.00    +0.044 C 
ATOM     12  C   UNL     1       5.092  -0.463  -4.826  0.00  0.00    -0.050 A 
ATOM     13  C   UNL     1       4.833   0.776  -4.268  0.00  0.00    +0.007 A 
ATOM     14  C   UNL     1       3.576   1.061  -3.770  0.00  0.00    +0.046 A 
ATOM     15  C   UNL     1       2.574   0.103  -3.830  0.00  0.00    +0.124 A 
ATOM     16  C   UNL     1       2.838  -1.140  -4.385  0.00  0.00    -0.009 A 
ATOM     17  C   UNL     1       4.095  -1.418  -4.887  0.00  0.00    +0.010 A 
ATOM     18  C   UNL     1       1.754  -2.184  -4.446  0.00  0.00    +0.047 C 
ENDBRANCH  10  15
ENDBRANCH   9  10
ENDBRANCH   1   9
BRANCH   4  19
ATOM     19  S   UNL     1      -3.205   1.567   0.281  0.00  0.00    -0.080 S 
BRANCH  19  20
ATOM     20  C   UNL     1      -4.733   2.133  -0.507  0.00  0.00    +0.113 C 
BRANCH  20  21
ATOM     21  C   UNL     1      -5.869   2.046   0.479  0.00  0.00    -0.019 A 
ATOM     22  C   UNL     1      -6.622   0.889   0.565  0.00  0.00    +0.055 A 
ATOM     23  C   UNL     1      -7.663   0.806   1.474  0.00  0.00    +0.167 A 
ATOM     24  C   UNL     1      -7.958   1.894   2.292  0.00  0.00    +0.167 A 
ATOM     25  C   UNL     1      -7.204   3.052   2.198  0.00  0.00    +0.065 A 
ATOM     26  C   UNL     1      -6.161   3.126   1.292  0.00  0.00    +0.026 A 
ATOM     27 BR   UNL     1      -5.133   4.708   1.164  0.00  0.00    -0.050 Br
ATOM     28  O   UNL     1      -9.019   1.567   3.087  0.00  0.00    -0.453 OA
ATOM     29  C   UNL     1      -9.111   0.131   3.034  0.00  0.00    +0.466 C 
ATOM     30  O   UNL     1      -8.540  -0.202   1.755  0.00  0.00    -0.453 OA
ENDBRANCH  20  21
ENDBRANCH  19  20
ENDBRANCH   4  19
TORSDOF 7
