REMARK  Name = ZINC65256352
REMARK  5 active torsions:
REMARK  status: ('A' for Active; 'I' for Inactive)
REMARK    1  A    between atoms: C_4  and  C_7
REMARK    2  A    between atoms: C_18  and  C_20
REMARK    3  A    between atoms: N_22  and  C_23
REMARK    4  A    between atoms: C_23  and  C_24
REMARK    5  A    between atoms: C_27  and  N_30
REMARK                            x       y       z     vdW  Elec       q    Type
REMARK                         _______ _______ _______ _____ _____    ______ ____
ROOT
ATOM      1  C   UNL     1       3.897  -0.750  -0.260  0.00  0.00    -0.023 C 
ATOM      2  C   UNL     1       4.147  -1.058   1.220  0.00  0.00    +0.095 C 
ATOM      3  N   UNL     1       5.266  -2.007   1.316  0.00  0.00    -0.318 N 
ATOM      4  C   UNL     1       5.218  -3.222   0.487  0.00  0.00    +0.087 C 
ATOM      5  C   UNL     1       4.917  -2.812  -0.958  0.00  0.00    -0.062 C 
ATOM      6  N   UNL     1       3.690  -2.005  -0.992  0.00  0.00    +0.386 N 
ATOM      7  C   UNL     1       6.339  -1.764   2.166  0.00  0.00    +0.122 A 
ATOM      8  C   UNL     1       6.261  -0.728   3.096  0.00  0.00    +0.044 A 
ATOM      9  C   UNL     1       7.332  -0.492   3.937  0.00  0.00    +0.006 A 
ATOM     10  C   UNL     1       8.455  -1.301   3.826  0.00  0.00    +0.033 A 
ATOM     11  C   UNL     1       8.468  -2.318   2.877  0.00  0.00    +0.127 A 
ATOM     12  N   UNL     1       7.418  -2.521   2.087  0.00  0.00    -0.227 NA
ATOM     13  H   UNL     1       2.937  -2.523  -0.564  0.00  0.00    -0.085 HD
ATOM     14  H   UNL     1       3.451  -1.799  -1.951  0.00  0.00    -0.085 HD
ENDROOT
BRANCH   1  18
ATOM     15  C   UNL     1       0.422   1.706  -0.638  0.00  0.00    +0.000 A 
ATOM     16  C   UNL     1       1.681   2.276  -0.696  0.00  0.00    +0.000 A 
ATOM     17  C   UNL     1       2.805   1.481  -0.573  0.00  0.00    +0.002 A 
ATOM     18  C   UNL     1       2.671   0.117  -0.393  0.00  0.00    -0.060 A 
ATOM     19  C   UNL     1       1.413  -0.452  -0.334  0.00  0.00    +0.002 A 
ATOM     20  C   UNL     1       0.288   0.342  -0.458  0.00  0.00    +0.000 A 
ENDBRANCH   1  18
BRANCH  11  21
ATOM     21  C   UNL     1       9.661  -3.187   2.748  0.00  0.00    +0.263 C 
ATOM     22  O   UNL     1      10.622  -3.010   3.471  0.00  0.00    -0.269 OA
ATOM     23  N   UNL     1       9.680  -4.174   1.831  0.00  0.00    -0.306 N 
ATOM     24  H   UNL     1       8.913  -4.316   1.255  0.00  0.00    +0.149 HD
BRANCH  23  25
ATOM     25  C   UNL     1      10.860  -5.034   1.704  0.00  0.00    +0.140 C 
BRANCH  25  26
ATOM     26  C   UNL     1      10.627  -6.049   0.615  0.00  0.00    -0.030 A 
ATOM     27  C   UNL     1      10.051  -7.268   0.920  0.00  0.00    +0.007 A 
ATOM     28  C   UNL     1       9.836  -8.200  -0.076  0.00  0.00    +0.023 A 
ATOM     29  C   UNL     1      10.200  -7.912  -1.385  0.00  0.00    +0.030 A 
ATOM     30  C   UNL     1      10.779  -6.687  -1.688  0.00  0.00    +0.023 A 
ATOM     31  C   UNL     1      10.986  -5.756  -0.688  0.00  0.00    +0.007 A 
BRANCH  29  32
ATOM     32  N   UNL     1       9.985  -8.853  -2.394  0.00  0.00    -0.330 N 
ATOM     33  C   UNL     1       9.379 -10.181  -2.214  0.00  0.00    +0.105 C 
ATOM     34  C   UNL     1       9.370 -10.872  -3.593  0.00  0.00    +0.020 C 
ATOM     35  C   UNL     1      10.486 -10.120  -4.366  0.00  0.00    +0.020 C 
ATOM     36  C   UNL     1      10.323  -8.678  -3.819  0.00  0.00    +0.105 C 
ENDBRANCH  29  32
ENDBRANCH  25  26
ENDBRANCH  23  25
ENDBRANCH  11  21
TORSDOF 5
