REMARK  Name = ZINC34997623
REMARK  9 active torsions:
REMARK  status: ('A' for Active; 'I' for Inactive)
REMARK    1  A    between atoms: C_1  and  C_2
REMARK    2  A    between atoms: C_2  and  C_38
REMARK    3  A    between atoms: C_7  and  C_11
REMARK    4  A    between atoms: C_11  and  N_12
REMARK    5  A    between atoms: N_12  and  C_13
REMARK    6  A    between atoms: C_13  and  C_14
REMARK    7  A    between atoms: C_14  and  N_15
REMARK    8  A    between atoms: N_23  and  C_24
REMARK    9  A    between atoms: C_31  and  C_33
REMARK                            x       y       z     vdW  Elec       q    Type
REMARK                         _______ _______ _______ _____ _____    ______ ____
ROOT
ATOM      1  C   UNL     1       0.466   1.911   4.206  0.00  0.00    +0.090 C 
ENDROOT
BRANCH   1   2
ATOM      2  N   UNL     1       1.804   1.665   3.662  0.00  0.00    -0.293 N 
ATOM      3  C   UNL     1       2.685   2.679   3.556  0.00  0.00    +0.282 C 
ATOM      4  O   UNL     1       3.823   2.461   3.185  0.00  0.00    -0.267 OA
BRANCH   3   5
ATOM      5  C   UNL     1       2.272   4.047   3.889  0.00  0.00    +0.189 A 
ATOM      6  C   UNL     1       3.022   5.175   3.720  0.00  0.00    +0.054 A 
ATOM      7  C   UNL     1       2.240   6.251   4.167  0.00  0.00    +0.042 A 
ATOM      8  C   UNL     1       1.061   5.739   4.585  0.00  0.00    +0.196 A 
ATOM      9  O   UNL     1       1.083   4.411   4.411  0.00  0.00    -0.458 OA
ENDBRANCH   3   5
BRANCH   2  10
ATOM     10  C   UNL     1       2.184   0.317   3.233  0.00  0.00    +0.138 C 
BRANCH  10  16
ATOM     11  C   UNL     1       0.696   2.135   0.126  0.00  0.00    +0.012 C 
ATOM     12  C   UNL     1       0.205   0.692  -0.005  0.00  0.00    -0.025 C 
ATOM     13  C   UNL     1       1.161  -0.225  -0.795  0.00  0.00    -0.000 C 
ATOM     14  C   UNL     1       2.620   0.205  -0.592  0.00  0.00    +0.031 C 
ATOM     15  C   UNL     1       2.908   0.350   0.882  0.00  0.00    -0.025 C 
ATOM     16  C   UNL     1       1.941   0.173   1.753  0.00  0.00    -0.053 C 
ATOM     17  C   UNL     1       0.550  -0.196   1.205  0.00  0.00    +0.022 C 
ATOM     18  C   UNL     1       0.706  -1.335   0.168  0.00  0.00    +0.012 C 
ATOM     19  C   UNL     1      -1.257   0.595  -0.447  0.00  0.00    +0.012 C 
ENDBRANCH  10  16
ENDBRANCH   2  10
ENDBRANCH   1   2
BRANCH   1  20
ATOM     20  C   UNL     1       0.518   1.854   5.734  0.00  0.00    -0.059 C 
BRANCH  20  21
ATOM     21  N   UNL     1      -0.824   2.101   6.279  0.00  0.00    +0.383 N 
ATOM     22  C   UNL     1      -1.243   3.467   5.944  0.00  0.00    -0.059 C 
ATOM     23  C   UNL     1      -2.685   3.687   6.412  0.00  0.00    +0.091 C 
ATOM     24  N   UNL     1      -2.766   3.361   7.844  0.00  0.00    -0.289 N 
ATOM     25  C   UNL     1      -2.217   2.072   8.293  0.00  0.00    +0.091 C 
ATOM     26  C   UNL     1      -0.797   1.928   7.737  0.00  0.00    -0.059 C 
ATOM     27  C   UNL     1      -3.326   4.218   8.720  0.00  0.00    +0.306 C 
ATOM     28  O   UNL     1      -3.857   5.237   8.319  0.00  0.00    -0.252 OA
ATOM     29  N   UNL     1      -3.299   3.948  10.040  0.00  0.00    -0.267 N 
ATOM     30  H   UNL     1      -2.788   3.192  10.369  0.00  0.00    +0.156 HD
ATOM     31  H   UNL     1      -1.475   1.444   5.876  0.00  0.00    -0.082 HD
BRANCH  29  32
ATOM     32  C   UNL     1      -4.008   4.758  10.936  0.00  0.00    +0.070 A 
ATOM     33  C   UNL     1      -4.981   5.629  10.466  0.00  0.00    +0.026 A 
ATOM     34  C   UNL     1      -5.679   6.426  11.352  0.00  0.00    +0.002 A 
ATOM     35  C   UNL     1      -5.410   6.359  12.707  0.00  0.00    +0.003 A 
ATOM     36  C   UNL     1      -4.441   5.493  13.180  0.00  0.00    +0.040 A 
ATOM     37  C   UNL     1      -3.743   4.687  12.299  0.00  0.00    +0.145 A 
ATOM     38  F   UNL     1      -2.800   3.837  12.762  0.00  0.00    -0.204 F 
ENDBRANCH  29  32
ENDBRANCH  20  21
ENDBRANCH   1  20
TORSDOF 7
