REMARK  Name = ZINC36413020
REMARK  10 active torsions:
REMARK  status: ('A' for Active; 'I' for Inactive)
REMARK    1  A    between atoms: C_1  and  C_2
REMARK    2  A    between atoms: C_2  and  C_3
REMARK    3  A    between atoms: C_2  and  N_10
REMARK    4  A    between atoms: N_13  and  C_14
REMARK    5  A    between atoms: C_14  and  C_15
REMARK    6  A    between atoms: N_17  and  C_18
REMARK    7  A    between atoms: C_20  and  S_26
REMARK    8  A    between atoms: C_23  and  O_24
REMARK    9  A    between atoms: O_24  and  C_25
REMARK   10  A    between atoms: S_26  and  N_29
REMARK                            x       y       z     vdW  Elec       q    Type
REMARK                         _______ _______ _______ _____ _____    ______ ____
ROOT
ATOM      1  C   UNL     1       4.243  -1.810  -4.274  0.00  0.00    +0.235 C 
ATOM      2  O   UNL     1       3.355  -2.036  -5.069  0.00  0.00    -0.274 OA
ATOM      3  N   UNL     1       5.527  -2.031  -4.618  0.00  0.00    -0.281 N 
ATOM      4  H   UNL     1       6.231  -1.928  -3.958  0.00  0.00    +0.155 HD
ENDROOT
BRANCH   3   5
ATOM      5  C   UNL     1       5.846  -2.409  -5.929  0.00  0.00    +0.077 A 
ATOM      6  C   UNL     1       4.998  -2.075  -6.975  0.00  0.00    +0.055 A 
ATOM      7  C   UNL     1       5.316  -2.448  -8.267  0.00  0.00    +0.107 A 
ATOM      8  C   UNL     1       6.477  -3.155  -8.521  0.00  0.00    +0.032 A 
ATOM      9  C   UNL     1       7.327  -3.490  -7.484  0.00  0.00    +0.049 A 
ATOM     10  C   UNL     1       7.019  -3.115  -6.186  0.00  0.00    +0.141 A 
BRANCH   7  11
ATOM     11  S   UNL     1       4.237  -2.024  -9.594  0.00  0.00    +0.061 S 
ATOM     12  O   UNL     1       4.484  -2.960 -10.634  0.00  0.00    -0.153 OA
ATOM     13  O   UNL     1       2.948  -1.839  -9.026  0.00  0.00    -0.153 OA
BRANCH  11  14
ATOM     14  N   UNL     1       4.720  -0.546 -10.164  0.00  0.00    -0.177 NA
ATOM     15  C   UNL     1       4.143   0.644  -9.579  0.00  0.00    +0.109 C 
ATOM     16  C   UNL     1       2.855   1.029 -10.348  0.00  0.00    +0.017 C 
ATOM     17  C   UNL     1       3.193   1.549 -11.682  0.00  0.00    +0.001 C 
ATOM     18  C   UNL     1       3.889   0.542 -12.592  0.00  0.00    +0.001 C 
ATOM     19  C   UNL     1       5.372   0.557 -12.313  0.00  0.00    +0.017 C 
ATOM     20  C   UNL     1       5.725  -0.497 -11.243  0.00  0.00    +0.109 C 
ENDBRANCH  11  14
ENDBRANCH   7  11
BRANCH  10  21
ATOM     21  O   UNL     1       7.857  -3.440  -5.166  0.00  0.00    -0.493 OA
ATOM     22  C   UNL     1       9.041  -4.165  -5.504  0.00  0.00    +0.277 C 
ENDBRANCH  10  21
ENDBRANCH   3   5
BRANCH   1  23
ATOM     23  C   UNL     1       3.910  -1.284  -2.902  0.00  0.00    +0.202 C 
BRANCH  23  27
ATOM     24  N   UNL     1       0.591  -0.529  -1.511  0.00  0.00    -0.297 N 
ATOM     25  C   UNL     1       1.926  -0.670  -1.627  0.00  0.00    +0.300 C 
ATOM     26  O   UNL     1       2.651  -0.382  -0.694  0.00  0.00    -0.253 OA
ATOM     27  N   UNL     1       2.458  -1.130  -2.776  0.00  0.00    -0.291 N 
ATOM     28  H   UNL     1       0.013  -0.759  -2.256  0.00  0.00    +0.151 HD
ATOM     29  H   UNL     1       1.880  -1.360  -3.521  0.00  0.00    +0.151 HD
BRANCH  24  31
ATOM     30  C   UNL     1       0.026   1.501  -0.270  0.00  0.00    +0.028 C 
ATOM     31  C   UNL     1       0.012  -0.029  -0.262  0.00  0.00    +0.075 C 
BRANCH  31  32
ATOM     32  C   UNL     1      -1.429  -0.526  -0.132  0.00  0.00    +0.012 C 
ATOM     33  C   UNL     1      -2.061  -0.010   1.181  0.00  0.00    +0.009 C 
ATOM     34  C   UNL     1      -2.413  -1.300   1.983  0.00  0.00    -0.010 C 
ATOM     35  C   UNL     1      -3.600  -1.936   1.197  0.00  0.00    +0.004 C 
ATOM     36  C   UNL     1      -2.968  -2.452  -0.115  0.00  0.00    +0.004 C 
ATOM     37  C   UNL     1      -1.458  -2.079   0.001  0.00  0.00    -0.006 C 
ATOM     38  C   UNL     1      -1.237  -2.243   1.546  0.00  0.00    +0.007 C 
ENDBRANCH  31  32
ENDBRANCH  24  31
ENDBRANCH  23  27
ENDBRANCH   1  23
TORSDOF 8
