REMARK  Name = ZINC55171067
REMARK  3 active torsions:
REMARK  status: ('A' for Active; 'I' for Inactive)
REMARK    1  A    between atoms: C_1  and  C_2
REMARK    2  A    between atoms: C_3  and  C_8
REMARK    3  A    between atoms: N_10  and  C_11
REMARK                            x       y       z     vdW  Elec       q    Type
REMARK                         _______ _______ _______ _____ _____    ______ ____
ROOT
ATOM      1  C   UNL     1      -0.010  -0.258  -2.565  0.00  0.00    +0.257 C 
ATOM      2  O   UNL     1      -0.036   0.936  -2.801  0.00  0.00    -0.269 OA
ATOM      3  N   UNL     1      -0.000  -1.145  -3.579  0.00  0.00    -0.281 N 
ATOM      4  H   UNL     1       0.089  -2.093  -3.394  0.00  0.00    +0.155 HD
ENDROOT
BRANCH   1   7
ATOM      5  C   UNL     1      -0.022   1.502   0.011  0.00  0.00    +0.067 C 
ATOM      6  C   UNL     1       0.008  -0.004   0.002  0.00  0.00    +0.060 A 
ATOM      7  C   UNL     1       0.013  -0.729  -1.181  0.00  0.00    +0.098 A 
ATOM      8  S   UNL     1       0.053  -2.397  -0.545  0.00  0.00    -0.048 S 
ATOM      9  C   UNL     1       0.060  -2.022   1.095  0.00  0.00    +0.156 A 
ATOM     10  N   UNL     1       0.038  -0.701   1.111  0.00  0.00    -0.230 NA
ATOM     11  N   UNL     1       0.087  -2.887   2.168  0.00  0.00    -0.337 N 
ATOM     12  H   UNL     1       0.105  -3.845   2.018  0.00  0.00    +0.144 HD
ATOM     13  H   UNL     1       0.087  -2.537   3.073  0.00  0.00    +0.144 HD
ENDBRANCH   1   7
BRANCH   3  14
ATOM     14  C   UNL     1      -0.119  -0.699  -4.901  0.00  0.00    +0.037 A 
ATOM     15  C   UNL     1      -0.815  -1.460  -5.831  0.00  0.00    +0.027 A 
ATOM     16  C   UNL     1      -0.933  -1.021  -7.136  0.00  0.00    +0.051 A 
ATOM     17  C   UNL     1      -0.358   0.180  -7.520  0.00  0.00    +0.166 A 
ATOM     18  C   UNL     1       0.341   0.945  -6.590  0.00  0.00    +0.168 A 
ATOM     19  C   UNL     1       0.454   0.507  -5.281  0.00  0.00    +0.072 A 
ATOM     20  O   UNL     1       0.806   2.069  -7.210  0.00  0.00    -0.453 OA
ATOM     21  C   UNL     1       0.736   1.787  -8.620  0.00  0.00    +0.466 C 
ATOM     22  O   UNL     1      -0.330   0.825  -8.724  0.00  0.00    -0.453 OA
ENDBRANCH   3  14
TORSDOF 2
