REMARK  Name = ZINC12694707
REMARK  5 active torsions:
REMARK  status: ('A' for Active; 'I' for Inactive)
REMARK    1  A    between atoms: C_4  and  N_7
REMARK    2  A    between atoms: C_9  and  C_19
REMARK    3  A    between atoms: C_10  and  C_12
REMARK    4  A    between atoms: C_19  and  C_20
REMARK    5  A    between atoms: C_24  and  C_33
REMARK                            x       y       z     vdW  Elec       q    Type
REMARK                         _______ _______ _______ _____ _____    ______ ____
ROOT
ATOM      1  N   UNL     1       3.627  -0.682  -0.021  0.00  0.00    -0.239 N 
ATOM      2  C   UNL     1       4.858  -0.107  -0.031  0.00  0.00    +0.119 A 
ATOM      3  C   UNL     1       5.777  -1.097  -0.057  0.00  0.00    +0.007 A 
ATOM      4  C   UNL     1       5.088  -2.326  -0.072  0.00  0.00    +0.097 A 
ATOM      5  N   UNL     1       3.797  -2.072  -0.050  0.00  0.00    -0.166 NA
ENDROOT
BRANCH   4   6
ATOM      6  C   UNL     1       5.711  -3.673  -0.105  0.00  0.00    +0.002 A 
ATOM      7  C   UNL     1       6.888  -3.881  -0.821  0.00  0.00    +0.011 A 
ATOM      8  C   UNL     1       7.466  -5.134  -0.844  0.00  0.00    +0.020 A 
ATOM      9  C   UNL     1       6.872  -6.186  -0.168  0.00  0.00    +0.041 A 
ATOM     10  C   UNL     1       5.699  -5.985   0.540  0.00  0.00    +0.020 A 
ATOM     11  C   UNL     1       5.116  -4.735   0.574  0.00  0.00    +0.011 A 
ATOM     12 CL   UNL     1       7.600  -7.762  -0.207  0.00  0.00    -0.084 Cl
ENDBRANCH   4   6
BRANCH   1  16
ATOM     13  C   UNL     1      -0.018   1.338   0.064  0.00  0.00    +0.000 A 
ATOM     14  C   UNL     1       1.167   2.052   0.062  0.00  0.00    +0.002 A 
ATOM     15  C   UNL     1       2.376   1.385   0.035  0.00  0.00    +0.028 A 
ATOM     16  C   UNL     1       2.401  -0.003   0.008  0.00  0.00    +0.065 A 
ATOM     17  C   UNL     1       1.210  -0.716   0.010  0.00  0.00    +0.028 A 
ATOM     18  C   UNL     1       0.004  -0.044   0.037  0.00  0.00    +0.002 A 
ENDBRANCH   1  16
BRANCH   3  19
ATOM     19  C   UNL     1       7.273  -0.918  -0.073  0.00  0.00    +0.135 C 
BRANCH  19  20
ATOM     20  C   UNL     1       7.768  -0.954  -1.496  0.00  0.00    +0.224 C 
ATOM     21  O   UNL     1       6.997  -1.194  -2.400  0.00  0.00    -0.275 OA
ATOM     22  N   UNL     1       9.068  -0.720  -1.763  0.00  0.00    -0.264 N 
ATOM     23  C   UNL     1      10.044  -0.515  -0.679  0.00  0.00    +0.168 C 
ATOM     24  C   UNL     1      10.964   0.641  -1.097  0.00  0.00    +0.276 C 
ATOM     25  O   UNL     1      11.595   0.304  -2.334  0.00  0.00    -0.476 OA
ATOM     26  C   UNL     1      10.806  -0.145  -3.345  0.00  0.00    +0.143 A 
ATOM     27  C   UNL     1       9.541  -0.670  -3.085  0.00  0.00    +0.078 A 
ATOM     28  C   UNL     1       8.751  -1.134  -4.124  0.00  0.00    +0.027 A 
ATOM     29  C   UNL     1       9.220  -1.079  -5.424  0.00  0.00    +0.002 A 
ATOM     30  C   UNL     1      10.475  -0.562  -5.686  0.00  0.00    +0.004 A 
ATOM     31  C   UNL     1      11.266  -0.088  -4.652  0.00  0.00    +0.047 A 
BRANCH  24  32
ATOM     32  C   UNL     1      12.012   0.861  -0.036  0.00  0.00    +0.253 C 
ATOM     33  O   UNL     1      13.182   0.664  -0.289  0.00  0.00    -0.272 OA
ATOM     34  N   UNL     1      11.649   1.277   1.194  0.00  0.00    -0.326 N 
ATOM     35  H   UNL     1      10.714   1.435   1.396  0.00  0.00    +0.145 HD
ATOM     36  H   UNL     1      12.324   1.419   1.876  0.00  0.00    +0.145 HD
ENDBRANCH  24  32
ENDBRANCH  19  20
ENDBRANCH   3  19
TORSDOF 5
