REMARK  Name = ZINC39631834
REMARK  13 active torsions:
REMARK  status: ('A' for Active; 'I' for Inactive)
REMARK    1  A    between atoms: C_1  and  C_2
REMARK    2  A    between atoms: C_2  and  C_4
REMARK    3  A    between atoms: C_2  and  N_11
REMARK    4  A    between atoms: C_4  and  C_5
REMARK    5  A    between atoms: C_5  and  C_6
REMARK    6  A    between atoms: C_6  and  C_7
REMARK    7  A    between atoms: C_7  and  C_8
REMARK    8  A    between atoms: C_7  and  C_9
REMARK    9  A    between atoms: C_7  and  O_10
REMARK   10  A    between atoms: C_12  and  C_14
REMARK   11  A    between atoms: C_25  and  C_27
REMARK   12  A    between atoms: C_32  and  O_33
REMARK   13  A    between atoms: O_33  and  C_34
REMARK                            x       y       z     vdW  Elec       q    Type
REMARK                         _______ _______ _______ _____ _____    ______ ____
ROOT
ATOM      1  C   UNL     1       2.713  -0.790  -1.962  0.00  0.00    +0.100 C 
ATOM      2  C   UNL     1       2.362  -0.055  -3.275  0.00  0.00    +0.121 C 
ATOM      3  N   UNL     1       3.499   0.868  -3.504  0.00  0.00    -0.296 N 
ATOM      4  C   UNL     1       4.694   0.086  -3.105  0.00  0.00    +0.115 C 
ATOM      5  C   UNL     1       4.244  -0.699  -1.856  0.00  0.00    -0.004 C 
ATOM      6  C   UNL     1       4.859  -2.095  -1.860  0.00  0.00    -0.010 C 
ATOM      7  C   UNL     1       6.377  -1.981  -1.694  0.00  0.00    -0.082 C 
ATOM      8  N   UNL     1       6.683  -1.293  -0.434  0.00  0.00    +0.379 N 
ATOM      9  C   UNL     1       6.169   0.081  -0.476  0.00  0.00    -0.082 C 
ATOM     10  C   UNL     1       4.642   0.054  -0.590  0.00  0.00    -0.010 C 
ATOM     11  C   UNL     1       3.457   2.132  -3.969  0.00  0.00    +0.252 C 
ATOM     12  O   UNL     1       4.490   2.732  -4.192  0.00  0.00    -0.270 OA
ATOM     13  H   UNL     1       6.252  -1.789   0.331  0.00  0.00    -0.086 HD
ATOM     14  H   UNL     1       7.682  -1.273  -0.298  0.00  0.00    -0.086 HD
ENDROOT
BRANCH  11  15
ATOM     15  C   UNL     1       2.156   2.787  -4.208  0.00  0.00    +0.099 A 
ATOM     16  C   UNL     1       1.060   2.047  -4.666  0.00  0.00    +0.020 A 
ATOM     17  C   UNL     1      -0.138   2.708  -4.875  0.00  0.00    +0.021 A 
ATOM     18  C   UNL     1      -0.217   4.067  -4.627  0.00  0.00    +0.114 A 
ATOM     19  N   UNL     1       0.829   4.745  -4.196  0.00  0.00    -0.220 NA
ATOM     20  C   UNL     1       1.995   4.160  -3.975  0.00  0.00    +0.233 A 
BRANCH  20  21
ATOM     21  O   UNL     1       3.041   4.894  -3.527  0.00  0.00    -0.437 OA
BRANCH  21  22
ATOM     22  C   UNL     1       2.874   6.238  -3.408  0.00  0.00    +0.130 A 
ATOM     23  C   UNL     1       3.405   7.092  -4.363  0.00  0.00    +0.046 A 
ATOM     24  C   UNL     1       3.233   8.457  -4.240  0.00  0.00    +0.004 A 
ATOM     25  C   UNL     1       2.532   8.972  -3.166  0.00  0.00    +0.000 A 
ATOM     26  C   UNL     1       2.002   8.123  -2.212  0.00  0.00    +0.004 A 
ATOM     27  C   UNL     1       2.166   6.757  -2.333  0.00  0.00    +0.046 A 
ENDBRANCH  21  22
ENDBRANCH  20  21
ENDBRANCH  11  15
BRANCH   1  29
ATOM     28  N   UNL     1       1.719  -0.818   0.303  0.00  0.00    -0.312 N 
ATOM     29  C   UNL     1       2.064  -0.104  -0.788  0.00  0.00    +0.218 C 
ATOM     30  O   UNL     1       1.851   1.089  -0.824  0.00  0.00    -0.275 OA
ATOM     31  H   UNL     1       1.889  -1.772   0.331  0.00  0.00    +0.149 HD
BRANCH  28  33
ATOM     32  C   UNL     1      -0.421  -0.058   1.210  0.00  0.00    +0.028 C 
ATOM     33  C   UNL     1       1.088  -0.152   1.445  0.00  0.00    +0.070 C 
BRANCH  33  34
ATOM     34  C   UNL     1       1.357  -0.957   2.717  0.00  0.00    +0.022 C 
BRANCH  34  35
ATOM     35  C   UNL     1       2.857  -0.946   3.021  0.00  0.00    +0.005 C 
BRANCH  35  36
ATOM     36  C   UNL     1       3.126  -1.751   4.293  0.00  0.00    +0.034 C 
BRANCH  36  37
ATOM     37  C   UNL     1       4.626  -1.739   4.596  0.00  0.00    +0.061 C 
ATOM     38  C   UNL     1       4.910  -2.646   5.796  0.00  0.00    +0.041 C 
ATOM     39  C   UNL     1       5.396  -2.250   3.377  0.00  0.00    +0.041 C 
BRANCH  37  40
ATOM     40  O   UNL     1       5.041  -0.406   4.898  0.00  0.00    -0.389 OA
ATOM     41  H   UNL     1       4.592  -0.017   5.662  0.00  0.00    +0.210 HD
ENDBRANCH  37  40
ENDBRANCH  36  37
ENDBRANCH  35  36
ENDBRANCH  34  35
ENDBRANCH  33  34
ENDBRANCH  28  33
ENDBRANCH   1  29
TORSDOF 10
