REMARK  Name = ZINC65083487
REMARK  8 active torsions:
REMARK  status: ('A' for Active; 'I' for Inactive)
REMARK    1  A    between atoms: C_1  and  C_2
REMARK    2  A    between atoms: C_5  and  S_8
REMARK    3  A    between atoms: S_8  and  N_11
REMARK    4  A    between atoms: N_22  and  C_23
REMARK    5  A    between atoms: C_25  and  O_31
REMARK    6  A    between atoms: C_28  and  O_29
REMARK    7  A    between atoms: O_29  and  C_30
REMARK    8  A    between atoms: O_31  and  C_32
REMARK                            x       y       z     vdW  Elec       q    Type
REMARK                         _______ _______ _______ _____ _____    ______ ____
ROOT
ATOM      1  N   UNL     1       1.635  -4.954  -0.029  0.00  0.00    -0.171 NA
ATOM      2  C   UNL     1       2.361  -5.168  -1.290  0.00  0.00    +0.116 C 
ATOM      3  C   UNL     1       3.505  -4.159  -1.408  0.00  0.00    +0.073 C 
ATOM      4  C   UNL     1       4.285  -4.133  -0.101  0.00  0.00    +0.056 A 
ATOM      5  C   UNL     1       3.734  -4.598   1.049  0.00  0.00    +0.030 A 
ATOM      6  S   UNL     1       5.025  -4.339   2.232  0.00  0.00    -0.055 S 
ATOM      7  C   UNL     1       6.155  -3.667   1.179  0.00  0.00    +0.166 A 
ATOM      8  N   UNL     1       5.526  -3.669   0.024  0.00  0.00    -0.229 NA
ATOM      9  N   UNL     1       7.440  -3.218   1.461  0.00  0.00    -0.248 N 
ATOM     10  C   UNL     1       8.207  -2.706   0.478  0.00  0.00    +0.310 C 
ATOM     11  O   UNL     1       7.774  -2.635  -0.656  0.00  0.00    -0.252 OA
ATOM     12  N   UNL     1       9.453  -2.271   0.753  0.00  0.00    -0.266 N 
ATOM     13  C   UNL     1       2.374  -5.176   1.231  0.00  0.00    +0.153 C 
ATOM     14  H   UNL     1       7.785  -3.275   2.366  0.00  0.00    +0.158 HD
ATOM     15  H   UNL     1       9.774  -2.267   1.668  0.00  0.00    +0.156 HD
ENDROOT
BRANCH  12  16
ATOM     16  C   UNL     1      10.283  -1.825  -0.284  0.00  0.00    +0.080 A 
ATOM     17  C   UNL     1       9.740  -1.156  -1.371  0.00  0.00    +0.072 A 
ATOM     18  C   UNL     1      10.564  -0.716  -2.395  0.00  0.00    +0.122 A 
ATOM     19  C   UNL     1      11.931  -0.944  -2.334  0.00  0.00    +0.049 A 
ATOM     20  C   UNL     1      12.475  -1.611  -1.252  0.00  0.00    +0.051 A 
ATOM     21  C   UNL     1      11.657  -2.047  -0.223  0.00  0.00    +0.141 A 
BRANCH  21  22
ATOM     22  O   UNL     1      12.194  -2.698   0.845  0.00  0.00    -0.493 OA
ATOM     23  C   UNL     1      13.610  -2.892   0.841  0.00  0.00    +0.277 C 
ENDBRANCH  21  22
BRANCH  18  24
ATOM     24  O   UNL     1      10.032  -0.060  -3.461  0.00  0.00    -0.495 OA
ATOM     25  C   UNL     1      10.939   0.365  -4.480  0.00  0.00    +0.277 C 
ENDBRANCH  18  24
ENDBRANCH  12  16
BRANCH   1  26
ATOM     26  S   UNL     1       0.050  -4.475  -0.022  0.00  0.00    +0.061 S 
ATOM     27  O   UNL     1      -0.493  -4.885   1.225  0.00  0.00    -0.153 OA
ATOM     28  O   UNL     1      -0.504  -4.884  -1.265  0.00  0.00    -0.153 OA
BRANCH  26  33
ATOM     29  C   UNL     1       0.007   1.559  -0.020  0.00  0.00    +0.044 C 
ATOM     30  C   UNL     1       0.018   0.052  -0.020  0.00  0.00    -0.050 A 
ATOM     31  C   UNL     1       0.018  -0.639  -1.218  0.00  0.00    +0.005 A 
ATOM     32  C   UNL     1       0.028  -2.021  -1.218  0.00  0.00    +0.029 A 
ATOM     33  C   UNL     1       0.038  -2.713  -0.021  0.00  0.00    +0.106 A 
ATOM     34  C   UNL     1       0.038  -2.022   1.176  0.00  0.00    +0.029 A 
ATOM     35  C   UNL     1       0.033  -0.640   1.176  0.00  0.00    +0.005 A 
ENDBRANCH  26  33
ENDBRANCH   1  26
TORSDOF 5
