REMARK  Name = ZINC36369743
REMARK  14 active torsions:
REMARK  status: ('A' for Active; 'I' for Inactive)
REMARK    1  A    between atoms: C_1  and  C_2
REMARK    2  A    between atoms: C_2  and  C_4
REMARK    3  A    between atoms: C_10  and  C_42
REMARK    4  A    between atoms: N_22  and  O_23
REMARK    5  A    between atoms: O_23  and  C_24
REMARK    6  A    between atoms: C_24  and  C_25
REMARK    7  A    between atoms: N_27  and  C_28
REMARK    8  A    between atoms: C_28  and  C_29
REMARK    9  A    between atoms: C_29  and  C_30
REMARK   10  A    between atoms: C_29  and  C_31
REMARK   11  A    between atoms: C_29  and  C_32
REMARK   12  A    between atoms: C_32  and  C_34
REMARK   13  A    between atoms: C_32  and  O_37
REMARK   14  A    between atoms: C_40  and  C_41
REMARK                            x       y       z     vdW  Elec       q    Type
REMARK                         _______ _______ _______ _____ _____    ______ ____
ROOT
ATOM      1  C   UNL     1      -0.069  -0.784  -1.327  0.00  0.00    +0.061 C 
ATOM      2  C   UNL     1      -1.521  -1.124  -1.720  0.00  0.00    +0.012 C 
ATOM      3  C   UNL     1      -1.612  -2.665  -1.770  0.00  0.00    +0.005 C 
ATOM      4  C   UNL     1      -0.464  -3.136  -0.828  0.00  0.00    -0.001 C 
ATOM      5  C   UNL     1       0.651  -2.130  -1.171  0.00  0.00    -0.019 C 
ATOM      6  C   UNL     1       1.747  -2.087  -0.131  0.00  0.00    +0.008 C 
ATOM      7  C   UNL     1       1.172  -1.836   1.262  0.00  0.00    +0.005 C 
ATOM      8  C   UNL     1       0.194  -2.969   1.601  0.00  0.00    +0.002 C 
ATOM      9  C   UNL     1      -0.974  -2.947   0.604  0.00  0.00    -0.003 C 
ATOM     10  C   UNL     1      -1.985  -4.053   0.912  0.00  0.00    +0.008 C 
ATOM     11  C   UNL     1      -2.592  -3.845   2.304  0.00  0.00    +0.031 C 
ATOM     12  C   UNL     1      -1.443  -3.767   3.295  0.00  0.00    -0.062 C 
ATOM     13  C   UNL     1      -1.441  -4.581   4.340  0.00  0.00    +0.026 C 
ATOM     14  C   UNL     1      -0.304  -4.534   5.281  0.00  0.00    +0.080 C 
ATOM     15  N   UNL     1      -0.419  -4.905   6.517  0.00  0.00    -0.089 NA
ATOM     16  C   UNL     1       1.008  -4.023   4.714  0.00  0.00    +0.059 C 
ATOM     17  C   UNL     1       0.730  -2.678   4.045  0.00  0.00    +0.017 C 
ATOM     18  C   UNL     1      -0.349  -2.736   3.012  0.00  0.00    -0.007 C 
ATOM     19  C   UNL     1      -1.020  -1.361   2.994  0.00  0.00    +0.016 C 
ATOM     20  C   UNL     1       1.276  -2.518  -2.512  0.00  0.00    +0.012 C 
ENDROOT
BRANCH   1  22
ATOM     21  C   UNL     1       1.133   0.847   0.318  0.00  0.00    +0.086 C 
ATOM     22  C   UNL     1      -0.045  -0.028  -0.024  0.00  0.00    +0.134 C 
ATOM     23  O   UNL     1      -0.971  -0.122   0.746  0.00  0.00    -0.297 OA
ENDBRANCH   1  22
BRANCH  15  24
ATOM     24  O   UNL     1      -1.664  -5.374   7.002  0.00  0.00    -0.384 OA
BRANCH  24  25
ATOM     25  C   UNL     1      -1.647  -5.749   8.380  0.00  0.00    +0.358 C 
BRANCH  25  26
ATOM     26  C   UNL     1      -3.016  -6.230   8.787  0.00  0.00    +0.253 C 
ATOM     27  O   UNL     1      -3.918  -6.250   7.976  0.00  0.00    -0.272 OA
ATOM     28  N   UNL     1      -3.238  -6.639  10.052  0.00  0.00    -0.312 N 
ATOM     29  H   UNL     1      -2.517  -6.623  10.701  0.00  0.00    +0.149 HD
BRANCH  28  30
ATOM     30  C   UNL     1      -4.569  -7.106  10.448  0.00  0.00    +0.113 C 
BRANCH  30  31
ATOM     31  C   UNL     1      -4.551  -7.508  11.924  0.00  0.00    +0.017 C 
ATOM     32  C   UNL     1      -3.532  -8.630  12.134  0.00  0.00    +0.015 C 
ATOM     33  C   UNL     1      -4.161  -6.299  12.777  0.00  0.00    +0.015 C 
BRANCH  31  34
ATOM     34  C   UNL     1      -5.941  -7.997  12.337  0.00  0.00    +0.234 C 
BRANCH  34  35
ATOM     35  C   UNL     1      -5.922  -8.392  13.791  0.00  0.00    +0.384 C 
ATOM     36  O   UNL     1      -6.588  -7.769  14.601  0.00  0.00    -0.243 OA
ATOM     37  O   UNL     1      -5.242  -9.335  14.158  0.00  0.00    -0.243 OA
ENDBRANCH  34  35
BRANCH  34  38
ATOM     38  O   UNL     1      -6.892  -6.948  12.141  0.00  0.00    -0.380 OA
ATOM     39  H   UNL     1      -6.707  -6.148  12.652  0.00  0.00    +0.211 HD
ENDBRANCH  34  38
ENDBRANCH  31  34
ENDBRANCH  30  31
ENDBRANCH  28  30
ENDBRANCH  25  26
ENDBRANCH  24  25
ENDBRANCH  15  24
TORSDOF 9
