REMARK  Name = ZINC22381421
REMARK  11 active torsions:
REMARK  status: ('A' for Active; 'I' for Inactive)
REMARK    1  A    between atoms: C_1  and  C_2
REMARK    2  A    between atoms: C_2  and  N_3
REMARK    3  A    between atoms: C_7  and  C_9
REMARK    4  A    between atoms: C_9  and  C_11
REMARK    5  A    between atoms: C_9  and  S_12
REMARK    6  A    between atoms: S_12  and  C_13
REMARK    7  A    between atoms: C_16  and  C_24
REMARK    8  A    between atoms: N_17  and  C_18
REMARK    9  A    between atoms: C_24  and  N_25
REMARK   10  A    between atoms: N_25  and  C_26
REMARK   11  A    between atoms: C_30  and  C_32
REMARK                            x       y       z     vdW  Elec       q    Type
REMARK                         _______ _______ _______ _____ _____    ______ ____
ROOT
ATOM      1  C   UNL     1       0.480   9.518  -0.574  0.00  0.00    +0.193 A 
ATOM      2  N   UNL     1       0.509   9.430   0.736  0.00  0.00    -0.122 NA
ATOM      3  N   UNL     1       0.753   8.219   1.087  0.00  0.00    -0.132 NA
ATOM      4  C   UNL     1       0.894   7.466   0.032  0.00  0.00    +0.151 A 
ATOM      5  N   UNL     1       0.730   8.268  -1.064  0.00  0.00    -0.302 N 
ENDROOT
BRANCH   5   6
ATOM      6  C   UNL     1       0.804   7.868  -2.471  0.00  0.00    +0.091 C 
ATOM      7  C   UNL     1       1.919   8.652  -3.166  0.00  0.00    +0.025 C 
ATOM      8  C   UNL     1       1.996   8.234  -4.636  0.00  0.00    +0.002 C 
ATOM      9  C   UNL     1       0.661   8.530  -5.321  0.00  0.00    +0.000 C 
ATOM     10  C   UNL     1      -0.454   7.746  -4.626  0.00  0.00    +0.002 C 
ATOM     11  C   UNL     1      -0.531   8.163  -3.156  0.00  0.00    +0.025 C 
ENDBRANCH   5   6
BRANCH   1  12
ATOM     12  S   UNL     1       0.181  10.973  -1.521  0.00  0.00    -0.074 S 
BRANCH  12  13
ATOM     13  C   UNL     1      -0.048  12.175  -0.186  0.00  0.00    +0.137 C 
ATOM     14  C   UNL     1      -1.303  11.817   0.612  0.00  0.00    +0.029 C 
BRANCH  13  19
ATOM     15  N   UNL     1       0.292  16.956   0.173  0.00  0.00    -0.299 N 
ATOM     16  C   UNL     1      -0.024  15.872  -0.562  0.00  0.00    +0.306 C 
ATOM     17  O   UNL     1      -0.433  16.007  -1.699  0.00  0.00    -0.252 OA
ATOM     18  N   UNL     1       0.114  14.638  -0.038  0.00  0.00    -0.239 N 
ATOM     19  C   UNL     1      -0.202  13.554  -0.773  0.00  0.00    +0.233 C 
ATOM     20  O   UNL     1      -0.610  13.688  -1.907  0.00  0.00    -0.274 OA
ATOM     21  H   UNL     1       0.662  16.834   1.202  0.00  0.00    +0.150 HD
ATOM     22  H   UNL     1       0.485  14.517   0.991  0.00  0.00    +0.159 HD
BRANCH  15  24
ATOM     23  C   UNL     1       0.566  19.342   0.637  0.00  0.00    +0.024 C 
ATOM     24  C   UNL     1       0.142  18.297  -0.397  0.00  0.00    +0.102 C 
ENDBRANCH  15  24
ENDBRANCH  13  19
ENDBRANCH  12  13
ENDBRANCH   1  12
BRANCH   4  25
ATOM     25  C   UNL     1       1.190   5.989   0.022  0.00  0.00    +0.178 C 
BRANCH  25  26
ATOM     26  N   UNL     1      -0.069   5.239   0.030  0.00  0.00    -0.337 N 
ATOM     27  H   UNL     1      -1.029   5.776   0.043  0.00  0.00    +0.147 HD
BRANCH  26  28
ATOM     28  C   UNL     1      -0.050   3.842   0.023  0.00  0.00    +0.028 A 
ATOM     29  C   UNL     1       1.161   3.163   0.008  0.00  0.00    +0.023 A 
ATOM     30  C   UNL     1       1.177   1.782   0.000  0.00  0.00    +0.002 A 
ATOM     31  C   UNL     1      -0.013   1.076   0.008  0.00  0.00    +0.012 A 
ATOM     32  C   UNL     1      -1.220   1.749   0.017  0.00  0.00    +0.057 A 
ATOM     33  C   UNL     1      -1.242   3.130   0.031  0.00  0.00    +0.035 A 
BRANCH  32  34
ATOM     34  C   UNL     1      -2.513   0.976   0.019  0.00  0.00    +0.417 C 
ATOM     35  F   UNL     1      -2.236  -0.396   0.010  0.00  0.00    -0.166 F 
ATOM     36  F   UNL     1      -3.247   1.295   1.166  0.00  0.00    -0.166 F 
ATOM     37  F   UNL     1      -3.257   1.309  -1.118  0.00  0.00    -0.166 F 
ENDBRANCH  32  34
ENDBRANCH  26  28
ENDBRANCH  25  26
ENDBRANCH   4  25
TORSDOF 9
