REMARK  Name = ZINC00921953
REMARK  11 active torsions:
REMARK  status: ('A' for Active; 'I' for Inactive)
REMARK    1  A    between atoms: C_1  and  O_2
REMARK    2  A    between atoms: O_2  and  C_3
REMARK    3  A    between atoms: C_6  and  C_11
REMARK    4  A    between atoms: C_8  and  O_9
REMARK    5  A    between atoms: O_9  and  C_10
REMARK    6  A    between atoms: C_11  and  C_13
REMARK    7  A    between atoms: C_11  and  N_22
REMARK    8  A    between atoms: N_15  and  C_16
REMARK    9  A    between atoms: N_22  and  C_23
REMARK   10  A    between atoms: C_33  and  C_35
REMARK   11  A    between atoms: C_35  and  C_36
REMARK                            x       y       z     vdW  Elec       q    Type
REMARK                         _______ _______ _______ _____ _____    ______ ____
ROOT
ATOM      1  C   UNL     1      -5.188  -2.735   0.211  0.00  0.00    +0.197 C 
ENDROOT
BRANCH   1   5
ATOM      2  C   UNL     1      -2.283   0.028   1.701  0.00  0.00    +0.162 A 
ATOM      3  C   UNL     1      -2.563  -0.023   0.345  0.00  0.00    +0.050 A 
ATOM      4  C   UNL     1      -3.503  -0.917  -0.134  0.00  0.00    +0.010 A 
ATOM      5  C   UNL     1      -4.165  -1.762   0.738  0.00  0.00    -0.014 A 
ATOM      6  C   UNL     1      -3.890  -1.716   2.092  0.00  0.00    +0.055 A 
ATOM      7  C   UNL     1      -2.945  -0.826   2.578  0.00  0.00    +0.162 A 
BRANCH   2   9
ATOM      8  C   UNL     1      -0.719   1.752   1.216  0.00  0.00    +0.277 C 
ATOM      9  O   UNL     1      -1.359   0.907   2.173  0.00  0.00    -0.491 OA
ENDBRANCH   2   9
BRANCH   7  10
ATOM     10  O   UNL     1      -2.670  -0.783   3.909  0.00  0.00    -0.491 OA
ATOM     11  C   UNL     1      -3.388  -1.689   4.749  0.00  0.00    +0.277 C 
ENDBRANCH   7  10
ENDBRANCH   1   5
BRANCH   1  12
ATOM     12  C   UNL     1      -6.363  -2.787   1.153  0.00  0.00    +0.239 C 
ATOM     13  O   UNL     1      -7.398  -2.224   0.864  0.00  0.00    -0.273 OA
ATOM     14  N   UNL     1      -6.265  -3.459   2.317  0.00  0.00    -0.311 N 
ATOM     15  H   UNL     1      -5.437  -3.909   2.549  0.00  0.00    +0.149 HD
BRANCH  14  16
ATOM     16  C   UNL     1      -7.407  -3.509   3.233  0.00  0.00    +0.073 C 
ATOM     17  C   UNL     1      -7.404  -2.264   4.121  0.00  0.00    +0.022 C 
ATOM     18  C   UNL     1      -8.597  -2.317   5.078  0.00  0.00    +0.002 C 
ATOM     19  C   UNL     1      -8.494  -3.567   5.953  0.00  0.00    +0.000 C 
ATOM     20  C   UNL     1      -8.497  -4.813   5.065  0.00  0.00    +0.002 C 
ATOM     21  C   UNL     1      -7.304  -4.760   4.108  0.00  0.00    +0.022 C 
ENDBRANCH  14  16
ENDBRANCH   1  12
BRANCH   1  22
ATOM     22  N   UNL     1      -5.641  -2.297  -1.111  0.00  0.00    -0.255 N 
ATOM     23  C   UNL     1      -6.128  -1.052  -1.280  0.00  0.00    +0.226 C 
ATOM     24  O   UNL     1      -6.062  -0.248  -0.374  0.00  0.00    -0.275 OA
BRANCH  22  25
ATOM     25  C   UNL     1      -5.570  -3.174  -2.202  0.00  0.00    +0.041 A 
ATOM     26  C   UNL     1      -4.464  -3.999  -2.358  0.00  0.00    +0.027 A 
ATOM     27  C   UNL     1      -4.393  -4.864  -3.433  0.00  0.00    +0.051 A 
ATOM     28  C   UNL     1      -5.424  -4.910  -4.359  0.00  0.00    +0.162 A 
ATOM     29  C   UNL     1      -6.534  -4.088  -4.204  0.00  0.00    +0.164 A 
ATOM     30  C   UNL     1      -6.607  -3.223  -3.123  0.00  0.00    +0.073 A 
ATOM     31  O   UNL     1      -7.559  -4.125  -5.098  0.00  0.00    -0.485 OA
ATOM     32  C   UNL     1      -7.287  -4.735  -6.365  0.00  0.00    +0.270 C 
ATOM     33  C   UNL     1      -6.550  -6.057  -6.114  0.00  0.00    +0.270 C 
ATOM     34  O   UNL     1      -5.334  -5.766  -5.415  0.00  0.00    -0.485 OA
ENDBRANCH  22  25
BRANCH  23  35
ATOM     35  C   UNL     1      -6.752  -0.657  -2.593  0.00  0.00    +0.138 C 
BRANCH  35  36
ATOM     36  C   UNL     1      -6.431   0.785  -2.889  0.00  0.00    -0.001 A 
ATOM     37  C   UNL     1      -5.378   1.303  -3.567  0.00  0.00    +0.011 A 
ATOM     38  C   UNL     1      -5.288   2.674  -3.719  0.00  0.00    +0.008 A 
ATOM     39  C   UNL     1      -6.255   3.460  -3.185  0.00  0.00    +0.045 A 
ATOM     40  S   UNL     1      -7.343   2.254  -2.445  0.00  0.00    -0.101 S 
ENDBRANCH  35  36
ENDBRANCH  23  35
ENDBRANCH   1  22
TORSDOF 9
