REMARK  Name = ZINC06023668
REMARK  9 active torsions:
REMARK  status: ('A' for Active; 'I' for Inactive)
REMARK    1  A    between atoms: C_1  and  C_2
REMARK    2  A    between atoms: C_5  and  C_8
REMARK    3  A    between atoms: C_8  and  C_9
REMARK    4  A    between atoms: C_10  and  C_27
REMARK    5  A    between atoms: N_12  and  C_17
REMARK    6  A    between atoms: C_20  and  S_23
REMARK    7  A    between atoms: S_23  and  N_26
REMARK    8  A    between atoms: C_30  and  O_33
REMARK    9  A    between atoms: O_33  and  C_34
REMARK                            x       y       z     vdW  Elec       q    Type
REMARK                         _______ _______ _______ _____ _____    ______ ____
ROOT
ATOM      1  C   UNL     1       2.464   4.456   0.013  0.00  0.00    +0.077 C 
ATOM      2  C   UNL     1       3.758   3.681   0.106  0.00  0.00    +0.150 C 
ATOM      3  N   UNL     1       4.820   4.663   0.341  0.00  0.00    -0.253 N 
ATOM      4  C   UNL     1       4.277   5.891   0.391  0.00  0.00    +0.292 C 
ATOM      5  O   UNL     1       4.897   6.919   0.573  0.00  0.00    -0.266 OA
ATOM      6  C   UNL     1       2.806   5.808   0.185  0.00  0.00    +0.250 C 
ATOM      7  O   UNL     1       2.033   6.748   0.171  0.00  0.00    -0.282 OA
ENDROOT
BRANCH   3   8
ATOM      8  C   UNL     1       6.178   4.370   0.490  0.00  0.00    +0.038 A 
ATOM      9  C   UNL     1       6.617   3.054   0.425  0.00  0.00    +0.025 A 
ATOM     10  C   UNL     1       7.961   2.768   0.566  0.00  0.00    +0.030 A 
ATOM     11  C   UNL     1       8.868   3.789   0.785  0.00  0.00    +0.105 A 
ATOM     12  C   UNL     1       8.433   5.100   0.857  0.00  0.00    +0.030 A 
ATOM     13  C   UNL     1       7.092   5.393   0.710  0.00  0.00    +0.025 A 
BRANCH  11  14
ATOM     14  S   UNL     1      10.580   3.419   0.973  0.00  0.00    +0.056 S 
ATOM     15  O   UNL     1      10.801   2.176   0.321  0.00  0.00    -0.153 OA
ATOM     16  O   UNL     1      11.291   4.599   0.624  0.00  0.00    -0.153 OA
BRANCH  14  17
ATOM     17  N   UNL     1      10.852   3.163   2.586  0.00  0.00    -0.204 NA
ATOM     18  H   UNL     1      11.914   2.928   2.746  0.00  0.00    +0.144 HD
ATOM     19  H   UNL     1      10.234   2.321   2.933  0.00  0.00    +0.144 HD
ENDBRANCH  14  17
ENDBRANCH  11  14
ENDBRANCH   3   8
BRANCH   2  20
ATOM     20  C   UNL     1       4.012   2.945  -1.184  0.00  0.00    -0.022 A 
ATOM     21  C   UNL     1       4.414   3.642  -2.309  0.00  0.00    +0.009 A 
ATOM     22  C   UNL     1       4.653   2.969  -3.491  0.00  0.00    +0.046 A 
ATOM     23  C   UNL     1       4.479   1.594  -3.553  0.00  0.00    +0.120 A 
ATOM     24  C   UNL     1       4.071   0.898  -2.425  0.00  0.00    +0.046 A 
ATOM     25  C   UNL     1       3.838   1.575  -1.243  0.00  0.00    +0.009 A 
BRANCH  23  26
ATOM     26  O   UNL     1       4.709   0.930  -4.716  0.00  0.00    -0.495 OA
ATOM     27  C   UNL     1       5.127   1.712  -5.837  0.00  0.00    +0.277 C 
ENDBRANCH  23  26
ENDBRANCH   2  20
BRANCH   1  28
ATOM     28  C   UNL     1       1.203   3.942  -0.203  0.00  0.00    +0.195 C 
ATOM     29  O   UNL     1       0.152   4.774  -0.360  0.00  0.00    -0.287 OA
BRANCH  28  34
ATOM     30  C   UNL     1       0.420  -1.751  -0.430  0.00  0.00    +0.044 C 
ATOM     31  C   UNL     1       0.625  -0.259  -0.371  0.00  0.00    -0.050 A 
ATOM     32  C   UNL     1       1.379   0.292   0.651  0.00  0.00    +0.004 A 
ATOM     33  C   UNL     1       1.572   1.656   0.712  0.00  0.00    +0.012 A 
ATOM     34  C   UNL     1       1.003   2.483  -0.261  0.00  0.00    +0.022 A 
ATOM     35  C   UNL     1       0.242   1.919  -1.291  0.00  0.00    +0.012 A 
ATOM     36  C   UNL     1       0.058   0.553  -1.338  0.00  0.00    +0.004 A 
ENDBRANCH  28  34
ENDBRANCH   1  28
TORSDOF 7
