REMARK  Name = ZINC40822878
REMARK  8 active torsions:
REMARK  status: ('A' for Active; 'I' for Inactive)
REMARK    1  A    between atoms: C_1  and  C_2
REMARK    2  A    between atoms: C_2  and  C_3
REMARK    3  A    between atoms: C_3  and  C_5
REMARK    4  A    between atoms: C_3  and  N_6
REMARK    5  A    between atoms: C_7  and  C_9
REMARK    6  A    between atoms: C_10  and  C_29
REMARK    7  A    between atoms: N_18  and  N_19
REMARK    8  A    between atoms: C_20  and  C_22
REMARK                            x       y       z     vdW  Elec       q    Type
REMARK                         _______ _______ _______ _____ _____    ______ ____
ROOT
ATOM      1  C   UNL     1      -0.121   0.360   4.828  0.00  0.00    +0.193 A 
ATOM      2  C   UNL     1       0.406   0.528   6.078  0.00  0.00    +0.009 A 
ATOM      3  C   UNL     1      -0.664   0.876   6.911  0.00  0.00    +0.042 A 
ATOM      4  C   UNL     1      -1.799   0.904   6.135  0.00  0.00    +0.115 A 
ATOM      5  O   UNL     1      -1.451   0.600   4.887  0.00  0.00    -0.454 OA
ATOM      6  C   UNL     1      -3.162   1.238   6.686  0.00  0.00    +0.075 C 
ATOM      7  C   UNL     1      -3.165   1.018   8.201  0.00  0.00    +0.014 C 
ATOM      8  C   UNL     1      -2.009   1.778   8.860  0.00  0.00    +0.058 C 
ATOM      9  C   UNL     1      -0.701   1.182   8.358  0.00  0.00    +0.070 C 
ATOM     10  N   UNL     1       0.308   0.957   9.143  0.00  0.00    -0.184 NA
ATOM     11  C   UNL     1       1.850   0.369   6.479  0.00  0.00    +0.048 C 
ENDROOT
BRANCH   1  13
ATOM     12  N   UNL     1      -0.008  -0.140   2.444  0.00  0.00    -0.306 N 
ATOM     13  C   UNL     1       0.630  -0.011   3.624  0.00  0.00    +0.280 C 
ATOM     14  O   UNL     1       1.830  -0.203   3.690  0.00  0.00    -0.267 OA
ATOM     15  H   UNL     1      -0.965   0.013   2.391  0.00  0.00    +0.149 HD
BRANCH  12  16
ATOM     16  C   UNL     1       0.742  -0.511   1.242  0.00  0.00    +0.070 C 
ATOM     17  C   UNL     1       0.872  -2.034   1.171  0.00  0.00    +0.028 C 
BRANCH  16  19
ATOM     18  C   UNL     1      -0.019   1.526   0.010  0.00  0.00    +0.005 C 
ATOM     19  C   UNL     1       0.002  -0.004   0.002  0.00  0.00    +0.018 C 
ENDBRANCH  16  19
ENDBRANCH  12  16
ENDBRANCH   1  13
BRANCH  10  20
ATOM     20  N   UNL     1       0.217   1.266  10.506  0.00  0.00    -0.203 N 
ATOM     21  C   UNL     1       1.265   1.033  11.321  0.00  0.00    +0.265 C 
ATOM     22  O   UNL     1       2.289   0.555  10.873  0.00  0.00    -0.268 OA
ATOM     23  H   UNL     1      -0.600   1.648  10.864  0.00  0.00    +0.178 HD
BRANCH  21  24
ATOM     24  C   UNL     1       1.169   1.359  12.760  0.00  0.00    +0.057 A 
ATOM     25  C   UNL     1       2.253   1.127  13.616  0.00  0.00    +0.031 A 
ATOM     26  C   UNL     1       2.112   1.450  14.955  0.00  0.00    +0.037 A 
ATOM     27  C   UNL     1       0.915   1.986  15.399  0.00  0.00    +0.126 A 
ATOM     28  N   UNL     1      -0.088   2.194  14.569  0.00  0.00    -0.261 NA
ATOM     29  C   UNL     1      -0.001   1.909  13.286  0.00  0.00    +0.123 A 
ATOM     30 BR   UNL     1       3.537   1.161  16.163  0.00  0.00    -0.049 Br
ENDBRANCH  21  24
ENDBRANCH  10  20
TORSDOF 5
