REMARK  Name = ZINC20765725
REMARK  15 active torsions:
REMARK  status: ('A' for Active; 'I' for Inactive)
REMARK    1  A    between atoms: C_1  and  C_2
REMARK    2  A    between atoms: C_4  and  C_35
REMARK    3  A    between atoms: C_5  and  S_9
REMARK    4  A    between atoms: C_6  and  C_8
REMARK    5  A    between atoms: S_9  and  N_12
REMARK    6  A    between atoms: N_12  and  C_13
REMARK    7  A    between atoms: C_13  and  C_14
REMARK    8  A    between atoms: C_17  and  C_20
REMARK    9  A    between atoms: N_22  and  C_23
REMARK   10  A    between atoms: C_23  and  C_24
REMARK   11  A    between atoms: C_24  and  C_25
REMARK   12  A    between atoms: C_28  and  O_33
REMARK   13  A    between atoms: C_29  and  O_31
REMARK   14  A    between atoms: O_31  and  C_32
REMARK   15  A    between atoms: O_33  and  C_34
REMARK                            x       y       z     vdW  Elec       q    Type
REMARK                         _______ _______ _______ _____ _____    ______ ____
ROOT
ATOM      1  C   UNL     1      -8.742   3.731  -3.515  0.00  0.00    +0.005 C 
ATOM      2  C   UNL     1      -7.707   4.762  -3.971  0.00  0.00    +0.005 C 
ATOM      3  C   UNL     1      -7.823   6.018  -3.105  0.00  0.00    +0.013 C 
ATOM      4  C   UNL     1      -7.569   5.653  -1.641  0.00  0.00    +0.075 C 
ATOM      5  C   UNL     1      -8.604   4.623  -1.185  0.00  0.00    +0.013 C 
ATOM      6  C   UNL     1      -8.488   3.367  -2.051  0.00  0.00    +0.005 C 
ENDROOT
BRANCH   4   7
ATOM      7  C   UNL     1      -6.185   5.072  -1.501  0.00  0.00    +0.216 C 
ATOM      8  O   UNL     1      -5.473   4.960  -2.476  0.00  0.00    -0.276 OA
ATOM      9  N   UNL     1      -5.740   4.676  -0.292  0.00  0.00    -0.315 N 
ATOM     10  H   UNL     1      -6.386   4.777   0.593  0.00  0.00    +0.149 HD
BRANCH   9  11
ATOM     11  C   UNL     1      -4.395   4.111  -0.156  0.00  0.00    +0.109 C 
BRANCH  11  12
ATOM     12  C   UNL     1      -4.141   3.746   1.308  0.00  0.00    +0.054 C 
BRANCH  12  13
ATOM     13  C   UNL     1      -2.758   3.165   1.449  0.00  0.00    -0.042 A 
ATOM     14  C   UNL     1      -2.565   1.803   1.310  0.00  0.00    +0.007 A 
ATOM     15  C   UNL     1      -1.299   1.264   1.443  0.00  0.00    +0.049 A 
ATOM     16  C   UNL     1      -0.218   2.091   1.704  0.00  0.00    +0.161 A 
ATOM     17  C   UNL     1      -0.412   3.463   1.838  0.00  0.00    +0.162 A 
ATOM     18  C   UNL     1      -1.684   3.996   1.710  0.00  0.00    +0.053 A 
BRANCH  17  19
ATOM     19  O   UNL     1       0.646   4.278   2.095  0.00  0.00    -0.491 OA
ATOM     20  C   UNL     1       0.372   5.675   2.220  0.00  0.00    +0.277 C 
ENDBRANCH  17  19
BRANCH  16  21
ATOM     21  O   UNL     1       1.029   1.564   1.829  0.00  0.00    -0.491 OA
ATOM     22  C   UNL     1       1.153   0.148   1.679  0.00  0.00    +0.277 C 
ENDBRANCH  16  21
ENDBRANCH  12  13
ENDBRANCH  11  12
ENDBRANCH   9  11
ENDBRANCH   4   7
BRANCH   1  23
ATOM     23  C   UNL     1      -8.627   2.475  -4.381  0.00  0.00    +0.109 C 
BRANCH  23  24
ATOM     24  N   UNL     1      -9.693   1.537  -4.025  0.00  0.00    -0.190 NA
ATOM     25  H   UNL     1     -10.145   1.572  -3.023  0.00  0.00    +0.148 HD
BRANCH  24  26
ATOM     26  S   UNL     1     -10.050   0.269  -5.029  0.00  0.00    +0.059 S 
ATOM     27  O   UNL     1     -11.095  -0.463  -4.403  0.00  0.00    -0.153 OA
ATOM     28  O   UNL     1     -10.176   0.809  -6.337  0.00  0.00    -0.153 OA
BRANCH  26  33
ATOM     29  C   UNL     1      -5.223  -3.350  -5.115  0.00  0.00    +0.044 C 
ATOM     30  C   UNL     1      -6.429  -2.447  -5.094  0.00  0.00    -0.050 A 
ATOM     31  C   UNL     1      -7.309  -2.494  -4.029  0.00  0.00    +0.008 A 
ATOM     32  C   UNL     1      -8.415  -1.665  -4.009  0.00  0.00    -0.024 A 
ATOM     33  C   UNL     1      -8.640  -0.788  -5.054  0.00  0.00    +0.111 A 
ATOM     34  C   UNL     1      -7.763  -0.745  -6.121  0.00  0.00    -0.024 A 
ATOM     35  C   UNL     1      -6.655  -1.570  -6.139  0.00  0.00    +0.008 A 
ATOM     36  C   UNL     1      -8.013   0.206  -7.263  0.00  0.00    +0.046 C 
ATOM     37  C   UNL     1      -9.375  -1.716  -2.848  0.00  0.00    +0.046 C 
ENDBRANCH  26  33
ENDBRANCH  24  26
ENDBRANCH  23  24
ENDBRANCH   1  23
TORSDOF 10
