REMARK  Name = ZINC20744942
REMARK  2 active torsions:
REMARK  status: ('A' for Active; 'I' for Inactive)
REMARK    1  A    between atoms: C_3  and  C_9
REMARK    2  A    between atoms: C_18  and  O_21
REMARK                            x       y       z     vdW  Elec       q    Type
REMARK                         _______ _______ _______ _____ _____    ______ ____
ROOT
ATOM      1  C   UNL     1       3.671   2.186  -0.023  0.00  0.00    +0.113 C 
ATOM      2  C   UNL     1       4.081   2.460   1.393  0.00  0.00    +0.033 A 
ATOM      3  C   UNL     1       3.181   2.532   2.413  0.00  0.00    +0.112 A 
ATOM      4  N   UNL     1       3.851   2.798   3.548  0.00  0.00    -0.282 N 
ATOM      5  H   UNL     1       3.459   2.905   4.429  0.00  0.00    +0.188 HD
ATOM      6  N   UNL     1       5.207   2.895   3.235  0.00  0.00    -0.154 NA
ATOM      7  C   UNL     1       5.357   2.685   1.927  0.00  0.00    +0.182 A 
ATOM      8  N   UNL     1       6.580   2.702   1.350  0.00  0.00    -0.195 NA
ATOM      9  C   UNL     1       7.035   2.548   0.195  0.00  0.00    +0.199 C 
ATOM     10  C   UNL     1       6.332   2.323  -1.084  0.00  0.00    +0.165 C 
ATOM     11  S   UNL     1       4.902   1.244  -0.930  0.00  0.00    -0.138 S 
ENDROOT
BRANCH   1  14
ATOM     12  C   UNL     1       1.211  -0.677  -0.043  0.00  0.00    +0.039 A 
ATOM     13  C   UNL     1       2.397   0.033  -0.052  0.00  0.00    +0.009 A 
ATOM     14  C   UNL     1       2.377   1.414  -0.013  0.00  0.00    -0.011 A 
ATOM     15  C   UNL     1       1.170   2.088   0.034  0.00  0.00    +0.048 A 
ATOM     16  C   UNL     1      -0.018   1.379   0.043  0.00  0.00    +0.058 A 
ATOM     17  C   UNL     1       0.002  -0.004   0.005  0.00  0.00    +0.125 A 
ATOM     18  F   UNL     1      -1.157  -0.698   0.013  0.00  0.00    -0.205 F 
ATOM     19 CL   UNL     1       1.146   3.823   0.084  0.00  0.00    -0.083 Cl
ENDBRANCH   1  14
BRANCH   9  20
ATOM     20  O   UNL     1       8.380   2.596   0.104  0.00  0.00    -0.495 OA
ATOM     21  H   UNL     1       8.826   2.745   0.949  0.00  0.00    +0.293 HD
ENDBRANCH   9  20
TORSDOF 2
