REMARK  Name = ZINC61564084
REMARK  3 active torsions:
REMARK  status: ('A' for Active; 'I' for Inactive)
REMARK    1  A    between atoms: C_2  and  C_10
REMARK    2  A    between atoms: C_3  and  N_9
REMARK    3  A    between atoms: C_12  and  C_16
REMARK                            x       y       z     vdW  Elec       q    Type
REMARK                         _______ _______ _______ _____ _____    ______ ____
ROOT
ATOM      1  C   UNL     1       1.916   1.402   0.952  0.00  0.00    +0.054 A 
ATOM      2  C   UNL     1       1.154   2.088   0.009  0.00  0.00    +0.044 A 
ATOM      3  C   UNL     1       0.430   1.374  -0.952  0.00  0.00    +0.038 A 
ATOM      4  C   UNL     1       0.476  -0.012  -0.960  0.00  0.00    +0.064 A 
ATOM      5  C   UNL     1       1.235  -0.686  -0.020  0.00  0.00    +0.160 A 
ATOM      6  C   UNL     1       1.954   0.021   0.935  0.00  0.00    +0.159 A 
ATOM      7  F   UNL     1       2.693  -0.644   1.850  0.00  0.00    -0.202 F 
ATOM      8  F   UNL     1       1.277  -2.036  -0.030  0.00  0.00    -0.202 F 
ENDROOT
BRANCH   2   9
ATOM      9  C   UNL     1       1.110   3.571   0.025  0.00  0.00    +0.183 A 
ATOM     10  N   UNL     1       0.002   4.320  -0.059  0.00  0.00    -0.211 NA
ATOM     11  C   UNL     1       0.321   5.587  -0.015  0.00  0.00    +0.129 A 
ATOM     12  N   UNL     1       1.657   5.682   0.100  0.00  0.00    -0.262 N 
ATOM     13  H   UNL     1       2.178   6.499   0.155  0.00  0.00    +0.190 HD
ATOM     14  N   UNL     1       2.151   4.368   0.129  0.00  0.00    -0.152 NA
BRANCH  11  15
ATOM     15  C   UNL     1      -0.644   6.742  -0.082  0.00  0.00    +0.056 C 
ATOM     16  C   UNL     1      -0.135   8.115   0.364  0.00  0.00    +0.012 C 
ATOM     17  C   UNL     1      -1.121   7.342   1.243  0.00  0.00    +0.012 C 
ENDBRANCH  11  15
ENDBRANCH   2   9
BRANCH   3  18
ATOM     18  N   UNL     1      -0.336   2.055  -1.900  0.00  0.00    -0.357 N 
ATOM     19  H   UNL     1      -0.296   3.022  -1.952  0.00  0.00    +0.142 HD
ATOM     20  H   UNL     1      -0.908   1.560  -2.507  0.00  0.00    +0.142 HD
ENDBRANCH   3  18
TORSDOF 3
