REMARK  Name = ZINC38537107
REMARK  4 active torsions:
REMARK  status: ('A' for Active; 'I' for Inactive)
REMARK    1  A    between atoms: C_1  and  C_2
REMARK    2  A    between atoms: C_3  and  C_19
REMARK    3  A    between atoms: C_4  and  N_18
REMARK    4  A    between atoms: N_5  and  C_7
REMARK                            x       y       z     vdW  Elec       q    Type
REMARK                         _______ _______ _______ _____ _____    ______ ____
ROOT
ATOM      1  C   UNL     1      -0.008   1.501  -0.165  0.00  0.00    +0.069 C 
ATOM      2  C   UNL     1       0.007  -0.004  -0.075  0.00  0.00    +0.080 A 
ATOM      3  C   UNL     1      -0.020  -0.899  -1.170  0.00  0.00    +0.114 A 
ATOM      4  C   UNL     1       0.007  -2.187  -0.643  0.00  0.00    +0.138 A 
ATOM      5  N   UNL     1       0.049  -2.065   0.703  0.00  0.00    -0.212 N 
ATOM      6  N   UNL     1       0.053  -0.704   1.024  0.00  0.00    -0.168 NA
ENDROOT
BRANCH   5   7
ATOM      7  C   UNL     1       0.087  -3.125   1.622  0.00  0.00    +0.143 A 
ATOM      8  C   UNL     1       1.028  -4.138   1.478  0.00  0.00    +0.190 A 
ATOM      9  C   UNL     1       1.063  -5.183   2.387  0.00  0.00    +0.199 A 
ATOM     10  C   UNL     1       0.161  -5.219   3.438  0.00  0.00    +0.199 A 
ATOM     11  C   UNL     1      -0.779  -4.211   3.583  0.00  0.00    +0.199 A 
ATOM     12  C   UNL     1      -0.813  -3.161   2.680  0.00  0.00    +0.190 A 
ATOM     13  F   UNL     1      -1.725  -2.175   2.825  0.00  0.00    -0.200 F 
ATOM     14  F   UNL     1      -1.657  -4.248   4.609  0.00  0.00    -0.199 F 
ATOM     15  F   UNL     1       0.197  -6.239   4.323  0.00  0.00    -0.199 F 
ATOM     16  F   UNL     1       1.977  -6.168   2.247  0.00  0.00    -0.199 F 
ATOM     17  F   UNL     1       1.907  -4.103   0.453  0.00  0.00    -0.200 F 
ENDBRANCH   5   7
BRANCH   4  18
ATOM     18  N   UNL     1      -0.006  -3.369  -1.360  0.00  0.00    -0.342 N 
ATOM     19  H   UNL     1      -0.096  -3.349  -2.326  0.00  0.00    +0.144 HD
ATOM     20  H   UNL     1       0.075  -4.218  -0.898  0.00  0.00    +0.144 HD
ENDBRANCH   4  18
BRANCH   3  21
ATOM     21  C   UNL     1      -0.068  -0.547  -2.557  0.00  0.00    +0.104 C 
ATOM     22  N   UNL     1      -0.105  -0.268  -3.658  0.00  0.00    -0.191 NA
ENDBRANCH   3  21
TORSDOF 3
