REMARK  Name = ZINC18093885
REMARK  9 active torsions:
REMARK  status: ('A' for Active; 'I' for Inactive)
REMARK    1  A    between atoms: C_1  and  C_2
REMARK    2  A    between atoms: C_2  and  C_3
REMARK    3  A    between atoms: C_3  and  O_4
REMARK    4  A    between atoms: O_4  and  C_5
REMARK    5  A    between atoms: C_10  and  C_11
REMARK    6  A    between atoms: C_13  and  C_20
REMARK    7  A    between atoms: C_14  and  C_19
REMARK    8  A    between atoms: N_22  and  C_23
REMARK    9  A    between atoms: C_26  and  C_29
REMARK                            x       y       z     vdW  Elec       q    Type
REMARK                         _______ _______ _______ _____ _____    ______ ____
ROOT
ATOM      1  C   UNL     1      -1.252  -0.764   0.010  0.00  0.00    +0.143 C 
ATOM      2  C   UNL     1      -2.281  -0.578   1.107  0.00  0.00    +0.056 C 
ATOM      3  C   UNL     1      -2.905  -1.679   1.576  0.00  0.00    +0.017 C 
ATOM      4  N   UNL     1      -2.619  -2.918   1.078  0.00  0.00    -0.300 N 
ATOM      5  C   UNL     1      -1.721  -3.140   0.110  0.00  0.00    +0.135 C 
ATOM      6  S   UNL     1      -1.458  -4.745  -0.424  0.00  0.00    -0.019 S 
ATOM      7  N   UNL     1      -1.017  -2.140  -0.457  0.00  0.00    -0.315 N 
ATOM      8  C   UNL     1      -3.935  -1.539   2.668  0.00  0.00    +0.061 C 
ATOM      9  H   UNL     1      -3.139  -3.804   1.473  0.00  0.00    +0.154 HD
ATOM     10  H   UNL     1      -0.281  -2.333  -1.252  0.00  0.00    +0.149 HD
ENDROOT
BRANCH   1  16
ATOM     11  C   UNL     1       1.061   0.113  -0.398  0.00  0.00    +0.126 A 
ATOM     12  C   UNL     1       2.268   0.622   0.060  0.00  0.00    +0.047 A 
ATOM     13  C   UNL     1       2.468   0.808   1.414  0.00  0.00    +0.019 A 
ATOM     14  C   UNL     1       1.468   0.484   2.313  0.00  0.00    +0.018 A 
ATOM     15  C   UNL     1       0.265  -0.025   1.859  0.00  0.00    +0.024 A 
ATOM     16  C   UNL     1       0.059  -0.211   0.505  0.00  0.00    +0.020 A 
ATOM     17 BR   UNL     1       1.746   0.738   4.166  0.00  0.00    -0.050 Br
BRANCH  11  18
ATOM     18  O   UNL     1       0.863  -0.075  -1.730  0.00  0.00    -0.492 OA
BRANCH  18  19
ATOM     19  C   UNL     1       1.892   0.382  -2.609  0.00  0.00    +0.229 C 
BRANCH  19  21
ATOM     20  C   UNL     1       2.591   0.570  -5.001  0.00  0.00    +0.007 C 
ATOM     21  C   UNL     1       1.444   0.196  -4.060  0.00  0.00    +0.038 C 
ENDBRANCH  19  21
ENDBRANCH  18  19
ENDBRANCH  11  18
ENDBRANCH   1  16
BRANCH   2  22
ATOM     22  C   UNL     1      -2.577   0.707   1.623  0.00  0.00    +0.248 C 
ATOM     23  O   UNL     1      -3.266   0.819   2.621  0.00  0.00    -0.270 OA
ATOM     24  N   UNL     1      -2.095   1.806   1.011  0.00  0.00    -0.282 N 
ATOM     25  H   UNL     1      -1.373   1.705   0.187  0.00  0.00    +0.155 HD
BRANCH  24  26
ATOM     26  C   UNL     1      -2.513   3.076   1.422  0.00  0.00    +0.034 A 
ATOM     27  C   UNL     1      -3.034   3.258   2.696  0.00  0.00    +0.023 A 
ATOM     28  C   UNL     1      -3.442   4.514   3.101  0.00  0.00    +0.005 A 
ATOM     29  C   UNL     1      -3.342   5.588   2.236  0.00  0.00    -0.050 A 
ATOM     30  C   UNL     1      -2.828   5.409   0.964  0.00  0.00    +0.005 A 
ATOM     31  C   UNL     1      -2.414   4.156   0.555  0.00  0.00    +0.023 A 
ATOM     32  C   UNL     1      -3.793   6.955   2.679  0.00  0.00    +0.044 C 
ENDBRANCH  24  26
ENDBRANCH   2  22
TORSDOF 6
