REMARK  Name = ZINC32534144
REMARK  6 active torsions:
REMARK  status: ('A' for Active; 'I' for Inactive)
REMARK    1  A    between atoms: C_1  and  C_2
REMARK    2  A    between atoms: C_9  and  N_23
REMARK    3  A    between atoms: C_10  and  C_21
REMARK    4  A    between atoms: C_11  and  C_13
REMARK    5  A    between atoms: C_16  and  O_19
REMARK    6  A    between atoms: O_19  and  C_20
REMARK                            x       y       z     vdW  Elec       q    Type
REMARK                         _______ _______ _______ _____ _____    ______ ____
ROOT
ATOM      1  C   UNL     1      -0.018   1.503   0.010  0.00  0.00    +0.065 C 
ATOM      2  C   UNL     1       0.002  -0.004   0.002  0.00  0.00    +0.041 A 
ATOM      3  C   UNL     1       0.008  -0.790  -1.085  0.00  0.00    +0.049 A 
ATOM      4  C   UNL     1       0.027  -2.135  -0.654  0.00  0.00    +0.245 A 
ATOM      5  N   UNL     1       0.034  -2.141   0.647  0.00  0.00    -0.135 NA
ATOM      6  N   UNL     1       0.024  -0.809   1.090  0.00  0.00    -0.278 N 
ATOM      7  H   UNL     1       0.029  -0.516   2.015  0.00  0.00    +0.189 HD
ATOM      8  O   UNL     1       0.034  -3.173  -1.533  0.00  0.00    -0.421 OA
ATOM      9  C   UNL     1      -0.251  -2.898  -2.821  0.00  0.00    +0.201 C 
ATOM     10  C   UNL     1      -0.287  -1.657  -3.349  0.00  0.00    +0.098 C 
ATOM     11  C   UNL     1      -0.003  -0.413  -2.545  0.00  0.00    +0.101 C 
ENDROOT
BRANCH  11  12
ATOM     12  C   UNL     1       1.340   0.149  -2.935  0.00  0.00    -0.034 A 
ATOM     13  C   UNL     1       2.476  -0.628  -2.807  0.00  0.00    +0.008 A 
ATOM     14  C   UNL     1       3.708  -0.115  -3.164  0.00  0.00    +0.046 A 
ATOM     15  C   UNL     1       3.805   1.181  -3.651  0.00  0.00    +0.120 A 
ATOM     16  C   UNL     1       2.662   1.958  -3.779  0.00  0.00    +0.046 A 
ATOM     17  C   UNL     1       1.432   1.438  -3.426  0.00  0.00    +0.008 A 
BRANCH  15  18
ATOM     18  O   UNL     1       5.016   1.688  -4.003  0.00  0.00    -0.495 OA
ATOM     19  C   UNL     1       5.039   3.028  -4.497  0.00  0.00    +0.277 C 
ENDBRANCH  15  18
ENDBRANCH  11  12
BRANCH   9  20
ATOM     20  N   UNL     1      -0.523  -3.954  -3.655  0.00  0.00    -0.328 N 
ATOM     21  H   UNL     1      -0.506  -4.861  -3.310  0.00  0.00    +0.145 HD
ATOM     22  H   UNL     1      -0.732  -3.794  -4.588  0.00  0.00    +0.145 HD
ENDBRANCH   9  20
BRANCH  10  23
ATOM     23  C   UNL     1      -0.609  -1.514  -4.737  0.00  0.00    +0.101 C 
ATOM     24  N   UNL     1      -0.864  -1.400  -5.838  0.00  0.00    -0.191 NA
ENDBRANCH  10  23
TORSDOF 4
