REMARK  Name = ZINC20459042
REMARK  10 active torsions:
REMARK  status: ('A' for Active; 'I' for Inactive)
REMARK    1  A    between atoms: C_1  and  C_2
REMARK    2  A    between atoms: C_2  and  O_3
REMARK    3  A    between atoms: O_3  and  C_4
REMARK    4  A    between atoms: C_4  and  C_6
REMARK    5  A    between atoms: C_12  and  C_13
REMARK    6  A    between atoms: C_21  and  C_30
REMARK    7  A    between atoms: C_23  and  C_26
REMARK    8  A    between atoms: C_24  and  N_25
REMARK    9  A    between atoms: C_26  and  O_28
REMARK   10  A    between atoms: O_28  and  C_29
REMARK                            x       y       z     vdW  Elec       q    Type
REMARK                         _______ _______ _______ _____ _____    ______ ____
ROOT
ATOM      1  C   UNL     1      -1.009   0.862  -4.006  0.00  0.00    +0.110 C 
ATOM      2  C   UNL     1      -0.273   0.906  -5.184  0.00  0.00    +0.100 A 
ATOM      3  N   UNL     1      -0.758   1.407  -6.364  0.00  0.00    -0.289 N 
ATOM      4  C   UNL     1       0.048   1.391  -7.441  0.00  0.00    +0.267 A 
ATOM      5  O   UNL     1      -0.319   1.824  -8.518  0.00  0.00    -0.266 OA
ATOM      6  C   UNL     1       1.397   0.840  -7.253  0.00  0.00    +0.079 A 
ATOM      7  C   UNL     1       2.406   0.703  -8.150  0.00  0.00    +0.031 C 
ATOM      8  S   UNL     1       1.342   0.388  -5.528  0.00  0.00    -0.065 S 
ATOM      9  C   UNL     1      -2.146   1.937  -6.354  0.00  0.00    +0.163 C 
ATOM     10  C   UNL     1      -2.952   1.901  -5.083  0.00  0.00    +0.085 C 
ATOM     11  C   UNL     1      -2.379   1.369  -3.938  0.00  0.00    +0.054 C 
ENDROOT
BRANCH   7  12
ATOM     12  C   UNL     1       2.281   1.286  -9.492  0.00  0.00    +0.011 A 
ATOM     13  C   UNL     1       1.731   2.563  -9.656  0.00  0.00    +0.011 A 
ATOM     14  C   UNL     1       1.617   3.104 -10.918  0.00  0.00    +0.001 A 
ATOM     15  C   UNL     1       2.044   2.389 -12.025  0.00  0.00    +0.003 A 
ATOM     16  C   UNL     1       2.588   1.127 -11.875  0.00  0.00    +0.039 A 
ATOM     17  C   UNL     1       2.716   0.571 -10.616  0.00  0.00    +0.131 A 
ATOM     18  F   UNL     1       3.254  -0.660 -10.470  0.00  0.00    -0.205 F 
ENDBRANCH   7  12
BRANCH   9  19
ATOM     19  C   UNL     1      -2.923   1.180  -7.400  0.00  0.00    +0.015 A 
ATOM     20  C   UNL     1      -3.561   1.865  -8.417  0.00  0.00    +0.009 A 
ATOM     21  C   UNL     1      -4.269   1.171  -9.380  0.00  0.00    +0.001 A 
ATOM     22  C   UNL     1      -4.349  -0.208  -9.321  0.00  0.00    +0.003 A 
ATOM     23  C   UNL     1      -3.717  -0.894  -8.302  0.00  0.00    +0.039 A 
ATOM     24  C   UNL     1      -3.003  -0.200  -7.340  0.00  0.00    +0.129 A 
ATOM     25  F   UNL     1      -2.384  -0.870  -6.343  0.00  0.00    -0.205 F 
ENDBRANCH   9  19
BRANCH  11  26
ATOM     26  N   UNL     1      -3.087   1.320  -2.757  0.00  0.00    -0.357 N 
ATOM     27  H   UNL     1      -4.117   1.704  -2.717  0.00  0.00    +0.142 HD
ATOM     28  H   UNL     1      -2.623   0.896  -1.855  0.00  0.00    +0.142 HD
ENDBRANCH  11  26
BRANCH   1  29
ATOM     29  C   UNL     1      -0.415   0.318  -2.840  0.00  0.00    +0.344 C 
ATOM     30  O   UNL     1       0.695  -0.177  -2.898  0.00  0.00    -0.245 OA
BRANCH  29  31
ATOM     31  O   UNL     1      -1.080   0.349  -1.667  0.00  0.00    -0.461 OA
BRANCH  31  33
ATOM     32  C   UNL     1      -1.323  -0.091   0.697  0.00  0.00    +0.048 C 
ATOM     33  C   UNL     1      -0.421  -0.218  -0.532  0.00  0.00    +0.229 C 
ENDBRANCH  31  33
ENDBRANCH  29  31
ENDBRANCH   1  29
BRANCH  10  34
ATOM     34  C   UNL     1      -4.259   2.395  -5.058  0.00  0.00    +0.339 C 
ATOM     35  O   UNL     1      -4.868   2.455  -4.004  0.00  0.00    -0.245 OA
BRANCH  34  36
ATOM     36  O   UNL     1      -4.848   2.807  -6.203  0.00  0.00    -0.465 OA
ATOM     37  C   UNL     1      -6.185   3.301  -6.104  0.00  0.00    +0.280 C 
ENDBRANCH  34  36
ENDBRANCH  10  34
TORSDOF 8
