REMARK  Name = ZINC58964194
REMARK  11 active torsions:
REMARK  status: ('A' for Active; 'I' for Inactive)
REMARK    1  A    between atoms: C_1  and  C_2
REMARK    2  A    between atoms: C_2  and  C_4
REMARK    3  A    between atoms: C_2  and  S_17
REMARK    4  A    between atoms: N_6  and  C_7
REMARK    5  A    between atoms: C_10  and  O_15
REMARK    6  A    between atoms: C_11  and  O_13
REMARK    7  A    between atoms: O_13  and  C_14
REMARK    8  A    between atoms: O_15  and  C_16
REMARK    9  A    between atoms: S_17  and  C_18
REMARK   10  A    between atoms: C_20  and  C_28
REMARK   11  A    between atoms: C_22  and  C_24
REMARK                            x       y       z     vdW  Elec       q    Type
REMARK                         _______ _______ _______ _____ _____    ______ ____
ROOT
ATOM      1  C   UNL     1      -2.365  -0.108  -1.527  0.00  0.00    +0.190 A 
ATOM      2  N   UNL     1      -3.620  -0.407  -1.825  0.00  0.00    -0.222 NA
ATOM      3  C   UNL     1      -4.152  -0.022  -2.983  0.00  0.00    +0.076 A 
ATOM      4  C   UNL     1      -3.364   0.705  -3.881  0.00  0.00    +0.060 A 
ATOM      5  C   UNL     1      -2.059   0.995  -3.528  0.00  0.00    +0.148 A 
ATOM      6  N   UNL     1      -1.598   0.584  -2.357  0.00  0.00    -0.218 NA
ENDROOT
BRANCH   3   7
ATOM      7  C   UNL     1      -5.556  -0.358  -3.316  0.00  0.00    +0.004 A 
ATOM      8  C   UNL     1      -6.101   0.045  -4.534  0.00  0.00    +0.014 A 
ATOM      9  C   UNL     1      -7.409  -0.269  -4.843  0.00  0.00    +0.050 A 
ATOM     10  C   UNL     1      -8.185  -0.986  -3.944  0.00  0.00    +0.166 A 
ATOM     11  C   UNL     1      -7.644  -1.392  -2.724  0.00  0.00    +0.167 A 
ATOM     12  C   UNL     1      -6.333  -1.084  -2.413  0.00  0.00    +0.059 A 
ATOM     13  O   UNL     1      -8.601  -2.074  -2.029  0.00  0.00    -0.453 OA
ATOM     14  C   UNL     1      -9.851  -1.729  -2.656  0.00  0.00    +0.466 C 
ATOM     15  O   UNL     1      -9.479  -1.414  -4.011  0.00  0.00    -0.453 OA
ENDBRANCH   3   7
BRANCH   5  16
ATOM     16  C   UNL     1      -1.172   1.776  -4.464  0.00  0.00    +0.434 C 
ATOM     17  F   UNL     1      -1.299   3.143  -4.196  0.00  0.00    -0.164 F 
ATOM     18  F   UNL     1       0.159   1.386  -4.279  0.00  0.00    -0.164 F 
ATOM     19  F   UNL     1      -1.553   1.523  -5.787  0.00  0.00    -0.164 F 
ENDBRANCH   5  16
BRANCH   1  20
ATOM     20  S   UNL     1      -1.700  -0.636   0.017  0.00  0.00    -0.074 S 
BRANCH  20  22
ATOM     21  C   UNL     1      -0.017   1.520  -0.003  0.00  0.00    +0.029 C 
ATOM     22  C   UNL     1       0.002  -0.010  -0.001  0.00  0.00    +0.137 C 
BRANCH  22  23
ATOM     23  C   UNL     1       0.731  -0.502   1.223  0.00  0.00    +0.230 C 
ATOM     24  O   UNL     1       0.105  -0.882   2.190  0.00  0.00    -0.274 OA
ATOM     25  N   UNL     1       2.079  -0.519   1.244  0.00  0.00    -0.284 N 
ATOM     26  H   UNL     1       2.579  -0.278   0.448  0.00  0.00    +0.155 HD
BRANCH  25  27
ATOM     27  C   UNL     1       2.757  -0.883   2.414  0.00  0.00    +0.037 A 
ATOM     28  C   UNL     1       2.229  -1.862   3.246  0.00  0.00    +0.027 A 
ATOM     29  C   UNL     1       2.897  -2.222   4.401  0.00  0.00    +0.051 A 
ATOM     30  C   UNL     1       4.094  -1.608   4.732  0.00  0.00    +0.162 A 
ATOM     31  C   UNL     1       4.625  -0.627   3.900  0.00  0.00    +0.163 A 
ATOM     32  C   UNL     1       3.959  -0.270   2.740  0.00  0.00    +0.072 A 
BRANCH  31  33
ATOM     33  O   UNL     1       5.800  -0.023   4.224  0.00  0.00    -0.491 OA
ATOM     34  C   UNL     1       6.286   0.975   3.324  0.00  0.00    +0.277 C 
ENDBRANCH  31  33
BRANCH  30  35
ATOM     35  O   UNL     1       4.750  -1.964   5.869  0.00  0.00    -0.491 OA
ATOM     36  C   UNL     1       4.147  -2.978   6.676  0.00  0.00    +0.277 C 
ENDBRANCH  30  35
ENDBRANCH  25  27
ENDBRANCH  22  23
ENDBRANCH  20  22
ENDBRANCH   1  20
TORSDOF 8
