REMARK  Name = ZINC08311915
REMARK  6 active torsions:
REMARK  status: ('A' for Active; 'I' for Inactive)
REMARK    1  A    between atoms: C_1  and  C_2
REMARK    2  A    between atoms: C_3  and  C_13
REMARK    3  A    between atoms: C_4  and  C_7
REMARK    4  A    between atoms: C_16  and  C_18
REMARK    5  A    between atoms: C_18  and  S_19
REMARK    6  A    between atoms: S_19  and  C_20
REMARK                            x       y       z     vdW  Elec       q    Type
REMARK                         _______ _______ _______ _____ _____    ______ ____
ROOT
ATOM      1  C   UNL     1       2.161  -3.970   0.589  0.00  0.00    +0.254 A 
ATOM      2  N   UNL     1       2.142  -3.903  -0.722  0.00  0.00    -0.107 NA
ATOM      3  N   UNL     1       2.000  -2.676  -1.082  0.00  0.00    -0.111 NA
ATOM      4  C   UNL     1       1.932  -1.917  -0.026  0.00  0.00    +0.228 A 
ATOM      5  O   UNL     1       2.028  -2.712   1.055  0.00  0.00    -0.419 OA
ENDROOT
BRANCH   1   8
ATOM      6  C   UNL     1       2.230  -4.197   3.771  0.00  0.00    +0.090 C 
ATOM      7  C   UNL     1       2.334  -5.315   2.765  0.00  0.00    +0.147 A 
ATOM      8  C   UNL     1       2.303  -5.195   1.402  0.00  0.00    +0.108 A 
ATOM      9  C   UNL     1       2.451  -6.591   0.944  0.00  0.00    +0.126 A 
ATOM     10  N   UNL     1       2.538  -7.304   2.040  0.00  0.00    -0.077 NA
ATOM     11  O   UNL     1       2.473  -6.619   3.031  0.00  0.00    -0.359 OA
BRANCH   9  12
ATOM     12  C   UNL     1       2.491  -7.081  -0.455  0.00  0.00    +0.004 A 
ATOM     13  C   UNL     1       1.715  -6.465  -1.435  0.00  0.00    +0.010 A 
ATOM     14  C   UNL     1       1.761  -6.921  -2.736  0.00  0.00    +0.001 A 
ATOM     15  C   UNL     1       2.567  -7.996  -3.067  0.00  0.00    +0.000 A 
ATOM     16  C   UNL     1       3.336  -8.615  -2.098  0.00  0.00    +0.001 A 
ATOM     17  C   UNL     1       3.302  -8.163  -0.794  0.00  0.00    +0.010 A 
ENDBRANCH   9  12
ENDBRANCH   1   8
BRANCH   4  18
ATOM     18  C   UNL     1       1.768  -0.419  -0.016  0.00  0.00    +0.174 C 
BRANCH  18  19
ATOM     19  S   UNL     1       0.002  -0.004   0.002  0.00  0.00    -0.087 S 
BRANCH  19  20
ATOM     20  C   UNL     1      -0.022   1.758   0.012  0.00  0.00    +0.160 A 
ATOM     21  N   UNL     1       0.987   2.608   0.007  0.00  0.00    -0.133 NA
ATOM     22  N   UNL     1       0.742   3.961   0.016  0.00  0.00    -0.125 NA
ATOM     23  C   UNL     1      -0.500   4.403   0.030  0.00  0.00    +0.180 A 
ATOM     24  S   UNL     1      -1.419   2.871   0.023  0.00  0.00    -0.025 S 
ATOM     25  N   UNL     1      -0.970   5.711   0.041  0.00  0.00    -0.336 N 
ATOM     26  H   UNL     1      -0.343   6.452   0.039  0.00  0.00    +0.144 HD
ATOM     27  H   UNL     1      -1.924   5.884   0.051  0.00  0.00    +0.144 HD
ENDBRANCH  19  20
ENDBRANCH  18  19
ENDBRANCH   4  18
TORSDOF 5
