REMARK  Name = ZINC11979692
REMARK  8 active torsions:
REMARK  status: ('A' for Active; 'I' for Inactive)
REMARK    1  A    between atoms: C_1  and  C_2
REMARK    2  A    between atoms: C_2  and  C_4
REMARK    3  A    between atoms: C_2  and  S_16
REMARK    4  A    between atoms: N_9  and  C_10
REMARK    5  A    between atoms: S_16  and  C_17
REMARK    6  A    between atoms: C_20  and  C_28
REMARK    7  A    between atoms: N_21  and  C_22
REMARK    8  A    between atoms: C_28  and  C_29
REMARK                            x       y       z     vdW  Elec       q    Type
REMARK                         _______ _______ _______ _____ _____    ______ ____
ROOT
ATOM      1  S   UNL     1      -1.698  -0.622   0.018  0.00  0.00    -0.074 S 
ENDROOT
BRANCH   1   2
ATOM      2  C   UNL     1      -2.332  -0.089   1.573  0.00  0.00    +0.193 A 
ATOM      3  N   UNL     1      -1.689   0.609   2.480  0.00  0.00    -0.122 NA
ATOM      4  N   UNL     1      -2.454   0.820   3.491  0.00  0.00    -0.133 NA
ATOM      5  C   UNL     1      -3.620   0.274   3.292  0.00  0.00    +0.139 A 
ATOM      6  N   UNL     1      -3.586  -0.320   2.060  0.00  0.00    -0.303 N 
BRANCH   6   7
ATOM      7  C   UNL     1      -4.670  -1.054   1.402  0.00  0.00    +0.091 C 
ATOM      8  C   UNL     1      -4.221  -2.491   1.131  0.00  0.00    +0.025 C 
ATOM      9  C   UNL     1      -5.353  -3.257   0.443  0.00  0.00    +0.002 C 
ATOM     10  C   UNL     1      -5.701  -2.574  -0.880  0.00  0.00    +0.000 C 
ATOM     11  C   UNL     1      -6.150  -1.136  -0.609  0.00  0.00    +0.002 C 
ATOM     12  C   UNL     1      -5.018  -0.370   0.078  0.00  0.00    +0.025 C 
ENDBRANCH   6   7
BRANCH   5  13
ATOM     13  C   UNL     1      -4.792   0.298   4.239  0.00  0.00    +0.118 C 
BRANCH  13  14
ATOM     14  C   UNL     1      -5.643   1.509   3.955  0.00  0.00    -0.003 A 
ATOM     15  C   UNL     1      -6.696   1.633   3.111  0.00  0.00    +0.011 A 
ATOM     16  C   UNL     1      -7.335   2.855   3.011  0.00  0.00    +0.008 A 
ATOM     17  C   UNL     1      -6.889   3.893   3.760  0.00  0.00    +0.045 A 
ATOM     18  S   UNL     1      -5.530   3.150   4.649  0.00  0.00    -0.101 S 
ENDBRANCH  13  14
ENDBRANCH   5  13
ENDBRANCH   1   2
BRANCH   1  20
ATOM     19  C   UNL     1      -0.019   1.538  -0.004  0.00  0.00    +0.029 C 
ATOM     20  C   UNL     1       0.003   0.008  -0.002  0.00  0.00    +0.137 C 
BRANCH  20  21
ATOM     21  C   UNL     1       0.708  -0.486  -1.239  0.00  0.00    +0.234 C 
ATOM     22  O   UNL     1       0.066  -0.786  -2.223  0.00  0.00    -0.274 OA
ATOM     23  N   UNL     1       2.051  -0.595  -1.251  0.00  0.00    -0.239 N 
ATOM     24  C   UNL     1       2.681  -1.037  -2.358  0.00  0.00    +0.310 C 
ATOM     25  O   UNL     1       2.038  -1.337  -3.344  0.00  0.00    -0.252 OA
ATOM     26  N   UNL     1       4.025  -1.146  -2.370  0.00  0.00    -0.269 N 
ATOM     27  H   UNL     1       2.564  -0.355  -0.464  0.00  0.00    +0.159 HD
ATOM     28  H   UNL     1       4.543  -0.843  -1.608  0.00  0.00    +0.156 HD
BRANCH  26  29
ATOM     29  C   UNL     1       4.672  -1.695  -3.482  0.00  0.00    +0.035 A 
ATOM     30  C   UNL     1       5.811  -2.470  -3.312  0.00  0.00    +0.023 A 
ATOM     31  C   UNL     1       6.448  -3.011  -4.412  0.00  0.00    +0.002 A 
ATOM     32  C   UNL     1       5.952  -2.781  -5.682  0.00  0.00    +0.000 A 
ATOM     33  C   UNL     1       4.818  -2.009  -5.855  0.00  0.00    +0.002 A 
ATOM     34  C   UNL     1       4.173  -1.471  -4.759  0.00  0.00    +0.023 A 
ENDBRANCH  26  29
ENDBRANCH  20  21
ENDBRANCH   1  20
TORSDOF 7
