REMARK  Name = ZINC00333535
REMARK  6 active torsions:
REMARK  status: ('A' for Active; 'I' for Inactive)
REMARK    1  A    between atoms: C_1  and  C_2
REMARK    2  A    between atoms: C_2  and  C_20
REMARK    3  A    between atoms: C_4  and  C_6
REMARK    4  A    between atoms: N_8  and  N_9
REMARK    5  A    between atoms: C_10  and  C_12
REMARK    6  A    between atoms: C_17  and  C_18
REMARK                            x       y       z     vdW  Elec       q    Type
REMARK                         _______ _______ _______ _____ _____    ______ ____
ROOT
ATOM      1  C   UNL     1       7.204   3.073   0.488  0.00  0.00    +0.233 C 
ATOM      2  O   UNL     1       7.315   4.275   0.610  0.00  0.00    -0.274 OA
ATOM      3  N   UNL     1       5.986   2.523   0.313  0.00  0.00    -0.234 N 
ATOM      4  H   UNL     1       5.898   1.562   0.216  0.00  0.00    +0.173 HD
ENDROOT
BRANCH   1   8
ATOM      5  C   UNL     1       9.789   4.404   0.869  0.00  0.00    +0.017 C 
ATOM      6  C   UNL     1       9.782   2.880   0.730  0.00  0.00    +0.005 C 
ATOM      7  C   UNL     1       9.412   2.296  -0.636  0.00  0.00    +0.025 C 
ATOM      8  C   UNL     1       8.428   2.195   0.531  0.00  0.00    +0.088 C 
BRANCH   6   9
ATOM      9  C   UNL     1      10.820   2.148   1.542  0.00  0.00    -0.041 A 
ATOM     10  C   UNL     1      10.529   0.908   2.079  0.00  0.00    +0.004 A 
ATOM     11  C   UNL     1      11.482   0.235   2.820  0.00  0.00    +0.000 A 
ATOM     12  C   UNL     1      12.723   0.805   3.031  0.00  0.00    +0.000 A 
ATOM     13  C   UNL     1      13.012   2.048   2.498  0.00  0.00    +0.000 A 
ATOM     14  C   UNL     1      12.061   2.719   1.754  0.00  0.00    +0.004 A 
ENDBRANCH   6   9
ENDBRANCH   1   8
BRANCH   3  15
ATOM     15  N   UNL     1       4.848   3.339   0.272  0.00  0.00    -0.230 N 
ATOM     16  C   UNL     1       3.630   2.789   0.098  0.00  0.00    +0.261 C 
ATOM     17  O   UNL     1       3.519   1.585  -0.024  0.00  0.00    -0.269 OA
ATOM     18  H   UNL     1       4.937   4.300   0.370  0.00  0.00    +0.173 HD
BRANCH  16  19
ATOM     19  C   UNL     1       2.429   3.651   0.055  0.00  0.00    +0.052 A 
ATOM     20  C   UNL     1       2.157   4.526   1.103  0.00  0.00    +0.014 A 
ATOM     21  C   UNL     1       1.030   5.326   1.060  0.00  0.00    +0.001 A 
ATOM     22  C   UNL     1       0.169   5.267  -0.021  0.00  0.00    +0.001 A 
ATOM     23  C   UNL     1       0.425   4.407  -1.073  0.00  0.00    +0.016 A 
ATOM     24  C   UNL     1       1.556   3.594  -1.048  0.00  0.00    +0.075 A 
BRANCH  24  25
ATOM     25  C   UNL     1       1.834   2.672  -2.170  0.00  0.00    +0.387 C 
ATOM     26  O   UNL     1       2.875   2.047  -2.198  0.00  0.00    -0.241 OA
ATOM     27  O   UNL     1       0.932   2.525  -3.160  0.00  0.00    -0.241 OA
ENDBRANCH  24  25
ENDBRANCH  16  19
ENDBRANCH   3  15
TORSDOF 5
