REMARK  Name = ZINC30826427
REMARK  7 active torsions:
REMARK  status: ('A' for Active; 'I' for Inactive)
REMARK    1  A    between atoms: C_1  and  C_2
REMARK    2  A    between atoms: C_5  and  C_8
REMARK    3  A    between atoms: N_10  and  C_11
REMARK    4  A    between atoms: C_11  and  N_13
REMARK    5  A    between atoms: N_13  and  C_14
REMARK    6  A    between atoms: C_19  and  N_20
REMARK    7  A    between atoms: C_26  and  C_28
REMARK                            x       y       z     vdW  Elec       q    Type
REMARK                         _______ _______ _______ _____ _____    ______ ____
ROOT
ATOM      1  C   UNL     1       5.902   2.530   0.682  0.00  0.00    +0.055 A 
ATOM      2  C   UNL     1       6.366   3.795   1.009  0.00  0.00    +0.045 A 
ATOM      3  C   UNL     1       7.713   3.995   1.257  0.00  0.00    +0.043 A 
ATOM      4  C   UNL     1       8.598   2.935   1.180  0.00  0.00    +0.022 A 
ATOM      5  C   UNL     1       8.143   1.671   0.855  0.00  0.00    +0.026 A 
ATOM      6  C   UNL     1       6.794   1.461   0.610  0.00  0.00    +0.051 A 
ATOM      7 CL   UNL     1       8.292   5.579   1.666  0.00  0.00    -0.083 Cl
ENDROOT
BRANCH   6   8
ATOM      8  N   UNL     1       6.330   0.181   0.286  0.00  0.00    -0.325 N 
ATOM      9  C   UNL     1       6.524  -0.749   1.407  0.00  0.00    +0.124 C 
ATOM     10  C   UNL     1       5.844  -2.083   1.083  0.00  0.00    +0.127 C 
ATOM     11  N   UNL     1       6.346  -2.561  -0.214  0.00  0.00    -0.294 N 
ATOM     12  C   UNL     1       6.312  -1.635  -1.357  0.00  0.00    +0.127 C 
ATOM     13  C   UNL     1       6.973  -0.318  -0.937  0.00  0.00    +0.124 C 
ATOM     14  C   UNL     1       6.825  -3.813  -0.353  0.00  0.00    +0.249 C 
ATOM     15  O   UNL     1       6.822  -4.573   0.596  0.00  0.00    -0.270 OA
BRANCH  14  16
ATOM     16  C   UNL     1       7.353  -4.262  -1.657  0.00  0.00    +0.072 A 
ATOM     17  C   UNL     1       6.812  -3.762  -2.843  0.00  0.00    +0.016 A 
ATOM     18  C   UNL     1       7.313  -4.181  -4.057  0.00  0.00    +0.001 A 
ATOM     19  C   UNL     1       8.344  -5.104  -4.104  0.00  0.00    +0.003 A 
ATOM     20  C   UNL     1       8.883  -5.609  -2.936  0.00  0.00    +0.039 A 
ATOM     21  C   UNL     1       8.394  -5.194  -1.710  0.00  0.00    +0.135 A 
ATOM     22  F   UNL     1       8.921  -5.688  -0.568  0.00  0.00    -0.205 F 
ENDBRANCH  14  16
ENDBRANCH   6   8
BRANCH   1  23
ATOM     23  N   UNL     1       4.538   2.326   0.430  0.00  0.00    -0.295 N 
ATOM     24  H   UNL     1       4.224   1.649  -0.377  0.00  0.00    +0.154 HD
BRANCH  23  25
ATOM     25  C   UNL     1       3.613   2.959   1.178  0.00  0.00    +0.141 C 
ATOM     26  S   UNL     1       4.101   3.947   2.488  0.00  0.00    -0.018 S 
BRANCH  25  29
ATOM     27  C   UNL     1       1.378   3.451   1.639  0.00  0.00    +0.250 C 
ATOM     28  O   UNL     1       1.724   4.152   2.569  0.00  0.00    -0.270 OA
ATOM     29  N   UNL     1       2.303   2.814   0.894  0.00  0.00    -0.264 N 
ATOM     30  H   UNL     1       1.990   2.175   0.055  0.00  0.00    +0.157 HD
BRANCH  27  35
ATOM     31  C   UNL     1      -4.212   2.851   0.412  0.00  0.00    +0.044 C 
ATOM     32  C   UNL     1      -2.748   3.009   0.733  0.00  0.00    -0.050 A 
ATOM     33  C   UNL     1      -2.357   3.808   1.793  0.00  0.00    +0.004 A 
ATOM     34  C   UNL     1      -1.019   3.956   2.093  0.00  0.00    +0.013 A 
ATOM     35  C   UNL     1      -0.058   3.297   1.324  0.00  0.00    +0.037 A 
ATOM     36  C   UNL     1      -0.458   2.497   0.252  0.00  0.00    +0.013 A 
ATOM     37  C   UNL     1      -1.800   2.353  -0.033  0.00  0.00    +0.004 A 
ENDBRANCH  27  35
ENDBRANCH  25  29
ENDBRANCH  23  25
ENDBRANCH   1  23
TORSDOF 6
