REMARK  Name = ZINC38984760
REMARK  9 active torsions:
REMARK  status: ('A' for Active; 'I' for Inactive)
REMARK    1  A    between atoms: C_1  and  C_2
REMARK    2  A    between atoms: C_9  and  C_11
REMARK    3  A    between atoms: C_14  and  N_17
REMARK    4  A    between atoms: C_18  and  C_20
REMARK    5  A    between atoms: C_20  and  S_21
REMARK    6  A    between atoms: S_21  and  C_22
REMARK    7  A    between atoms: C_26  and  C_30
REMARK    8  A    between atoms: N_28  and  N_29
REMARK    9  A    between atoms: C_33  and  C_36
REMARK                            x       y       z     vdW  Elec       q    Type
REMARK                         _______ _______ _______ _____ _____    ______ ____
ROOT
ATOM      1  N   UNL     1       0.243 -10.317   2.484  0.00  0.00    -0.285 N 
ATOM      2  C   UNL     1       0.080 -11.201   1.480  0.00  0.00    +0.227 C 
ATOM      3  O   UNL     1      -0.009 -10.809   0.335  0.00  0.00    -0.275 OA
ATOM      4  H   UNL     1       0.389 -10.633   3.389  0.00  0.00    +0.155 HD
ENDROOT
BRANCH   1   8
ATOM      5  C   UNL     1       0.118  -6.225   1.700  0.00  0.00    +0.007 A 
ATOM      6  C   UNL     1      -0.676  -7.104   0.960  0.00  0.00    +0.012 A 
ATOM      7  C   UNL     1      -0.632  -8.456   1.222  0.00  0.00    +0.024 A 
ATOM      8  C   UNL     1       0.201  -8.946   2.221  0.00  0.00    +0.033 A 
ATOM      9  C   UNL     1       0.993  -8.073   2.960  0.00  0.00    +0.024 A 
ATOM     10  C   UNL     1       0.958  -6.721   2.700  0.00  0.00    +0.012 A 
BRANCH   5  19
ATOM     11  C   UNL     1      -0.172   1.476   0.169  0.00  0.00    +0.044 C 
ATOM     12  C   UNL     1       0.090   0.081   0.676  0.00  0.00    -0.049 A 
ATOM     13  C   UNL     1       0.998  -0.131   1.705  0.00  0.00    +0.005 A 
ATOM     14  C   UNL     1       1.255  -1.377   2.184  0.00  0.00    +0.029 A 
ATOM     15  C   UNL     1       0.601  -2.511   1.645  0.00  0.00    +0.079 A 
ATOM     16  C   UNL     1      -0.318  -2.262   0.598  0.00  0.00    +0.040 A 
ATOM     17  C   UNL     1      -0.575  -0.998   0.126  0.00  0.00    +0.020 A 
ATOM     18  S   UNL     1      -0.904  -3.894   0.213  0.00  0.00    -0.067 S 
ATOM     19  C   UNL     1       0.073  -4.775   1.423  0.00  0.00    +0.109 A 
ATOM     20  N   UNL     1       0.743  -3.802   2.003  0.00  0.00    -0.239 NA
ENDBRANCH   5  19
ENDBRANCH   1   8
BRANCH   2  21
ATOM     21  C   UNL     1       0.009 -12.676   1.778  0.00  0.00    +0.168 C 
BRANCH  21  22
ATOM     22  S   UNL     1      -0.211 -13.597   0.231  0.00  0.00    -0.107 S 
BRANCH  22  23
ATOM     23  C   UNL     1      -0.429 -15.315   0.769  0.00  0.00    +0.272 C 
ATOM     24  N   UNL     1      -1.806 -15.537   1.229  0.00  0.00    -0.159 NA
ATOM     25  N   UNL     1      -2.265 -16.590   0.775  0.00  0.00    -0.167 NA
ATOM     26  C   UNL     1      -1.282 -17.275  -0.074  0.00  0.00    +0.244 C 
ATOM     27  N   UNL     1      -0.256 -16.242  -0.377  0.00  0.00    -0.183 NA
BRANCH  26  28
ATOM     28  C   UNL     1      -0.650 -18.447   0.681  0.00  0.00    +0.195 C 
ATOM     29  C   UNL     1      -1.694 -19.500   1.006  0.00  0.00    +0.029 C 
ATOM     30  C   UNL     1      -1.700 -19.545   2.341  0.00  0.00    +0.058 C 
ATOM     31  N   UNL     1      -0.809 -18.668   2.854  0.00  0.00    -0.159 NA
ATOM     32  N   UNL     1      -0.181 -18.019   2.009  0.00  0.00    -0.176 NA
ATOM     33  C   UNL     1      -2.581 -20.450   3.163  0.00  0.00    +0.067 C 
ENDBRANCH  26  28
BRANCH  27  34
ATOM     34  N   UNL     1      -0.547 -15.574  -1.636  0.00  0.00    -0.263 NA
ATOM     35  H   UNL     1       0.135 -14.856  -1.830  0.00  0.00    +0.137 HD
ATOM     36  H   UNL     1      -0.598 -16.238  -2.394  0.00  0.00    +0.137 HD
ENDBRANCH  27  34
ENDBRANCH  22  23
ENDBRANCH  21  22
ENDBRANCH   2  21
TORSDOF 7
