REMARK  Name = ZINC10521739
REMARK  7 active torsions:
REMARK  status: ('A' for Active; 'I' for Inactive)
REMARK    1  A    between atoms: C_1  and  C_2
REMARK    2  A    between atoms: C_5  and  C_8
REMARK    3  A    between atoms: C_11  and  S_14
REMARK    4  A    between atoms: N_12  and  N_13
REMARK    5  A    between atoms: S_14  and  C_15
REMARK    6  A    between atoms: C_15  and  C_16
REMARK    7  A    between atoms: N_18  and  C_19
REMARK                            x       y       z     vdW  Elec       q    Type
REMARK                         _______ _______ _______ _____ _____    ______ ____
ROOT
ATOM      1  C   UNL     1      -2.698  12.183  -1.212  0.00  0.00    +0.182 A 
ATOM      2  N   UNL     1      -1.532  11.851  -0.708  0.00  0.00    -0.127 NA
ATOM      3  N   UNL     1      -1.426  10.572  -0.651  0.00  0.00    -0.121 NA
ATOM      4  C   UNL     1      -2.515  10.008  -1.125  0.00  0.00    +0.209 A 
ATOM      5  N   UNL     1      -3.363  11.012  -1.494  0.00  0.00    -0.224 N 
ENDROOT
BRANCH   1  10
ATOM      6  C   UNL     1      -4.657  17.525  -2.075  0.00  0.00    +0.044 C 
ATOM      7  C   UNL     1      -4.144  16.126  -1.849  0.00  0.00    -0.050 A 
ATOM      8  C   UNL     1      -5.027  15.060  -1.845  0.00  0.00    +0.004 A 
ATOM      9  C   UNL     1      -4.564  13.777  -1.638  0.00  0.00    +0.012 A 
ATOM     10  C   UNL     1      -3.201  13.555  -1.433  0.00  0.00    +0.021 A 
ATOM     11  C   UNL     1      -2.316  14.635  -1.433  0.00  0.00    +0.012 A 
ATOM     12  C   UNL     1      -2.792  15.912  -1.646  0.00  0.00    +0.004 A 
ENDBRANCH   1  10
BRANCH   5  13
ATOM     13  N   UNL     1      -4.612  10.882  -2.033  0.00  0.00    -0.295 N 
ATOM     14  H   UNL     1      -5.322  10.947  -1.319  0.00  0.00    +0.163 HD
ATOM     15  H   UNL     1      -4.766  11.565  -2.759  0.00  0.00    +0.163 HD
ENDBRANCH   5  13
BRANCH   4  16
ATOM     16  S   UNL     1      -2.825   8.278  -1.252  0.00  0.00    -0.075 S 
BRANCH  16  17
ATOM     17  C   UNL     1      -1.274   7.630  -0.581  0.00  0.00    +0.173 C 
BRANCH  17  18
ATOM     18  C   UNL     1      -1.313   6.124  -0.591  0.00  0.00    +0.228 C 
ATOM     19  O   UNL     1      -2.292   5.545  -1.011  0.00  0.00    -0.275 OA
ATOM     20  N   UNL     1      -0.258   5.420  -0.134  0.00  0.00    -0.282 N 
ATOM     21  H   UNL     1       0.505   5.881   0.246  0.00  0.00    +0.155 HD
BRANCH  20  22
ATOM     22  C   UNL     1      -0.266   4.020  -0.208  0.00  0.00    +0.083 A 
ATOM     23  C   UNL     1      -0.887   3.381  -1.275  0.00  0.00    +0.148 A 
ATOM     24  C   UNL     1      -0.893   2.000  -1.345  0.00  0.00    +0.078 A 
ATOM     25  C   UNL     1      -0.280   1.254  -0.352  0.00  0.00    +0.127 A 
ATOM     26  C   UNL     1       0.335   1.887   0.714  0.00  0.00    +0.055 A 
ATOM     27  C   UNL     1       0.348   3.268   0.785  0.00  0.00    +0.045 A 
ATOM     28 BR   UNL     1       1.194   4.132   2.239  0.00  0.00    -0.048 Br
ATOM     29  F   UNL     1      -0.287  -0.096  -0.422  0.00  0.00    -0.205 F 
ATOM     30  F   UNL     1      -1.486   4.110  -2.243  0.00  0.00    -0.203 F 
ENDBRANCH  20  22
ENDBRANCH  17  18
ENDBRANCH  16  17
ENDBRANCH   4  16
TORSDOF 6
