REMARK  Name = ZINC28617190
REMARK  10 active torsions:
REMARK  status: ('A' for Active; 'I' for Inactive)
REMARK    1  A    between atoms: C_1  and  C_2
REMARK    2  A    between atoms: N_4  and  C_5
REMARK    3  A    between atoms: C_8  and  N_15
REMARK    4  A    between atoms: C_9  and  C_11
REMARK    5  A    between atoms: C_16  and  C_18
REMARK    6  A    between atoms: C_22  and  N_24
REMARK    7  A    between atoms: C_25  and  C_27
REMARK    8  A    between atoms: C_27  and  C_28
REMARK    9  A    between atoms: C_27  and  C_29
REMARK   10  A    between atoms: C_27  and  C_30
REMARK                            x       y       z     vdW  Elec       q    Type
REMARK                         _______ _______ _______ _____ _____    ______ ____
ROOT
ATOM      1  N   UNL     1      -0.942   0.709   0.213  0.00  0.00    -0.281 N 
ATOM      2  C   UNL     1      -1.507  -0.500   0.401  0.00  0.00    +0.248 C 
ATOM      3  O   UNL     1      -0.806  -1.484   0.537  0.00  0.00    -0.270 OA
ATOM      4  H   UNL     1      -1.573   1.609   0.159  0.00  0.00    +0.155 HD
ENDROOT
BRANCH   1   8
ATOM      5  C   UNL     1       3.196   1.037  -0.172  0.00  0.00    +0.034 A 
ATOM      6  C   UNL     1       2.648   0.007   0.582  0.00  0.00    +0.025 A 
ATOM      7  C   UNL     1       1.278  -0.099   0.712  0.00  0.00    +0.026 A 
ATOM      8  C   UNL     1       0.447   0.820   0.085  0.00  0.00    +0.045 A 
ATOM      9  C   UNL     1       0.995   1.853  -0.665  0.00  0.00    +0.078 A 
ATOM     10  C   UNL     1       2.366   1.959  -0.795  0.00  0.00    +0.037 A 
BRANCH   5  14
ATOM     11  C   UNL     1       6.851   0.152  -0.363  0.00  0.00    +0.109 C 
ATOM     12  C   UNL     1       5.349   0.034  -0.335  0.00  0.00    +0.214 C 
ATOM     13  O   UNL     1       4.826  -1.060  -0.340  0.00  0.00    -0.276 OA
ATOM     14  N   UNL     1       4.586   1.145  -0.304  0.00  0.00    -0.286 N 
ATOM     15  H   UNL     1       5.056   2.137  -0.383  0.00  0.00    +0.155 HD
ENDBRANCH   5  14
BRANCH   9  16
ATOM     16  C   UNL     1       0.094   2.854  -1.340  0.00  0.00    +0.419 C 
ATOM     17  F   UNL     1       0.872   3.787  -2.034  0.00  0.00    -0.166 F 
ATOM     18  F   UNL     1      -0.750   2.191  -2.238  0.00  0.00    -0.166 F 
ATOM     19  F   UNL     1      -0.676   3.513  -0.376  0.00  0.00    -0.166 F 
ENDBRANCH   9  16
ENDBRANCH   1   8
BRANCH   2  20
ATOM     20  C   UNL     1      -2.979  -0.630   0.443  0.00  0.00    +0.039 A 
ATOM     21  C   UNL     1      -3.787   0.498   0.287  0.00  0.00    +0.013 A 
ATOM     22  C   UNL     1      -5.160   0.374   0.325  0.00  0.00    +0.003 A 
ATOM     23  C   UNL     1      -5.742  -0.865   0.518  0.00  0.00    +0.023 A 
ATOM     24  C   UNL     1      -4.947  -1.994   0.673  0.00  0.00    +0.034 A 
ATOM     25  C   UNL     1      -3.566  -1.881   0.632  0.00  0.00    +0.036 A 
BRANCH  24  26
ATOM     26  N   UNL     1      -5.541  -3.247   0.868  0.00  0.00    -0.285 N 
ATOM     27  C   UNL     1      -4.936  -4.166   1.645  0.00  0.00    +0.223 C 
ATOM     28  O   UNL     1      -3.925  -3.878   2.251  0.00  0.00    -0.275 OA
ATOM     29  H   UNL     1      -6.502  -3.480   0.385  0.00  0.00    +0.155 HD
BRANCH  27  30
ATOM     30  C   UNL     1      -5.515  -5.553   1.762  0.00  0.00    +0.039 C 
ATOM     31  C   UNL     1      -4.643  -6.392   2.699  0.00  0.00    +0.020 C 
ATOM     32  C   UNL     1      -6.934  -5.466   2.328  0.00  0.00    +0.020 C 
ATOM     33  C   UNL     1      -5.555  -6.207   0.380  0.00  0.00    +0.020 C 
ENDBRANCH  27  30
ENDBRANCH  24  26
ENDBRANCH   2  20
TORSDOF 6
