REMARK  Name = ZINC09215856
REMARK  9 active torsions:
REMARK  status: ('A' for Active; 'I' for Inactive)
REMARK    1  A    between atoms: C_1  and  O_2
REMARK    2  A    between atoms: O_2  and  C_3
REMARK    3  A    between atoms: C_6  and  C_11
REMARK    4  A    between atoms: C_8  and  O_9
REMARK    5  A    between atoms: O_9  and  C_10
REMARK    6  A    between atoms: C_19  and  O_33
REMARK    7  A    between atoms: C_22  and  C_23
REMARK    8  A    between atoms: C_22  and  N_63
REMARK    9  A    between atoms: N_25  and  C_26
REMARK                            x       y       z     vdW  Elec       q    Type
REMARK                         _______ _______ _______ _____ _____    ______ ____
ROOT
ATOM      1  C   UNL     1      -3.432   7.873  -0.996  0.00  0.00    -0.031 C 
ATOM      2  C   UNL     1      -4.813   8.500  -1.188  0.00  0.00    +0.011 C 
ATOM      3  C   UNL     1      -5.461   7.960  -2.464  0.00  0.00    +0.005 C 
ATOM      4  C   UNL     1      -6.837   8.605  -2.644  0.00  0.00    +0.000 C 
ATOM      5  C   UNL     1      -7.721   8.275  -1.440  0.00  0.00    +0.003 C 
ATOM      6  C   UNL     1      -7.067   8.805  -0.161  0.00  0.00    +0.035 C 
ATOM      7  C   UNL     1      -5.696   8.151   0.013  0.00  0.00    +0.066 C 
ATOM      8  C   UNL     1      -5.029   8.667   1.290  0.00  0.00    +0.016 C 
ATOM      9  C   UNL     1      -3.637   8.043   1.415  0.00  0.00    -0.075 C 
ATOM     10  N   UNL     1      -2.827   8.423   0.237  0.00  0.00    +0.390 N 
ATOM     11  H   UNL     1      -2.802   9.447   0.168  0.00  0.00    -0.080 HD
ENDROOT
BRANCH   1  15
ATOM     12  C   UNL     1      -3.816   3.623  -0.715  0.00  0.00    +0.161 A 
ATOM     13  C   UNL     1      -3.255   4.341   0.329  0.00  0.00    +0.049 A 
ATOM     14  C   UNL     1      -3.127   5.715   0.233  0.00  0.00    +0.006 A 
ATOM     15  C   UNL     1      -3.568   6.375  -0.899  0.00  0.00    -0.057 A 
ATOM     16  C   UNL     1      -4.129   5.664  -1.944  0.00  0.00    +0.051 A 
ATOM     17  C   UNL     1      -4.254   4.287  -1.856  0.00  0.00    +0.162 A 
BRANCH  12  19
ATOM     18  C   UNL     1      -3.465   1.657   0.577  0.00  0.00    +0.277 C 
ATOM     19  O   UNL     1      -3.937   2.271  -0.624  0.00  0.00    -0.491 OA
ENDBRANCH  12  19
BRANCH  17  20
ATOM     20  O   UNL     1      -4.805   3.587  -2.884  0.00  0.00    -0.491 OA
ATOM     21  C   UNL     1      -5.233   4.335  -4.024  0.00  0.00    +0.277 C 
ENDBRANCH  17  20
ENDBRANCH   1  15
BRANCH   7  22
ATOM     22  O   UNL     1      -5.852   6.733   0.097  0.00  0.00    -0.388 OA
ATOM     23  H   UNL     1      -6.395   6.440   0.841  0.00  0.00    +0.210 HD
ENDBRANCH   7  22
BRANCH  10  24
ATOM     24  C   UNL     1      -1.447   7.919   0.391  0.00  0.00    +0.020 C 
BRANCH  24  25
ATOM     25  C   UNL     1      -0.714   8.812   1.358  0.00  0.00    +0.201 C 
ATOM     26  O   UNL     1      -1.255   9.805   1.796  0.00  0.00    -0.278 OA
ATOM     27  N   UNL     1       0.543   8.507   1.736  0.00  0.00    -0.287 N 
ATOM     28  H   UNL     1       1.007   7.762   1.322  0.00  0.00    +0.155 HD
BRANCH  27  29
ATOM     29  C   UNL     1       1.180   9.265   2.725  0.00  0.00    +0.033 A 
ATOM     30  C   UNL     1       2.100   8.667   3.576  0.00  0.00    +0.025 A 
ATOM     31  C   UNL     1       2.727   9.417   4.551  0.00  0.00    +0.022 A 
ATOM     32  C   UNL     1       2.439  10.765   4.681  0.00  0.00    +0.041 A 
ATOM     33  C   UNL     1       1.519  11.363   3.837  0.00  0.00    +0.022 A 
ATOM     34  C   UNL     1       0.894  10.618   2.857  0.00  0.00    +0.025 A 
ATOM     35 CL   UNL     1       3.229  11.705   5.908  0.00  0.00    -0.084 Cl
ENDBRANCH  27  29
ENDBRANCH  24  25
ENDBRANCH  10  24
TORSDOF 7
