REMARK  Name = ZINC44900885
REMARK  11 active torsions:
REMARK  status: ('A' for Active; 'I' for Inactive)
REMARK    1  A    between atoms: C_1  and  C_2
REMARK    2  A    between atoms: C_5  and  S_8
REMARK    3  A    between atoms: S_8  and  C_9
REMARK    4  A    between atoms: C_9  and  C_10
REMARK    5  A    between atoms: C_13  and  C_16
REMARK    6  A    between atoms: N_18  and  C_19
REMARK    7  A    between atoms: C_22  and  S_25
REMARK    8  A    between atoms: S_25  and  N_28
REMARK    9  A    between atoms: N_28  and  C_29
REMARK   10  A    between atoms: C_31  and  C_36
REMARK   11  A    between atoms: C_33  and  C_35
REMARK                            x       y       z     vdW  Elec       q    Type
REMARK                         _______ _______ _______ _____ _____    ______ ____
ROOT
ATOM      1  C   UNL     1       0.153 -10.711   2.254  0.00  0.00    +0.248 C 
ATOM      2  O   UNL     1      -0.891 -11.330   2.318  0.00  0.00    -0.270 OA
ATOM      3  N   UNL     1       1.329 -11.367   2.312  0.00  0.00    -0.282 N 
ATOM      4  H   UNL     1       2.161 -10.883   2.194  0.00  0.00    +0.155 HD
ENDROOT
BRANCH   1   8
ATOM      5  C   UNL     1       0.097  -6.484   1.849  0.00  0.00    -0.037 A 
ATOM      6  C   UNL     1      -1.093  -7.185   1.921  0.00  0.00    +0.005 A 
ATOM      7  C   UNL     1      -1.082  -8.558   2.052  0.00  0.00    +0.013 A 
ATOM      8  C   UNL     1       0.134  -9.240   2.113  0.00  0.00    +0.037 A 
ATOM      9  C   UNL     1       1.332  -8.527   2.040  0.00  0.00    +0.013 A 
ATOM     10  C   UNL     1       1.306  -7.154   1.903  0.00  0.00    +0.005 A 
BRANCH   5  11
ATOM     11  C   UNL     1       0.077  -4.984   1.705  0.00  0.00    +0.109 C 
BRANCH  11  12
ATOM     12  S   UNL     1       0.055  -4.545  -0.055  0.00  0.00    -0.121 S 
BRANCH  12  17
ATOM     13  C   UNL     1      -0.022   1.490  -0.055  0.00  0.00    +0.044 C 
ATOM     14  C   UNL     1      -0.003  -0.016  -0.055  0.00  0.00    -0.050 A 
ATOM     15  C   UNL     1      -0.005  -0.706  -1.254  0.00  0.00    +0.004 A 
ATOM     16  C   UNL     1       0.012  -2.087  -1.258  0.00  0.00    +0.015 A 
ATOM     17  C   UNL     1       0.033  -2.783  -0.055  0.00  0.00    +0.008 A 
ATOM     18  C   UNL     1       0.036  -2.087   1.148  0.00  0.00    +0.015 A 
ATOM     19  C   UNL     1       0.023  -0.706   1.144  0.00  0.00    +0.004 A 
ENDBRANCH  12  17
ENDBRANCH  11  12
ENDBRANCH   5  11
ENDBRANCH   1   8
BRANCH   3  20
ATOM     20  C   UNL     1       1.350 -12.746   2.543  0.00  0.00    +0.034 A 
ATOM     21  C   UNL     1       2.370 -13.310   3.299  0.00  0.00    +0.025 A 
ATOM     22  C   UNL     1       2.387 -14.672   3.526  0.00  0.00    +0.031 A 
ATOM     23  C   UNL     1       1.391 -15.475   3.001  0.00  0.00    +0.111 A 
ATOM     24  C   UNL     1       0.375 -14.917   2.247  0.00  0.00    +0.031 A 
ATOM     25  C   UNL     1       0.348 -13.555   2.022  0.00  0.00    +0.025 A 
BRANCH  23  26
ATOM     26  S   UNL     1       1.417 -17.212   3.292  0.00  0.00    +0.094 S 
ATOM     27  O   UNL     1       0.677 -17.812   2.238  0.00  0.00    -0.148 OA
ATOM     28  O   UNL     1       2.768 -17.558   3.566  0.00  0.00    -0.148 OA
BRANCH  26  29
ATOM     29  N   UNL     1       0.566 -17.489   4.685  0.00  0.00    -0.058 NA
BRANCH  29  30
ATOM     30  C   UNL     1       0.420 -18.779   5.162  0.00  0.00    +0.258 A 
ATOM     31  N   UNL     1       0.972 -19.782   4.495  0.00  0.00    -0.217 NA
ATOM     32  C   UNL     1       0.851 -21.028   4.924  0.00  0.00    +0.044 A 
ATOM     33  C   UNL     1       0.137 -21.276   6.086  0.00  0.00    +0.046 A 
ATOM     34  C   UNL     1      -0.427 -20.204   6.759  0.00  0.00    +0.044 A 
ATOM     35  N   UNL     1      -0.264 -18.983   6.279  0.00  0.00    -0.217 NA
ATOM     36  C   UNL     1      -1.212 -20.427   8.026  0.00  0.00    +0.066 C 
ATOM     37  C   UNL     1       1.482 -22.162   4.159  0.00  0.00    +0.066 C 
ENDBRANCH  29  30
ENDBRANCH  26  29
ENDBRANCH  23  26
ENDBRANCH   3  20
TORSDOF 8
