REMARK  Name = ZINC22827657
REMARK  10 active torsions:
REMARK  status: ('A' for Active; 'I' for Inactive)
REMARK    1  A    between atoms: C_1  and  C_2
REMARK    2  A    between atoms: C_3  and  C_19
REMARK    3  A    between atoms: C_4  and  C_11
REMARK    4  A    between atoms: N_9  and  C_10
REMARK    5  A    between atoms: C_15  and  C_17
REMARK    6  A    between atoms: N_21  and  C_22
REMARK    7  A    between atoms: C_24  and  O_30
REMARK    8  A    between atoms: C_27  and  O_28
REMARK    9  A    between atoms: O_28  and  C_29
REMARK   10  A    between atoms: O_30  and  C_31
REMARK                            x       y       z     vdW  Elec       q    Type
REMARK                         _______ _______ _______ _____ _____    ______ ____
ROOT
ATOM      1  C   UNL     1      -0.092   1.113  -0.325  0.00  0.00    +0.061 C 
ATOM      2  C   UNL     1      -0.079  -0.383  -0.141  0.00  0.00    +0.019 C 
ATOM      3  C   UNL     1      -1.248  -1.058  -0.112  0.00  0.00    +0.056 C 
ATOM      4  C   UNL     1      -1.190  -2.560   0.075  0.00  0.00    +0.139 C 
ATOM      5  N   UNL     1       0.146  -3.165   0.210  0.00  0.00    -0.315 N 
ATOM      6  C   UNL     1       1.224  -2.357   0.161  0.00  0.00    +0.137 C 
ATOM      7  S   UNL     1       2.783  -3.046   0.316  0.00  0.00    -0.018 S 
ATOM      8  N   UNL     1       1.114  -1.034  -0.012  0.00  0.00    -0.289 N 
ATOM      9  C   UNL     1       2.344  -0.239  -0.059  0.00  0.00    +0.137 C 
ATOM     10  H   UNL     1       0.248  -4.122   0.333  0.00  0.00    +0.149 HD
ENDROOT
BRANCH   4  11
ATOM     11  C   UNL     1      -1.872  -3.202  -1.105  0.00  0.00    -0.021 A 
ATOM     12  C   UNL     1      -1.207  -3.305  -2.315  0.00  0.00    +0.006 A 
ATOM     13  C   UNL     1      -1.826  -3.892  -3.404  0.00  0.00    +0.002 A 
ATOM     14  C   UNL     1      -3.111  -4.380  -3.291  0.00  0.00    +0.019 A 
ATOM     15  C   UNL     1      -3.788  -4.280  -2.073  0.00  0.00    +0.052 A 
ATOM     16  C   UNL     1      -3.155  -3.690  -0.977  0.00  0.00    +0.024 A 
BRANCH  15  17
ATOM     17  C   UNL     1      -5.122  -4.785  -1.948  0.00  0.00    +0.099 C 
ATOM     18  N   UNL     1      -6.181  -5.185  -1.849  0.00  0.00    -0.191 NA
ENDBRANCH  15  17
ENDBRANCH   4  11
BRANCH   3  19
ATOM     19  C   UNL     1      -2.486  -0.384  -0.250  0.00  0.00    +0.248 C 
ATOM     20  O   UNL     1      -3.193  -0.203   0.724  0.00  0.00    -0.270 OA
ATOM     21  N   UNL     1      -2.881   0.056  -1.461  0.00  0.00    -0.279 N 
ATOM     22  H   UNL     1      -2.353  -0.149  -2.248  0.00  0.00    +0.155 HD
BRANCH  21  23
ATOM     23  C   UNL     1      -4.056   0.810  -1.583  0.00  0.00    +0.079 A 
ATOM     24  C   UNL     1      -4.604   1.427  -0.468  0.00  0.00    +0.072 A 
ATOM     25  C   UNL     1      -5.766   2.172  -0.591  0.00  0.00    +0.122 A 
ATOM     26  C   UNL     1      -6.380   2.302  -1.828  0.00  0.00    +0.049 A 
ATOM     27  C   UNL     1      -5.835   1.689  -2.941  0.00  0.00    +0.051 A 
ATOM     28  C   UNL     1      -4.671   0.948  -2.825  0.00  0.00    +0.141 A 
BRANCH  28  29
ATOM     29  O   UNL     1      -4.133   0.349  -3.921  0.00  0.00    -0.493 OA
ATOM     30  C   UNL     1      -4.817   0.532  -5.162  0.00  0.00    +0.277 C 
ENDBRANCH  28  29
BRANCH  25  31
ATOM     31  O   UNL     1      -6.305   2.776   0.502  0.00  0.00    -0.495 OA
ATOM     32  C   UNL     1      -7.503   3.529   0.302  0.00  0.00    +0.277 C 
ENDBRANCH  25  31
ENDBRANCH  21  23
ENDBRANCH   3  19
TORSDOF 6
