REMARK  Name = ZINC63815318
REMARK  9 active torsions:
REMARK  status: ('A' for Active; 'I' for Inactive)
REMARK    1  A    between atoms: C_1  and  C_2
REMARK    2  A    between atoms: C_5  and  C_19
REMARK    3  A    between atoms: C_7  and  N_8
REMARK    4  A    between atoms: C_9  and  C_11
REMARK    5  A    between atoms: N_13  and  C_14
REMARK    6  A    between atoms: C_14  and  C_15
REMARK    7  A    between atoms: C_14  and  C_16
REMARK    8  A    between atoms: C_16  and  C_17
REMARK    9  A    between atoms: C_16  and  C_18
REMARK                            x       y       z     vdW  Elec       q    Type
REMARK                         _______ _______ _______ _____ _____    ______ ____
ROOT
ATOM      1  N   UNL     1       0.025  -0.009   2.416  0.00  0.00    -0.277 N 
ATOM      2  C   UNL     1      -0.057  -0.684   3.579  0.00  0.00    +0.303 C 
ATOM      3  O   UNL     1      -0.040  -1.898   3.579  0.00  0.00    -0.265 OA
ATOM      4  H   UNL     1       0.078   0.960   2.420  0.00  0.00    +0.155 HD
ENDROOT
BRANCH   1  11
ATOM      5  C   UNL     1      -1.267   1.183   0.183  0.00  0.00    +0.045 C 
ATOM      6  C   UNL     1      -0.587  -0.158   0.086  0.00  0.00    -0.029 A 
ATOM      7  C   UNL     1      -0.576  -0.839  -1.117  0.00  0.00    +0.006 A 
ATOM      8  C   UNL     1       0.044  -2.068  -1.215  0.00  0.00    +0.013 A 
ATOM      9  C   UNL     1       0.664  -2.627  -0.096  0.00  0.00    +0.038 A 
ATOM     10  C   UNL     1       0.655  -1.941   1.117  0.00  0.00    +0.036 A 
ATOM     11  C   UNL     1       0.033  -0.704   1.204  0.00  0.00    +0.037 A 
BRANCH   9  12
ATOM     12  C   UNL     1       1.329  -3.944  -0.198  0.00  0.00    +0.242 C 
ATOM     13  O   UNL     1       1.869  -4.429   0.777  0.00  0.00    -0.270 OA
ATOM     14  N   UNL     1       1.337  -4.606  -1.372  0.00  0.00    -0.325 N 
ATOM     15  H   UNL     1       0.906  -4.219  -2.150  0.00  0.00    +0.145 HD
ATOM     16  H   UNL     1       1.773  -5.470  -1.438  0.00  0.00    +0.145 HD
ENDBRANCH   9  12
ENDBRANCH   1  11
BRANCH   2  17
ATOM     17  C   UNL     1      -0.167   0.060   4.869  0.00  0.00    +0.300 C 
ATOM     18  O   UNL     1      -0.183   1.274   4.870  0.00  0.00    -0.265 OA
ATOM     19  N   UNL     1      -0.248  -0.615   6.033  0.00  0.00    -0.305 N 
ATOM     20  H   UNL     1      -0.235  -1.585   6.032  0.00  0.00    +0.149 HD
BRANCH  19  21
ATOM     21  C   UNL     1      -0.357   0.116   7.298  0.00  0.00    +0.073 C 
ATOM     22  C   UNL     1      -1.824   0.460   7.564  0.00  0.00    +0.028 C 
BRANCH  21  23
ATOM     23  C   UNL     1       0.178  -0.755   8.437  0.00  0.00    +0.003 C 
ATOM     24  C   UNL     1       1.645  -1.099   8.171  0.00  0.00    +0.009 C 
ATOM     25  C   UNL     1       0.065   0.008   9.758  0.00  0.00    +0.009 C 
ENDBRANCH  21  23
ENDBRANCH  19  21
ENDBRANCH   2  17
TORSDOF 5
