REMARK  Name = ZINC00685870
REMARK  10 active torsions:
REMARK  status: ('A' for Active; 'I' for Inactive)
REMARK    1  A    between atoms: C_1  and  C_2
REMARK    2  A    between atoms: C_5  and  N_9
REMARK    3  A    between atoms: C_6  and  C_8
REMARK    4  A    between atoms: C_10  and  C_12
REMARK    5  A    between atoms: C_13  and  C_31
REMARK    6  A    between atoms: C_14  and  C_27
REMARK    7  A    between atoms: C_15  and  N_17
REMARK    8  A    between atoms: C_18  and  C_20
REMARK    9  A    between atoms: C_27  and  O_29
REMARK   10  A    between atoms: O_29  and  C_30
REMARK                            x       y       z     vdW  Elec       q    Type
REMARK                         _______ _______ _______ _____ _____    ______ ____
ROOT
ATOM      1  C   UNL     1      -2.066   1.809   1.249  0.00  0.00    +0.080 A 
ATOM      2  C   UNL     1      -0.715   1.590   1.243  0.00  0.00    -0.015 A 
ATOM      3  C   UNL     1      -0.016   1.843   2.414  0.00  0.00    +0.091 A 
ATOM      4  C   UNL     1      -0.743   2.298   3.520  0.00  0.00    +0.087 A 
ATOM      5  S   UNL     1      -2.366   2.365   2.916  0.00  0.00    -0.068 S 
ATOM      6  C   UNL     1      -0.011   1.097   0.005  0.00  0.00    +0.046 C 
ENDROOT
BRANCH   1   8
ATOM      7  N   UNL     1      -4.331   1.899   0.359  0.00  0.00    -0.281 N 
ATOM      8  C   UNL     1      -3.026   1.629   0.159  0.00  0.00    +0.255 C 
ATOM      9  O   UNL     1      -2.646   1.234  -0.928  0.00  0.00    -0.269 OA
ATOM     10  H   UNL     1      -4.647   2.136   1.245  0.00  0.00    +0.155 HD
BRANCH   7  15
ATOM     11  C   UNL     1      -7.975   1.652  -3.982  0.00  0.00    +0.044 C 
ATOM     12  C   UNL     1      -7.007   1.718  -2.829  0.00  0.00    -0.050 A 
ATOM     13  C   UNL     1      -5.665   1.956  -3.067  0.00  0.00    +0.005 A 
ATOM     14  C   UNL     1      -4.776   2.016  -2.012  0.00  0.00    +0.024 A 
ATOM     15  C   UNL     1      -5.230   1.839  -0.711  0.00  0.00    +0.037 A 
ATOM     16  C   UNL     1      -6.577   1.595  -0.476  0.00  0.00    -0.029 A 
ATOM     17  C   UNL     1      -7.462   1.540  -1.535  0.00  0.00    +0.008 A 
ATOM     18  C   UNL     1      -7.072   1.397   0.933  0.00  0.00    +0.045 C 
ENDBRANCH   7  15
ENDBRANCH   1   8
BRANCH   4  19
ATOM     19  N   UNL     1      -0.281   2.616   4.781  0.00  0.00    -0.275 N 
ATOM     20  C   UNL     1      -1.141   3.043   5.726  0.00  0.00    +0.252 C 
ATOM     21  O   UNL     1      -2.324   3.147   5.469  0.00  0.00    -0.270 OA
ATOM     22  H   UNL     1       0.664   2.533   4.986  0.00  0.00    +0.156 HD
BRANCH  20  23
ATOM     23  C   UNL     1      -0.646   3.383   7.076  0.00  0.00    +0.074 A 
ATOM     24  C   UNL     1       0.714   3.262   7.387  0.00  0.00    +0.017 A 
ATOM     25  C   UNL     1       1.127   3.598   8.664  0.00  0.00    +0.021 A 
ATOM     26  C   UNL     1       0.191   4.029   9.588  0.00  0.00    +0.112 A 
ATOM     27  N   UNL     1      -1.085   4.130   9.269  0.00  0.00    -0.243 NA
ATOM     28  C   UNL     1      -1.528   3.826   8.065  0.00  0.00    +0.141 A 
ATOM     29 CL   UNL     1      -3.219   3.979   7.706  0.00  0.00    -0.061 Cl
ENDBRANCH  20  23
ENDBRANCH   4  19
BRANCH   3  30
ATOM     30  C   UNL     1       1.434   1.640   2.491  0.00  0.00    +0.342 C 
ATOM     31  O   UNL     1       2.191   2.551   2.215  0.00  0.00    -0.245 OA
BRANCH  30  32
ATOM     32  O   UNL     1       1.929   0.443   2.867  0.00  0.00    -0.464 OA
ATOM     33  C   UNL     1       3.374   0.314   2.921  0.00  0.00    +0.280 C 
ENDBRANCH  30  32
ENDBRANCH   3  30
TORSDOF 6
