REMARK  Name = ZINC39485917
REMARK  5 active torsions:
REMARK  status: ('A' for Active; 'I' for Inactive)
REMARK    1  A    between atoms: C_4  and  C_7
REMARK    2  A    between atoms: C_7  and  C_8
REMARK    3  A    between atoms: N_17  and  C_20
REMARK    4  A    between atoms: C_20  and  C_21
REMARK    5  A    between atoms: C_26  and  C_27
REMARK                            x       y       z     vdW  Elec       q    Type
REMARK                         _______ _______ _______ _____ _____    ______ ____
ROOT
ATOM      1  C   UNL     1       4.336  -0.744   0.767  0.00  0.00    +0.022 C 
ATOM      2  N   UNL     1       4.566   0.572   1.414  0.00  0.00    -0.271 NA
ATOM      3  N   UNL     1       5.646   0.321   2.384  0.00  0.00    -0.272 NA
ATOM      4  C   UNL     1       6.503  -0.667   1.673  0.00  0.00    +0.019 C 
ATOM      5  N   UNL     1       5.596  -1.501   0.939  0.00  0.00    +0.403 N 
ATOM      6  C   UNL     1       6.019  -2.072  -0.338  0.00  0.00    -0.059 C 
ATOM      7  C   UNL     1       7.465  -2.626  -0.219  0.00  0.00    +0.066 C 
ATOM      8  N   UNL     1       7.650  -3.272   1.057  0.00  0.00    -0.303 NA
ATOM      9  C   UNL     1       8.261  -2.342   2.011  0.00  0.00    +0.084 C 
ATOM     10  C   UNL     1       7.292  -1.477   2.719  0.00  0.00    +0.016 C 
ATOM     11  H   UNL     1       3.731   0.897   1.879  0.00  0.00    +0.139 HD
ATOM     12  H   UNL     1       5.281  -0.067   3.241  0.00  0.00    +0.139 HD
ATOM     13  H   UNL     1       5.375  -2.283   1.537  0.00  0.00    -0.077 HD
ENDROOT
BRANCH   1  14
ATOM     14  C   UNL     1       4.031  -0.556  -0.720  0.00  0.00    +0.036 C 
BRANCH  14  18
ATOM     15  C   UNL     1       0.431   1.700  -1.164  0.00  0.00    +0.000 A 
ATOM     16  C   UNL     1       1.649   2.349  -1.093  0.00  0.00    +0.000 A 
ATOM     17  C   UNL     1       2.814   1.619  -0.949  0.00  0.00    +0.003 A 
ATOM     18  C   UNL     1       2.761   0.240  -0.876  0.00  0.00    -0.048 A 
ATOM     19  C   UNL     1       1.543  -0.409  -0.946  0.00  0.00    +0.003 A 
ATOM     20  C   UNL     1       0.378   0.321  -1.091  0.00  0.00    +0.000 A 
ENDBRANCH  14  18
ENDBRANCH   1  14
BRANCH   8  21
ATOM     21  C   UNL     1       8.459  -4.490   0.917  0.00  0.00    +0.099 C 
BRANCH  21  22
ATOM     22  C   UNL     1       7.604  -5.604   0.310  0.00  0.00    +0.097 C 
ATOM     23  C   UNL     1       6.566  -6.084   1.306  0.00  0.00    +0.118 C 
ATOM     24  N   UNL     1       6.824  -7.333   1.519  0.00  0.00    -0.161 NA
ATOM     25  N   UNL     1       7.920  -7.783   0.789  0.00  0.00    -0.153 NA
ATOM     26  C   UNL     1       8.443  -6.840   0.049  0.00  0.00    +0.080 C 
BRANCH  26  27
ATOM     27  C   UNL     1       9.602  -6.952  -0.850  0.00  0.00    -0.001 A 
ATOM     28  C   UNL     1      10.042  -5.837  -1.572  0.00  0.00    +0.011 A 
ATOM     29  C   UNL     1      11.129  -5.949  -2.411  0.00  0.00    +0.020 A 
ATOM     30  C   UNL     1      11.787  -7.162  -2.541  0.00  0.00    +0.041 A 
ATOM     31  C   UNL     1      11.356  -8.270  -1.829  0.00  0.00    +0.020 A 
ATOM     32  C   UNL     1      10.274  -8.171  -0.982  0.00  0.00    +0.011 A 
ATOM     33 CL   UNL     1      13.155  -7.293  -3.601  0.00  0.00    -0.084 Cl
ENDBRANCH  26  27
ENDBRANCH  21  22
ENDBRANCH   8  21
TORSDOF 5
