REMARK  Name = ZINC36599008
REMARK  15 active torsions:
REMARK  status: ('A' for Active; 'I' for Inactive)
REMARK    1  A    between atoms: C_1  and  C_2
REMARK    2  A    between atoms: C_5  and  C_7
REMARK    3  A    between atoms: C_7  and  N_8
REMARK    4  A    between atoms: N_8  and  C_9
REMARK    5  A    between atoms: C_9  and  C_11
REMARK    6  A    between atoms: C_9  and  C_18
REMARK    7  A    between atoms: C_16  and  O_17
REMARK    8  A    between atoms: N_20  and  C_21
REMARK    9  A    between atoms: C_21  and  C_22
REMARK   10  A    between atoms: C_21  and  C_23
REMARK   11  A    between atoms: C_21  and  C_24
REMARK   12  A    between atoms: C_25  and  C_27
REMARK   13  A    between atoms: C_27  and  C_28
REMARK   14  A    between atoms: C_27  and  C_34
REMARK   15  A    between atoms: C_27  and  O_40
REMARK                            x       y       z     vdW  Elec       q    Type
REMARK                         _______ _______ _______ _____ _____    ______ ____
ROOT
ATOM      1  N   UNL     1       1.232  -2.310  -2.000  0.00  0.00    -0.276 N 
ATOM      2  C   UNL     1       0.613  -3.296  -2.679  0.00  0.00    +0.258 C 
ATOM      3  O   UNL     1       0.897  -3.505  -3.839  0.00  0.00    -0.272 OA
ENDROOT
BRANCH   1   4
ATOM      4  C   UNL     1       1.000  -2.152  -0.562  0.00  0.00    +0.183 C 
BRANCH   4   9
ATOM      5  C   UNL     1      -1.344   2.312  -0.449  0.00  0.00    +0.086 C 
ATOM      6  C   UNL     1      -1.077   0.838  -0.286  0.00  0.00    +0.102 A 
ATOM      7  C   UNL     1      -1.936  -0.066   0.218  0.00  0.00    +0.045 A 
ATOM      8  C   UNL     1      -1.279  -1.317   0.186  0.00  0.00    +0.046 A 
ATOM      9  C   UNL     1      -0.058  -1.103  -0.336  0.00  0.00    +0.122 A 
ATOM     10  O   UNL     1       0.057   0.203  -0.625  0.00  0.00    -0.463 OA
ENDBRANCH   4   9
ENDBRANCH   1   4
BRANCH   1  11
ATOM     11  C   UNL     1       2.136  -1.395  -2.701  0.00  0.00    +0.196 C 
BRANCH  11  12
ATOM     12  C   UNL     1       3.394  -2.130  -3.087  0.00  0.00    +0.023 A 
ATOM     13  C   UNL     1       3.375  -3.503  -3.233  0.00  0.00    +0.009 A 
ATOM     14  C   UNL     1       4.528  -4.178  -3.587  0.00  0.00    +0.001 A 
ATOM     15  C   UNL     1       5.704  -3.480  -3.796  0.00  0.00    +0.004 A 
ATOM     16  C   UNL     1       5.728  -2.107  -3.652  0.00  0.00    +0.046 A 
ATOM     17  C   UNL     1       4.570  -1.427  -3.302  0.00  0.00    +0.122 A 
BRANCH  17  18
ATOM     18  O   UNL     1       4.590  -0.075  -3.165  0.00  0.00    -0.506 OA
ATOM     19  H   UNL     1       4.805   0.227  -2.271  0.00  0.00    +0.292 HD
ENDBRANCH  17  18
ENDBRANCH  11  12
BRANCH  11  20
ATOM     20  C   UNL     1       1.459  -0.871  -3.941  0.00  0.00    +0.239 C 
ATOM     21  O   UNL     1       0.332  -1.227  -4.213  0.00  0.00    -0.273 OA
ATOM     22  N   UNL     1       2.106  -0.007  -4.749  0.00  0.00    -0.309 N 
ATOM     23  H   UNL     1       3.007   0.278  -4.531  0.00  0.00    +0.149 HD
BRANCH  22  24
ATOM     24  C   UNL     1       1.448   0.502  -5.954  0.00  0.00    +0.026 C 
ATOM     25  C   UNL     1       0.171   1.248  -5.562  0.00  0.00    +0.031 C 
ATOM     26  C   UNL     1       2.392   1.457  -6.686  0.00  0.00    +0.031 C 
ATOM     27  C   UNL     1       1.093  -0.668  -6.874  0.00  0.00    +0.031 C 
ENDBRANCH  22  24
ENDBRANCH  11  20
ENDBRANCH   1  11
BRANCH   2  28
ATOM     28  C   UNL     1      -0.433  -4.140  -1.995  0.00  0.00    +0.192 C 
BRANCH  28  29
ATOM     29  C   UNL     1      -1.225  -4.895  -3.031  0.00  0.00    -0.003 A 
ATOM     30  C   UNL     1      -0.602  -5.839  -3.825  0.00  0.00    +0.007 A 
ATOM     31  C   UNL     1      -1.329  -6.531  -4.776  0.00  0.00    +0.000 A 
ATOM     32  C   UNL     1      -2.679  -6.280  -4.931  0.00  0.00    +0.000 A 
ATOM     33  C   UNL     1      -3.303  -5.337  -4.136  0.00  0.00    +0.000 A 
ATOM     34  C   UNL     1      -2.576  -4.647  -3.183  0.00  0.00    +0.007 A 
ENDBRANCH  28  29
BRANCH  28  35
ATOM     35  C   UNL     1       0.240  -5.117  -1.066  0.00  0.00    -0.003 A 
ATOM     36  C   UNL     1       1.509  -5.584  -1.354  0.00  0.00    +0.007 A 
ATOM     37  C   UNL     1       2.125  -6.481  -0.502  0.00  0.00    +0.000 A 
ATOM     38  C   UNL     1       1.473  -6.911   0.639  0.00  0.00    +0.000 A 
ATOM     39  C   UNL     1       0.204  -6.444   0.927  0.00  0.00    +0.000 A 
ATOM     40  C   UNL     1      -0.410  -5.544   0.077  0.00  0.00    +0.007 A 
ENDBRANCH  28  35
BRANCH  28  41
ATOM     41  O   UNL     1      -1.310  -3.297  -1.246  0.00  0.00    -0.371 OA
ATOM     42  H   UNL     1      -1.832  -2.690  -1.789  0.00  0.00    +0.212 HD
ENDBRANCH  28  41
ENDBRANCH   2  28
TORSDOF 11
