REMARK  Name = ZINC36185372
REMARK  7 active torsions:
REMARK  status: ('A' for Active; 'I' for Inactive)
REMARK    1  A    between atoms: C_1  and  C_2
REMARK    2  A    between atoms: C_2  and  C_3
REMARK    3  A    between atoms: C_2  and  C_4
REMARK    4  A    between atoms: C_2  and  C_5
REMARK    5  A    between atoms: C_8  and  C_11
REMARK    6  A    between atoms: N_13  and  N_14
REMARK    7  A    between atoms: C_15  and  C_17
REMARK                            x       y       z     vdW  Elec       q    Type
REMARK                         _______ _______ _______ _____ _____    ______ ____
ROOT
ATOM      1  C   UNL     1       6.628  -2.119  -7.566  0.00  0.00    +0.239 C 
ATOM      2  C   UNL     1       6.765  -3.622  -7.517  0.00  0.00    +0.191 C 
ATOM      3  C   UNL     1       7.525  -4.109  -8.791  0.00  0.00    +0.187 C 
ATOM      4  C   UNL     1       8.904  -3.526  -8.655  0.00  0.00    +0.209 C 
ATOM      5  C   UNL     1       8.689  -1.984  -8.741  0.00  0.00    +0.286 C 
ATOM      6  O   UNL     1       7.956  -1.540  -7.632  0.00  0.00    -0.333 OA
ATOM      7  O   UNL     1      10.006  -1.506  -8.955  0.00  0.00    -0.317 OA
ATOM      8  C   UNL     1      10.698  -2.573  -9.636  0.00  0.00    +0.174 C 
ATOM      9  O   UNL     1       9.815  -3.725  -9.740  0.00  0.00    -0.338 OA
ATOM     10  C   UNL     1      11.931  -2.976  -8.830  0.00  0.00    +0.065 C 
ATOM     11  C   UNL     1      12.883  -1.783  -8.720  0.00  0.00    +0.005 C 
ATOM     12  C   UNL     1      13.301  -1.335 -10.122  0.00  0.00    +0.000 C 
ATOM     13  C   UNL     1      12.062  -0.919 -10.917  0.00  0.00    +0.005 C 
ATOM     14  C   UNL     1      11.107  -2.109 -11.032  0.00  0.00    +0.065 C 
ATOM     15  O   UNL     1       7.352  -5.517  -8.698  0.00  0.00    -0.340 OA
ATOM     16  C   UNL     1       6.097  -5.709  -8.010  0.00  0.00    +0.171 C 
ATOM     17  O   UNL     1       5.588  -4.418  -7.617  0.00  0.00    -0.340 OA
ATOM     18  C   UNL     1       6.322  -6.578  -6.775  0.00  0.00    +0.065 C 
ATOM     19  C   UNL     1       6.850  -7.949  -7.205  0.00  0.00    +0.005 C 
ATOM     20  C   UNL     1       5.834  -8.617  -8.133  0.00  0.00    +0.000 C 
ATOM     21  C   UNL     1       5.625  -7.746  -9.374  0.00  0.00    +0.005 C 
ATOM     22  C   UNL     1       5.095  -6.374  -8.950  0.00  0.00    +0.065 C 
ENDROOT
BRANCH   1  24
ATOM     23  N   UNL     1       4.637  -1.973  -6.106  0.00  0.00    -0.232 N 
ATOM     24  C   UNL     1       5.922  -1.633  -6.327  0.00  0.00    +0.261 C 
ATOM     25  O   UNL     1       6.511  -0.936  -5.528  0.00  0.00    -0.271 OA
ATOM     26  H   UNL     1       4.166  -2.530  -6.745  0.00  0.00    +0.173 HD
BRANCH  23  29
ATOM     27  C   UNL     1       2.696  -1.860  -4.732  0.00  0.00    +0.260 C 
ATOM     28  O   UNL     1       2.106  -2.559  -5.533  0.00  0.00    -0.269 OA
ATOM     29  N   UNL     1       3.981  -1.521  -4.953  0.00  0.00    -0.230 N 
ATOM     30  H   UNL     1       4.452  -0.963  -4.314  0.00  0.00    +0.173 HD
BRANCH  27  34
ATOM     31  C   UNL     1       0.707  -0.490  -1.238  0.00  0.00    -0.042 A 
ATOM     32  C   UNL     1       0.033  -1.285  -2.147  0.00  0.00    +0.005 A 
ATOM     33  C   UNL     1       0.672  -1.733  -3.284  0.00  0.00    +0.013 A 
ATOM     34  C   UNL     1       2.004  -1.383  -3.516  0.00  0.00    +0.038 A 
ATOM     35  C   UNL     1       2.679  -0.581  -2.595  0.00  0.00    +0.013 A 
ATOM     36  C   UNL     1       2.025  -0.135  -1.464  0.00  0.00    +0.005 A 
BRANCH  31  38
ATOM     37  C   UNL     1      -0.019   1.526   0.010  0.00  0.00    +0.015 C 
ATOM     38  C   UNL     1       0.002  -0.004   0.002  0.00  0.00    -0.013 C 
ATOM     39  C   UNL     1       0.742  -0.511   1.242  0.00  0.00    +0.015 C 
ATOM     40  C   UNL     1      -1.433  -0.534   0.013  0.00  0.00    +0.015 C 
ENDBRANCH  31  38
ENDBRANCH  27  34
ENDBRANCH  23  29
ENDBRANCH   1  24
TORSDOF 4
