REMARK  Name = ZINC04697941
REMARK  8 active torsions:
REMARK  status: ('A' for Active; 'I' for Inactive)
REMARK    1  A    between atoms: C_1  and  C_2
REMARK    2  A    between atoms: C_3  and  C_24
REMARK    3  A    between atoms: C_7  and  C_15
REMARK    4  A    between atoms: C_9  and  C_13
REMARK    5  A    between atoms: C_10  and  N_12
REMARK    6  A    between atoms: C_19  and  N_21
REMARK    7  A    between atoms: C_24  and  O_26
REMARK    8  A    between atoms: O_26  and  C_27
REMARK                            x       y       z     vdW  Elec       q    Type
REMARK                         _______ _______ _______ _____ _____    ______ ____
ROOT
ATOM      1  C   UNL     1       3.006  -1.385   5.021  0.00  0.00    +0.052 C 
ATOM      2  C   UNL     1       2.837  -0.995   3.575  0.00  0.00    +0.005 A 
ATOM      3  C   UNL     1       2.630  -1.817   2.485  0.00  0.00    +0.111 A 
ATOM      4  C   UNL     1       2.496  -1.189   1.185  0.00  0.00    +0.155 A 
ATOM      5  C   UNL     1       2.592   0.166   1.187  0.00  0.00    +0.046 A 
ATOM      6  S   UNL     1       2.854   0.594   2.881  0.00  0.00    -0.093 S 
ATOM      7  C   UNL     1       2.490   1.048  -0.016  0.00  0.00    +0.105 C 
ATOM      8  C   UNL     1       2.570   0.168  -1.243  0.00  0.00    +0.098 C 
ATOM      9  C   UNL     1       2.466  -1.178  -1.149  0.00  0.00    +0.199 C 
ATOM     10  O   UNL     1       2.287  -1.853  -0.001  0.00  0.00    -0.440 OA
ENDROOT
BRANCH   7  11
ATOM     11  C   UNL     1       1.175   1.783   0.000  0.00  0.00    -0.032 A 
ATOM     12  C   UNL     1      -0.013   1.076   0.008  0.00  0.00    +0.005 A 
ATOM     13  C   UNL     1      -1.219   1.750   0.017  0.00  0.00    +0.003 A 
ATOM     14  C   UNL     1      -1.238   3.133   0.029  0.00  0.00    +0.033 A 
ATOM     15  C   UNL     1      -0.050   3.840   0.023  0.00  0.00    +0.126 A 
ATOM     16  C   UNL     1       1.157   3.165   0.008  0.00  0.00    +0.037 A 
BRANCH  15  17
ATOM     17  N   UNL     1      -0.070   5.320   0.032  0.00  0.00    +0.056 N 
ATOM     18  O   UNL     1       0.976   5.944   0.026  0.00  0.00    -0.126 OA
ATOM     19  O   UNL     1      -1.133   5.915   0.045  0.00  0.00    -0.126 OA
ENDBRANCH  15  17
ENDBRANCH   7  11
BRANCH   9  20
ATOM     20  N   UNL     1       2.550  -1.906  -2.309  0.00  0.00    -0.328 N 
ATOM     21  H   UNL     1       2.480  -2.873  -2.281  0.00  0.00    +0.145 HD
ATOM     22  H   UNL     1       2.679  -1.454  -3.158  0.00  0.00    +0.145 HD
ENDBRANCH   9  20
BRANCH   8  23
ATOM     23  C   UNL     1       2.759   0.772  -2.528  0.00  0.00    +0.101 C 
ATOM     24  N   UNL     1       2.908   1.250  -3.547  0.00  0.00    -0.191 NA
ENDBRANCH   8  23
BRANCH   3  25
ATOM     25  C   UNL     1       2.547  -3.276   2.637  0.00  0.00    +0.343 C 
ATOM     26  O   UNL     1       3.553  -3.953   2.557  0.00  0.00    -0.245 OA
BRANCH  25  27
ATOM     27  O   UNL     1       1.355  -3.864   2.865  0.00  0.00    -0.464 OA
ATOM     28  C   UNL     1       1.349  -5.309   3.005  0.00  0.00    +0.280 C 
ENDBRANCH  25  27
ENDBRANCH   3  25
TORSDOF 6
