REMARK  Name = ZINC00987536
REMARK  8 active torsions:
REMARK  status: ('A' for Active; 'I' for Inactive)
REMARK    1  A    between atoms: C_1  and  C_2
REMARK    2  A    between atoms: C_2  and  C_3
REMARK    3  A    between atoms: C_10  and  N_30
REMARK    4  A    between atoms: C_11  and  C_28
REMARK    5  A    between atoms: C_12  and  C_14
REMARK    6  A    between atoms: C_18  and  O_20
REMARK    7  A    between atoms: O_20  and  C_21
REMARK    8  A    between atoms: C_21  and  C_22
REMARK                            x       y       z     vdW  Elec       q    Type
REMARK                         _______ _______ _______ _____ _____    ______ ____
ROOT
ATOM      1  C   UNL     1      -2.733  10.097  -4.649  0.00  0.00    +0.070 A 
ATOM      2  C   UNL     1      -1.414  10.505  -4.507  0.00  0.00    +0.049 A 
ATOM      3  C   UNL     1      -1.384  11.870  -4.557  0.00  0.00    +0.222 A 
ATOM      4  N   UNL     1      -2.646  12.298  -4.723  0.00  0.00    -0.246 N 
ATOM      5  H   UNL     1      -2.940  13.251  -4.795  0.00  0.00    +0.192 HD
ATOM      6  N   UNL     1      -3.479  11.169  -4.779  0.00  0.00    -0.176 NA
ATOM      7  O   UNL     1      -0.234  12.582  -4.451  0.00  0.00    -0.423 OA
ATOM      8  C   UNL     1       0.929  11.910  -4.568  0.00  0.00    +0.200 C 
ATOM      9  C   UNL     1       1.028  10.563  -4.521  0.00  0.00    +0.098 C 
ATOM     10  C   UNL     1      -0.172   9.670  -4.326  0.00  0.00    +0.101 C 
ENDROOT
BRANCH  10  11
ATOM     11  C   UNL     1      -0.150   9.086  -2.937  0.00  0.00    -0.031 A 
ATOM     12  C   UNL     1      -0.151   9.922  -1.836  0.00  0.00    +0.005 A 
ATOM     13  C   UNL     1      -0.131   9.389  -0.560  0.00  0.00    +0.004 A 
ATOM     14  C   UNL     1      -0.111   8.018  -0.383  0.00  0.00    +0.045 A 
ATOM     15  C   UNL     1      -0.110   7.178  -1.487  0.00  0.00    +0.121 A 
ATOM     16  C   UNL     1      -0.124   7.715  -2.766  0.00  0.00    +0.050 A 
BRANCH  15  17
ATOM     17  O   UNL     1      -0.090   5.830  -1.315  0.00  0.00    -0.487 OA
BRANCH  17  18
ATOM     18  C   UNL     1      -0.070   5.347   0.030  0.00  0.00    +0.264 C 
BRANCH  18  19
ATOM     19  C   UNL     1      -0.050   3.840   0.022  0.00  0.00    -0.010 A 
ATOM     20  C   UNL     1       1.156   3.165   0.008  0.00  0.00    +0.007 A 
ATOM     21  C   UNL     1       1.175   1.783   0.000  0.00  0.00    +0.000 A 
ATOM     22  C   UNL     1      -0.013   1.076   0.008  0.00  0.00    +0.000 A 
ATOM     23  C   UNL     1      -1.219   1.751   0.017  0.00  0.00    +0.000 A 
ATOM     24  C   UNL     1      -1.238   3.133   0.030  0.00  0.00    +0.007 A 
ENDBRANCH  18  19
ENDBRANCH  17  18
ENDBRANCH  15  17
ENDBRANCH  10  11
BRANCH   8  25
ATOM     25  N   UNL     1       2.080  12.637  -4.745  0.00  0.00    -0.328 N 
ATOM     26  H   UNL     1       2.041  13.606  -4.782  0.00  0.00    +0.145 HD
ATOM     27  H   UNL     1       2.932  12.182  -4.832  0.00  0.00    +0.145 HD
ENDBRANCH   8  25
BRANCH   1  29
ATOM     28  C   UNL     1      -3.561   8.245  -3.223  0.00  0.00    +0.010 C 
ATOM     29  C   UNL     1      -3.224   8.673  -4.653  0.00  0.00    +0.054 C 
ENDBRANCH   1  29
BRANCH   9  30
ATOM     30  C   UNL     1       2.320   9.962  -4.662  0.00  0.00    +0.101 C 
ATOM     31  N   UNL     1       3.345   9.484  -4.774  0.00  0.00    -0.191 NA
ENDBRANCH   9  30
TORSDOF 7
