REMARK  Name = ZINC04259838
REMARK  9 active torsions:
REMARK  status: ('A' for Active; 'I' for Inactive)
REMARK    1  A    between atoms: C_1  and  C_2
REMARK    2  A    between atoms: C_2  and  O_3
REMARK    3  A    between atoms: O_3  and  C_4
REMARK    4  A    between atoms: C_4  and  C_6
REMARK    5  A    between atoms: C_10  and  N_11
REMARK    6  A    between atoms: C_12  and  C_14
REMARK    7  A    between atoms: N_16  and  N_17
REMARK    8  A    between atoms: C_18  and  C_19
REMARK    9  A    between atoms: C_27  and  C_31
REMARK                            x       y       z     vdW  Elec       q    Type
REMARK                         _______ _______ _______ _____ _____    ______ ____
ROOT
ATOM      1  N   UNL     1       4.828   9.418   0.005  0.00  0.00    -0.271 N 
ATOM      2  C   UNL     1       4.851   8.071  -0.002  0.00  0.00    +0.305 C 
ATOM      3  O   UNL     1       5.912   7.482  -0.016  0.00  0.00    -0.265 OA
ATOM      4  H   UNL     1       3.980   9.889   0.016  0.00  0.00    +0.156 HD
ENDROOT
BRANCH   1   9
ATOM      5  C   UNL     1       6.194  11.508   0.003  0.00  0.00    +0.091 A 
ATOM      6  C   UNL     1       7.558  12.006  -0.007  0.00  0.00    -0.021 A 
ATOM      7  C   UNL     1       8.518  11.055  -0.022  0.00  0.00    -0.004 A 
ATOM      8  S   UNL     1       7.636   9.521  -0.015  0.00  0.00    -0.077 S 
ATOM      9  C   UNL     1       6.014  10.130  -0.003  0.00  0.00    +0.087 A 
ATOM     10  C   UNL     1      10.001  11.269  -0.035  0.00  0.00    +0.046 C 
ATOM     11  C   UNL     1      10.275  12.733  -0.408  0.00  0.00    -0.009 C 
ATOM     12  C   UNL     1       9.377  13.635   0.442  0.00  0.00    +0.008 C 
ATOM     13  C   UNL     1       7.920  13.486  -0.002  0.00  0.00    +0.037 C 
ATOM     14  C   UNL     1      11.744  13.064  -0.137  0.00  0.00    +0.008 C 
BRANCH   5  15
ATOM     15  C   UNL     1       5.051  12.424   0.019  0.00  0.00    +0.342 C 
ATOM     16  O   UNL     1       4.586  12.798   1.079  0.00  0.00    -0.245 OA
BRANCH  15  17
ATOM     17  O   UNL     1       4.513  12.852  -1.142  0.00  0.00    -0.461 OA
BRANCH  17  19
ATOM     18  C   UNL     1       2.912  14.132  -2.457  0.00  0.00    +0.048 C 
ATOM     19  C   UNL     1       3.382  13.758  -1.050  0.00  0.00    +0.229 C 
ENDBRANCH  17  19
ENDBRANCH  15  17
ENDBRANCH   5  15
ENDBRANCH   1   9
BRANCH   2  20
ATOM     20  C   UNL     1       3.573   7.303   0.006  0.00  0.00    +0.318 C 
ATOM     21  O   UNL     1       2.511   7.892   0.020  0.00  0.00    -0.263 OA
ATOM     22  N   UNL     1       3.596   5.956  -0.001  0.00  0.00    -0.199 N 
ATOM     23  H   UNL     1       4.444   5.485  -0.012  0.00  0.00    +0.178 HD
BRANCH  22  24
ATOM     24  N   UNL     1       2.395   5.234   0.007  0.00  0.00    -0.187 NA
ATOM     25  C   UNL     1       2.417   3.936  -0.000  0.00  0.00    +0.138 C 
BRANCH  25  26
ATOM     26  C   UNL     1       1.153   3.177   0.008  0.00  0.00    -0.004 A 
ATOM     27  C   UNL     1       1.173   1.780   0.000  0.00  0.00    +0.009 A 
ATOM     28  C   UNL     1      -0.013   1.076   0.008  0.00  0.00    +0.002 A 
ATOM     29  C   UNL     1      -1.221   1.750   0.017  0.00  0.00    +0.020 A 
ATOM     30  C   UNL     1      -1.250   3.134   0.031  0.00  0.00    +0.042 A 
ATOM     31  C   UNL     1      -0.070   3.851   0.023  0.00  0.00    +0.029 A 
ATOM     32 CL   UNL     1      -2.771   3.969   0.049  0.00  0.00    -0.084 Cl
ENDBRANCH  25  26
ENDBRANCH  22  24
ENDBRANCH   2  20
TORSDOF 7
