REMARK  Name = ZINC24832981
REMARK  9 active torsions:
REMARK  status: ('A' for Active; 'I' for Inactive)
REMARK    1  A    between atoms: C_1  and  C_2
REMARK    2  A    between atoms: C_5  and  N_9
REMARK    3  A    between atoms: C_6  and  C_8
REMARK    4  A    between atoms: C_10  and  C_25
REMARK    5  A    between atoms: C_13  and  S_14
REMARK    6  A    between atoms: S_14  and  C_15
REMARK    7  A    between atoms: C_15  and  C_16
REMARK    8  A    between atoms: N_21  and  C_22
REMARK    9  A    between atoms: C_25  and  C_26
REMARK                            x       y       z     vdW  Elec       q    Type
REMARK                         _______ _______ _______ _____ _____    ______ ____
ROOT
ATOM      1  N   UNL     1       3.586   2.125  -0.020  0.00  0.00    -0.274 N 
ATOM      2  C   UNL     1       4.308   2.542   1.067  0.00  0.00    +0.143 A 
ATOM      3  N   UNL     1       5.358   3.171   0.617  0.00  0.00    -0.133 NA
ATOM      4  N   UNL     1       5.350   3.180  -0.668  0.00  0.00    -0.122 NA
ATOM      5  C   UNL     1       4.290   2.548  -1.115  0.00  0.00    +0.197 A 
ENDROOT
BRANCH   1  10
ATOM      6  C   UNL     1      -1.294  -0.774   0.010  0.00  0.00    +0.044 C 
ATOM      7  C   UNL     1       0.002  -0.004   0.002  0.00  0.00    -0.050 A 
ATOM      8  C   UNL     1      -0.017   1.379   0.010  0.00  0.00    +0.005 A 
ATOM      9  C   UNL     1       1.169   2.087   0.002  0.00  0.00    +0.027 A 
ATOM     10  C   UNL     1       2.381   1.409  -0.013  0.00  0.00    +0.053 A 
ATOM     11  C   UNL     1       2.396   0.021  -0.020  0.00  0.00    -0.026 A 
ATOM     12  C   UNL     1       1.207  -0.682  -0.013  0.00  0.00    +0.008 A 
ATOM     13  C   UNL     1       3.709  -0.718  -0.037  0.00  0.00    +0.046 C 
ENDBRANCH   1  10
BRANCH   5  14
ATOM     14  S   UNL     1       3.853   2.296  -2.803  0.00  0.00    -0.076 S 
BRANCH  14  15
ATOM     15  C   UNL     1       5.242   3.126  -3.614  0.00  0.00    +0.173 C 
BRANCH  15  16
ATOM     16  C   UNL     1       5.077   3.035  -5.109  0.00  0.00    +0.231 C 
ATOM     17  O   UNL     1       4.116   2.466  -5.580  0.00  0.00    -0.274 OA
ATOM     18  N   UNL     1       5.999   3.586  -5.924  0.00  0.00    -0.239 N 
ATOM     19  C   UNL     1       5.852   3.505  -7.261  0.00  0.00    +0.306 C 
ATOM     20  O   UNL     1       4.888   2.935  -7.733  0.00  0.00    -0.252 OA
ATOM     21  N   UNL     1       6.774   4.056  -8.075  0.00  0.00    -0.296 N 
ATOM     22  H   UNL     1       6.872   4.103  -5.497  0.00  0.00    +0.159 HD
ATOM     23  H   UNL     1       7.646   4.573  -7.648  0.00  0.00    +0.151 HD
BRANCH  21  24
ATOM     24  C   UNL     1       6.614   3.968  -9.529  0.00  0.00    +0.075 C 
ATOM     25  C   UNL     1       7.852   3.616 -10.355  0.00  0.00    +0.024 C 
ATOM     26  C   UNL     1       7.294   5.041 -10.381  0.00  0.00    +0.024 C 
ENDBRANCH  21  24
ENDBRANCH  15  16
ENDBRANCH  14  15
ENDBRANCH   5  14
BRANCH   2  27
ATOM     27  C   UNL     1       3.955   2.316   2.514  0.00  0.00    +0.112 C 
BRANCH  27  28
ATOM     28  C   UNL     1       4.563   1.020   2.983  0.00  0.00    -0.032 A 
ATOM     29  C   UNL     1       3.827  -0.126   2.968  0.00  0.00    +0.004 A 
ATOM     30  C   UNL     1       4.374  -1.335   3.392  0.00  0.00    +0.001 A 
ATOM     31  C   UNL     1       5.656  -1.404   3.844  0.00  0.00    +0.008 A 
ATOM     32  C   UNL     1       6.444  -0.242   3.880  0.00  0.00    -0.018 A 
ATOM     33  C   UNL     1       5.890   0.987   3.443  0.00  0.00    -0.014 A 
ATOM     34  C   UNL     1       6.678   2.150   3.480  0.00  0.00    +0.009 A 
ATOM     35  C   UNL     1       7.960   2.081   3.933  0.00  0.00    +0.001 A 
ATOM     36  C   UNL     1       8.505   0.872   4.363  0.00  0.00    +0.001 A 
ATOM     37  C   UNL     1       7.771  -0.274   4.342  0.00  0.00    +0.008 A 
ENDBRANCH  27  28
ENDBRANCH   2  27
TORSDOF 7
