REMARK  Name = ZINC14273349
REMARK  6 active torsions:
REMARK  status: ('A' for Active; 'I' for Inactive)
REMARK    1  A    between atoms: C_1  and  C_2
REMARK    2  A    between atoms: C_9  and  N_14
REMARK    3  A    between atoms: C_10  and  C_11
REMARK    4  A    between atoms: C_15  and  C_17
REMARK    5  A    between atoms: C_26  and  O_27
REMARK    6  A    between atoms: O_27  and  C_28
REMARK                            x       y       z     vdW  Elec       q    Type
REMARK                         _______ _______ _______ _____ _____    ______ ____
ROOT
ATOM      1  N   UNL     1       2.428   6.079   0.012  0.00  0.00    -0.275 N 
ATOM      2  C   UNL     1       2.425   4.731   0.004  0.00  0.00    +0.252 C 
ATOM      3  O   UNL     1       3.477   4.121  -0.009  0.00  0.00    -0.270 OA
ATOM      4  H   UNL     1       1.589   6.565   0.022  0.00  0.00    +0.156 HD
ENDROOT
BRANCH   2   5
ATOM      5  C   UNL     1       1.146   3.996   0.013  0.00  0.00    +0.080 A 
ATOM      6  C   UNL     1      -0.050   4.696   0.027  0.00  0.00    +0.025 A 
ATOM      7  C   UNL     1      -1.262   3.992   0.035  0.00  0.00    -0.016 A 
ATOM      8  C   UNL     1      -2.495   4.670   0.050  0.00  0.00    +0.008 A 
ATOM      9  C   UNL     1      -3.655   3.959   0.041  0.00  0.00    +0.001 A 
ATOM     10  C   UNL     1      -3.643   2.565   0.033  0.00  0.00    +0.001 A 
ATOM     11  C   UNL     1      -2.470   1.875   0.024  0.00  0.00    +0.010 A 
ATOM     12  C   UNL     1      -1.250   2.573   0.022  0.00  0.00    -0.000 A 
ATOM     13  C   UNL     1      -0.024   1.887   0.012  0.00  0.00    +0.068 A 
ATOM     14  C   UNL     1       1.149   2.585   0.005  0.00  0.00    +0.147 A 
ATOM     15 BR   UNL     1       0.002  -0.004   0.002  0.00  0.00    -0.046 Br
BRANCH  14  16
ATOM     16  O   UNL     1       2.330   1.916  -0.010  0.00  0.00    -0.493 OA
ATOM     17  C   UNL     1       2.881   1.603  -1.291  0.00  0.00    +0.277 C 
ENDBRANCH  14  16
ENDBRANCH   2   5
BRANCH   1  25
ATOM     18  C   UNL     1       9.413   9.595  -0.134  0.00  0.00    +0.008 C 
ATOM     19  C   UNL     1       7.938   9.291  -0.404  0.00  0.00    -0.009 C 
ATOM     20  C   UNL     1       7.057  10.210   0.446  0.00  0.00    +0.008 C 
ATOM     21  C   UNL     1       5.598  10.088   0.003  0.00  0.00    +0.037 C 
ATOM     22  C   UNL     1       5.209   8.615  -0.002  0.00  0.00    -0.023 A 
ATOM     23  C   UNL     1       6.150   7.646  -0.017  0.00  0.00    -0.004 A 
ATOM     24  S   UNL     1       5.239   6.129  -0.016  0.00  0.00    -0.077 S 
ATOM     25  C   UNL     1       3.629   6.769   0.004  0.00  0.00    +0.085 A 
ATOM     26  C   UNL     1       3.835   8.142   0.004  0.00  0.00    +0.068 A 
ATOM     27  C   UNL     1       7.636   7.832  -0.031  0.00  0.00    +0.046 C 
BRANCH  26  28
ATOM     28  C   UNL     1       2.708   9.080   0.013  0.00  0.00    +0.244 C 
ATOM     29  O   UNL     1       2.248   9.468   1.071  0.00  0.00    -0.270 OA
ATOM     30  N   UNL     1       2.181   9.511  -1.150  0.00  0.00    -0.325 N 
ATOM     31  H   UNL     1       2.548   9.202  -1.993  0.00  0.00    +0.145 HD
ATOM     32  H   UNL     1       1.436  10.132  -1.144  0.00  0.00    +0.145 HD
ENDBRANCH  26  28
ENDBRANCH   1  25
TORSDOF 4
