REMARK  Name = ZINC22456800
REMARK  6 active torsions:
REMARK  status: ('A' for Active; 'I' for Inactive)
REMARK    1  A    between atoms: C_4  and  N_7
REMARK    2  A    between atoms: N_10  and  C_11
REMARK    3  A    between atoms: C_14  and  N_17
REMARK    4  A    between atoms: C_18  and  C_20
REMARK    5  A    between atoms: C_20  and  S_21
REMARK    6  A    between atoms: S_21  and  C_22
REMARK                            x       y       z     vdW  Elec       q    Type
REMARK                         _______ _______ _______ _____ _____    ______ ____
ROOT
ATOM      1  C   UNL     1      -2.429   2.063   5.987  0.00  0.00    +0.035 A 
ATOM      2  C   UNL     1      -1.248   1.401   6.292  0.00  0.00    +0.025 A 
ATOM      3  C   UNL     1      -0.505   0.815   5.287  0.00  0.00    +0.025 A 
ATOM      4  C   UNL     1      -0.939   0.887   3.970  0.00  0.00    +0.034 A 
ATOM      5  C   UNL     1      -2.118   1.555   3.664  0.00  0.00    +0.025 A 
ATOM      6  C   UNL     1      -2.864   2.136   4.670  0.00  0.00    +0.025 A 
ENDROOT
BRANCH   1  10
ATOM      7  N   UNL     1      -5.256   3.145   7.963  0.00  0.00    -0.269 N 
ATOM      8  C   UNL     1      -4.529   2.656   6.939  0.00  0.00    +0.308 C 
ATOM      9  O   UNL     1      -5.087   2.214   5.954  0.00  0.00    -0.252 OA
ATOM     10  N   UNL     1      -3.183   2.658   7.007  0.00  0.00    -0.269 N 
ATOM     11  H   UNL     1      -4.752   3.614   8.821  0.00  0.00    +0.156 HD
ATOM     12  H   UNL     1      -2.676   3.127   7.863  0.00  0.00    +0.156 HD
BRANCH   7  16
ATOM     13  C   UNL     1      -9.413   2.883   7.879  0.00  0.00    +0.000 A 
ATOM     14  C   UNL     1      -8.738   2.750   9.078  0.00  0.00    +0.002 A 
ATOM     15  C   UNL     1      -7.359   2.837   9.109  0.00  0.00    +0.023 A 
ATOM     16  C   UNL     1      -6.652   3.057   7.935  0.00  0.00    +0.035 A 
ATOM     17  C   UNL     1      -7.334   3.196   6.733  0.00  0.00    +0.023 A 
ATOM     18  C   UNL     1      -8.712   3.103   6.707  0.00  0.00    +0.002 A 
ENDBRANCH   7  16
ENDBRANCH   1  10
BRANCH   4  19
ATOM     19  N   UNL     1      -0.185   0.293   2.950  0.00  0.00    -0.285 N 
ATOM     20  C   UNL     1       0.470  -0.862   3.182  0.00  0.00    +0.227 C 
ATOM     21  O   UNL     1       0.477  -1.342   4.296  0.00  0.00    -0.275 OA
ATOM     22  H   UNL     1      -0.129   0.768   1.959  0.00  0.00    +0.155 HD
BRANCH  20  23
ATOM     23  C   UNL     1       1.196  -1.555   2.058  0.00  0.00    +0.172 C 
BRANCH  23  24
ATOM     24  S   UNL     1       1.971  -3.067   2.682  0.00  0.00    -0.089 S 
BRANCH  24  25
ATOM     25  C   UNL     1       2.724  -3.658   1.203  0.00  0.00    +0.136 A 
ATOM     26  N   UNL     1       3.445  -4.742   1.021  0.00  0.00    -0.233 NA
ATOM     27  C   UNL     1       3.965  -5.073  -0.181  0.00  0.00    +0.079 A 
ATOM     28  C   UNL     1       4.751  -6.202  -0.511  0.00  0.00    +0.029 A 
ATOM     29  C   UNL     1       5.202  -6.391  -1.791  0.00  0.00    +0.002 A 
ATOM     30  C   UNL     1       4.907  -5.490  -2.804  0.00  0.00    +0.001 A 
ATOM     31  C   UNL     1       4.141  -4.375  -2.517  0.00  0.00    +0.017 A 
ATOM     32  C   UNL     1       3.685  -4.178  -1.238  0.00  0.00    +0.040 A 
ATOM     33  S   UNL     1       2.697  -2.939  -0.433  0.00  0.00    -0.061 S 
ENDBRANCH  24  25
ENDBRANCH  23  24
ENDBRANCH  20  23
ENDBRANCH   4  19
TORSDOF 6
