REMARK  Name = ZINC10272803
REMARK  10 active torsions:
REMARK  status: ('A' for Active; 'I' for Inactive)
REMARK    1  A    between atoms: C_1  and  C_2
REMARK    2  A    between atoms: C_2  and  C_3
REMARK    3  A    between atoms: C_2  and  C_4
REMARK    4  A    between atoms: C_2  and  C_5
REMARK    5  A    between atoms: C_8  and  S_11
REMARK    6  A    between atoms: S_11  and  C_14
REMARK    7  A    between atoms: C_17  and  S_21
REMARK    8  A    between atoms: S_21  and  C_22
REMARK    9  A    between atoms: C_22  and  C_23
REMARK   10  A    between atoms: N_25  and  C_26
REMARK                            x       y       z     vdW  Elec       q    Type
REMARK                         _______ _______ _______ _____ _____    ______ ____
ROOT
ATOM      1  C   UNL     1       2.567  -0.765  -6.239  0.00  0.00    +0.177 A 
ATOM      2  C   UNL     1       3.626  -0.040  -6.755  0.00  0.00    +0.146 A 
ATOM      3  N   UNL     1       3.394   0.866  -7.693  0.00  0.00    -0.228 NA
ATOM      4  C   UNL     1       2.166   1.083  -8.140  0.00  0.00    +0.192 A 
ATOM      5  N   UNL     1       1.126   0.409  -7.670  0.00  0.00    -0.182 NA
ATOM      6  C   UNL     1       1.287  -0.517  -6.734  0.00  0.00    +0.299 A 
ATOM      7  O   UNL     1       0.223  -1.209  -6.261  0.00  0.00    -0.264 OA
ENDROOT
BRANCH   1   8
ATOM      8  S   UNL     1       2.831  -1.979  -4.990  0.00  0.00    +0.032 S 
ATOM      9  O   UNL     1       4.221  -1.963  -4.695  0.00  0.00    -0.164 OA
ATOM     10  O   UNL     1       2.156  -3.154  -5.417  0.00  0.00    -0.164 OA
BRANCH   8  14
ATOM     11  C   UNL     1       0.701  -0.549  -1.260  0.00  0.00    -0.042 A 
ATOM     12  C   UNL     1       0.034  -1.340  -2.177  0.00  0.00    +0.006 A 
ATOM     13  C   UNL     1       0.684  -1.776  -3.316  0.00  0.00    +0.027 A 
ATOM     14  C   UNL     1       2.002  -1.422  -3.538  0.00  0.00    +0.094 A 
ATOM     15  C   UNL     1       2.669  -0.631  -2.622  0.00  0.00    +0.027 A 
ATOM     16  C   UNL     1       2.017  -0.191  -1.485  0.00  0.00    +0.006 A 
BRANCH  11  18
ATOM     17  C   UNL     1      -0.033   1.456   0.000  0.00  0.00    +0.015 C 
ATOM     18  C   UNL     1      -0.008  -0.074  -0.018  0.00  0.00    -0.013 C 
ATOM     19  C   UNL     1       0.731  -0.587   1.219  0.00  0.00    +0.015 C 
ATOM     20  C   UNL     1      -1.442  -0.608  -0.013  0.00  0.00    +0.015 C 
ENDBRANCH  11  18
ENDBRANCH   8  14
ENDBRANCH   1   8
BRANCH   4  21
ATOM     21  S   UNL     1       1.909   2.299  -9.389  0.00  0.00    -0.077 S 
BRANCH  21  22
ATOM     22  C   UNL     1       0.119   2.254  -9.684  0.00  0.00    +0.173 C 
BRANCH  22  23
ATOM     23  C   UNL     1      -0.240   3.261 -10.746  0.00  0.00    +0.227 C 
ATOM     24  O   UNL     1       0.625   3.941 -11.255  0.00  0.00    -0.275 OA
ATOM     25  N   UNL     1      -1.524   3.405 -11.131  0.00  0.00    -0.285 N 
ATOM     26  H   UNL     1      -2.207   2.815 -10.774  0.00  0.00    +0.155 HD
BRANCH  25  27
ATOM     27  C   UNL     1      -1.872   4.405 -12.047  0.00  0.00    +0.036 A 
ATOM     28  C   UNL     1      -3.091   5.061 -11.929  0.00  0.00    +0.026 A 
ATOM     29  C   UNL     1      -3.433   6.048 -12.833  0.00  0.00    +0.043 A 
ATOM     30  C   UNL     1      -2.564   6.384 -13.856  0.00  0.00    +0.159 A 
ATOM     31  C   UNL     1      -1.347   5.731 -13.976  0.00  0.00    +0.160 A 
ATOM     32  C   UNL     1      -0.998   4.746 -13.069  0.00  0.00    +0.064 A 
ATOM     33  F   UNL     1      -0.499   6.060 -14.975  0.00  0.00    -0.202 F 
ATOM     34  F   UNL     1      -2.902   7.349 -14.739  0.00  0.00    -0.202 F 
ENDBRANCH  25  27
ENDBRANCH  22  23
ENDBRANCH  21  22
ENDBRANCH   4  21
TORSDOF 7
