REMARK  Name = ZINC13041664
REMARK  5 active torsions:
REMARK  status: ('A' for Active; 'I' for Inactive)
REMARK    1  A    between atoms: C_3  and  N_18
REMARK    2  A    between atoms: C_5  and  S_7
REMARK    3  A    between atoms: S_7  and  N_10
REMARK    4  A    between atoms: N_18  and  S_19
REMARK    5  A    between atoms: S_19  and  C_22
REMARK                            x       y       z     vdW  Elec       q    Type
REMARK                         _______ _______ _______ _____ _____    ______ ____
ROOT
ATOM      1  C   UNL     1      -0.017   1.378   0.010  0.00  0.00    +0.004 A 
ATOM      2  C   UNL     1       1.169   2.087   0.002  0.00  0.00    +0.027 A 
ATOM      3  C   UNL     1       2.381   1.409  -0.013  0.00  0.00    +0.076 A 
ATOM      4  C   UNL     1       2.396   0.020  -0.021  0.00  0.00    +0.055 A 
ATOM      5  C   UNL     1       1.207  -0.682  -0.013  0.00  0.00    +0.114 A 
ATOM      6  C   UNL     1       0.002  -0.004   0.002  0.00  0.00    +0.029 A 
ENDROOT
BRANCH   5   7
ATOM      7  S   UNL     1       1.225  -2.444  -0.023  0.00  0.00    +0.100 S 
ATOM      8  O   UNL     1      -0.021  -2.860  -0.565  0.00  0.00    -0.146 OA
ATOM      9  O   UNL     1       2.469  -2.834  -0.589  0.00  0.00    -0.146 OA
BRANCH   7  10
ATOM     10  N   UNL     1       1.246  -2.943   1.556  0.00  0.00    -0.118 NA
ATOM     11  C   UNL     1       1.262  -4.205   1.835  0.00  0.00    +0.117 C 
ATOM     12  C   UNL     1       1.268  -5.238   0.710  0.00  0.00    +0.073 C 
ATOM     13  C   UNL     1       2.629  -5.900   0.715  0.00  0.00    +0.008 C 
ATOM     14  C   UNL     1       2.712  -7.115   1.640  0.00  0.00    +0.002 C 
ATOM     15  C   UNL     1       2.031  -6.889   2.990  0.00  0.00    +0.019 C 
ATOM     16  C   UNL     1       2.322  -5.527   3.585  0.00  0.00    +0.102 C 
ATOM     17  N   UNL     1       1.278  -4.604   3.091  0.00  0.00    -0.331 N 
ATOM     18  H   UNL     1       0.594  -4.289   3.703  0.00  0.00    +0.147 HD
ENDBRANCH   7  10
ENDBRANCH   5   7
BRANCH   3  19
ATOM     19  N   UNL     1       3.582   2.122  -0.021  0.00  0.00    -0.097 NA
BRANCH  19  20
ATOM     20  S   UNL     1       3.562   3.778  -0.013  0.00  0.00    +0.098 S 
ATOM     21  O   UNL     1       2.994   4.183  -1.250  0.00  0.00    -0.148 OA
ATOM     22  O   UNL     1       3.018   4.171   1.240  0.00  0.00    -0.148 OA
BRANCH  20  23
ATOM     23  C   UNL     1       5.238   4.319  -0.026  0.00  0.00    +0.148 A 
ATOM     24  C   UNL     1       6.039   4.593  -1.086  0.00  0.00    +0.037 A 
ATOM     25  C   UNL     1       7.336   5.009  -0.856  0.00  0.00    +0.010 A 
ATOM     26  C   UNL     1       7.770   5.133   0.422  0.00  0.00    +0.047 A 
ATOM     27  S   UNL     1       6.322   4.659   1.352  0.00  0.00    -0.077 S 
ENDBRANCH  20  23
ENDBRANCH  19  20
ENDBRANCH   3  19
TORSDOF 5
