REMARK  Name = ZINC14474059
REMARK  7 active torsions:
REMARK  status: ('A' for Active; 'I' for Inactive)
REMARK    1  A    between atoms: C_1  and  C_2
REMARK    2  A    between atoms: C_5  and  N_9
REMARK    3  A    between atoms: C_6  and  C_8
REMARK    4  A    between atoms: N_9  and  S_10
REMARK    5  A    between atoms: S_10  and  C_13
REMARK    6  A    between atoms: C_26  and  C_29
REMARK    7  A    between atoms: C_34  and  O_35
REMARK                            x       y       z     vdW  Elec       q    Type
REMARK                         _______ _______ _______ _____ _____    ______ ____
ROOT
ATOM      1  C   UNL     1      -5.349   3.134   1.837  0.00  0.00    +0.109 A 
ATOM      2  C   UNL     1      -5.068   3.019   3.187  0.00  0.00    +0.030 A 
ATOM      3  C   UNL     1      -3.942   2.340   3.604  0.00  0.00    +0.025 A 
ATOM      4  C   UNL     1      -3.084   1.765   2.675  0.00  0.00    +0.031 A 
ATOM      5  C   UNL     1      -3.366   1.888   1.316  0.00  0.00    -0.018 A 
ATOM      6  C   UNL     1      -4.505   2.561   0.904  0.00  0.00    +0.034 A 
ATOM      7  C   UNL     1      -2.455   1.230   0.355  0.00  0.00    +0.049 C 
ATOM      8  C   UNL     1      -2.299   1.719  -1.039  0.00  0.00    -0.023 C 
ATOM      9  C   UNL     1      -1.053   1.486  -1.434  0.00  0.00    -0.030 C 
ATOM     10  C   UNL     1      -0.257   0.841  -0.298  0.00  0.00    +0.033 C 
ATOM     11  C   UNL     1      -1.013   1.348   0.937  0.00  0.00    +0.029 C 
ATOM     12  C   UNL     1      -1.000   0.462   2.170  0.00  0.00    +0.108 C 
ATOM     13  N   UNL     1      -1.940   1.093   3.123  0.00  0.00    -0.336 N 
ATOM     14  H   UNL     1      -1.759   1.041   4.074  0.00  0.00    +0.147 HD
ENDROOT
BRANCH  12  15
ATOM     15  C   UNL     1      -1.467  -0.927   1.818  0.00  0.00    +0.014 A 
ATOM     16  C   UNL     1      -2.791  -1.278   1.995  0.00  0.00    +0.009 A 
ATOM     17  C   UNL     1      -3.220  -2.551   1.671  0.00  0.00    +0.001 A 
ATOM     18  C   UNL     1      -2.324  -3.478   1.170  0.00  0.00    +0.004 A 
ATOM     19  C   UNL     1      -0.999  -3.133   0.993  0.00  0.00    +0.046 A 
ATOM     20  C   UNL     1      -0.567  -1.854   1.311  0.00  0.00    +0.122 A 
BRANCH  20  21
ATOM     21  O   UNL     1       0.735  -1.510   1.131  0.00  0.00    -0.506 OA
ATOM     22  H   UNL     1       1.297  -1.680   1.899  0.00  0.00    +0.292 HD
ENDBRANCH  20  21
ENDBRANCH  12  15
BRANCH   1  23
ATOM     23  S   UNL     1      -6.783   4.010   1.308  0.00  0.00    +0.072 S 
ATOM     24  O   UNL     1      -7.114   3.507   0.020  0.00  0.00    -0.150 OA
ATOM     25  O   UNL     1      -7.699   3.984   2.394  0.00  0.00    -0.150 OA
BRANCH  23  26
ATOM     26  N   UNL     1      -6.341   5.592   1.098  0.00  0.00    -0.216 N 
ATOM     27  H   UNL     1      -6.770   6.288   1.620  0.00  0.00    +0.174 HD
BRANCH  26  32
ATOM     28  C   UNL     1      -2.321   6.939  -2.668  0.00  0.00    +0.044 C 
ATOM     29  C   UNL     1      -3.389   6.581  -1.667  0.00  0.00    -0.050 A 
ATOM     30  C   UNL     1      -4.266   5.545  -1.934  0.00  0.00    +0.005 A 
ATOM     31  C   UNL     1      -5.246   5.214  -1.019  0.00  0.00    +0.025 A 
ATOM     32  C   UNL     1      -5.350   5.923   0.171  0.00  0.00    +0.051 A 
ATOM     33  C   UNL     1      -4.471   6.966   0.434  0.00  0.00    -0.028 A 
ATOM     34  C   UNL     1      -3.490   7.288  -0.483  0.00  0.00    +0.008 A 
ATOM     35  C   UNL     1      -4.585   7.742   1.721  0.00  0.00    +0.046 C 
ENDBRANCH  26  32
ENDBRANCH  23  26
ENDBRANCH   1  23
TORSDOF 5
