REMARK  Name = ZINC60334523
REMARK  6 active torsions:
REMARK  status: ('A' for Active; 'I' for Inactive)
REMARK    1  A    between atoms: C_4  and  N_20
REMARK    2  A    between atoms: C_5  and  C_7
REMARK    3  A    between atoms: N_9  and  C_10
REMARK    4  A    between atoms: C_14  and  C_16
REMARK    5  A    between atoms: C_21  and  C_23
REMARK    6  A    between atoms: C_30  and  C_32
REMARK                            x       y       z     vdW  Elec       q    Type
REMARK                         _______ _______ _______ _____ _____    ______ ____
ROOT
ATOM      1  C   UNL     1      -0.659   1.216  -0.044  0.00  0.00    +0.001 A 
ATOM      2  C   UNL     1       0.363   1.645  -0.876  0.00  0.00    +0.002 A 
ATOM      3  C   UNL     1       1.533   0.919  -0.977  0.00  0.00    +0.024 A 
ATOM      4  C   UNL     1       1.693  -0.248  -0.243  0.00  0.00    +0.046 A 
ATOM      5  C   UNL     1       0.661  -0.685   0.601  0.00  0.00    +0.058 A 
ATOM      6  C   UNL     1      -0.517   0.059   0.692  0.00  0.00    +0.015 A 
ENDROOT
BRANCH   5   7
ATOM      7  C   UNL     1       0.819  -1.924   1.386  0.00  0.00    +0.250 C 
ATOM      8  O   UNL     1       1.884  -2.511   1.388  0.00  0.00    -0.270 OA
ATOM      9  N   UNL     1      -0.218  -2.405   2.100  0.00  0.00    -0.281 N 
ATOM     10  H   UNL     1      -1.087  -1.980   2.040  0.00  0.00    +0.155 HD
BRANCH   9  11
ATOM     11  C   UNL     1      -0.039  -3.517   2.930  0.00  0.00    +0.034 A 
ATOM     12  C   UNL     1      -1.074  -4.426   3.109  0.00  0.00    +0.023 A 
ATOM     13  C   UNL     1      -0.894  -5.522   3.928  0.00  0.00    +0.002 A 
ATOM     14  C   UNL     1       0.315  -5.716   4.571  0.00  0.00    +0.012 A 
ATOM     15  C   UNL     1       1.347  -4.814   4.395  0.00  0.00    +0.057 A 
ATOM     16  C   UNL     1       1.176  -3.718   3.571  0.00  0.00    +0.035 A 
BRANCH  15  17
ATOM     17  C   UNL     1       2.663  -5.029   5.098  0.00  0.00    +0.417 C 
ATOM     18  F   UNL     1       2.597  -6.198   5.864  0.00  0.00    -0.166 F 
ATOM     19  F   UNL     1       3.684  -5.149   4.150  0.00  0.00    -0.166 F 
ATOM     20  F   UNL     1       2.929  -3.938   5.934  0.00  0.00    -0.166 F 
ENDBRANCH  15  17
ENDBRANCH   9  11
ENDBRANCH   5   7
BRANCH   4  21
ATOM     21  N   UNL     1       2.873  -0.982  -0.343  0.00  0.00    -0.285 N 
ATOM     22  C   UNL     1       4.026  -0.363  -0.666  0.00  0.00    +0.222 C 
ATOM     23  O   UNL     1       4.057   0.845  -0.774  0.00  0.00    -0.275 OA
ATOM     24  H   UNL     1       2.865  -1.938  -0.181  0.00  0.00    +0.155 HD
BRANCH  22  25
ATOM     25  C   UNL     1       5.277  -1.172  -0.893  0.00  0.00    +0.093 C 
ATOM     26  C   UNL     1       5.050  -2.152  -2.046  0.00  0.00    +0.016 C 
ATOM     27  C   UNL     1       6.309  -2.996  -2.256  0.00  0.00    +0.020 C 
ATOM     28  C   UNL     1       7.479  -2.079  -2.626  0.00  0.00    +0.108 C 
ATOM     29  N   UNL     1       7.612  -1.043  -1.592  0.00  0.00    -0.301 N 
ATOM     30  C   UNL     1       6.436  -0.234  -1.246  0.00  0.00    +0.120 C 
ATOM     31  C   UNL     1       8.791  -0.841  -0.971  0.00  0.00    +0.219 C 
ATOM     32  O   UNL     1       8.888   0.017  -0.119  0.00  0.00    -0.275 OA
BRANCH  31  33
ATOM     33  C   UNL     1       9.989  -1.679  -1.335  0.00  0.00    +0.075 C 
ATOM     34  C   UNL     1      10.502  -2.671  -0.289  0.00  0.00    +0.013 C 
ATOM     35  C   UNL     1      11.298  -1.401  -0.595  0.00  0.00    +0.013 C 
ENDBRANCH  31  33
ENDBRANCH  22  25
ENDBRANCH   4  21
TORSDOF 6
