REMARK  Name = ZINC63480170
REMARK  10 active torsions:
REMARK  status: ('A' for Active; 'I' for Inactive)
REMARK    1  A    between atoms: C_1  and  C_2
REMARK    2  A    between atoms: C_2  and  C_3
REMARK    3  A    between atoms: C_2  and  N_4
REMARK    4  A    between atoms: C_5  and  C_7
REMARK    5  A    between atoms: C_7  and  C_9
REMARK    6  A    between atoms: C_7  and  N_19
REMARK    7  A    between atoms: C_9  and  C_10
REMARK    8  A    between atoms: C_20  and  C_22
REMARK    9  A    between atoms: C_24  and  C_37
REMARK   10  A    between atoms: C_24  and  C_38
REMARK                            x       y       z     vdW  Elec       q    Type
REMARK                         _______ _______ _______ _____ _____    ______ ____
ROOT
ATOM      1  C   UNL     1      -3.057  -2.256  -0.474  0.00  0.00    +0.163 C 
ENDROOT
BRANCH   1   3
ATOM      2  N   UNL     1      -1.372  -0.511   0.012  0.00  0.00    -0.311 N 
ATOM      3  C   UNL     1      -1.643  -1.734  -0.485  0.00  0.00    +0.234 C 
ATOM      4  O   UNL     1      -0.749  -2.415  -0.941  0.00  0.00    -0.274 OA
ATOM      5  H   UNL     1      -2.087   0.033   0.377  0.00  0.00    +0.149 HD
BRANCH   2   7
ATOM      6  C   UNL     1      -0.019   1.526   0.010  0.00  0.00    +0.027 C 
ATOM      7  C   UNL     1       0.002  -0.004   0.002  0.00  0.00    +0.067 C 
ATOM      8  C   UNL     1       0.742  -0.511   1.242  0.00  0.00    +0.027 C 
ENDBRANCH   2   7
ENDBRANCH   1   3
BRANCH   1   9
ATOM      9  N   UNL     1      -3.087  -3.596  -1.065  0.00  0.00    -0.302 N 
ATOM     10  C   UNL     1      -3.181  -3.741  -2.401  0.00  0.00    +0.236 C 
ATOM     11  O   UNL     1      -3.240  -2.763  -3.115  0.00  0.00    -0.274 OA
ATOM     12  H   UNL     1      -3.040  -4.379  -0.494  0.00  0.00    +0.150 HD
BRANCH  10  13
ATOM     13  C   UNL     1      -3.212  -5.120  -3.009  0.00  0.00    +0.179 C 
ATOM     14  C   UNL     1      -1.775  -5.691  -3.018  0.00  0.00    +0.040 C 
ATOM     15  S   UNL     1      -1.597  -6.218  -4.777  0.00  0.00    -0.125 S 
ATOM     16  C   UNL     1      -3.389  -6.172  -5.205  0.00  0.00    +0.167 C 
ATOM     17  N   UNL     1      -3.811  -5.032  -4.342  0.00  0.00    -0.269 N 
ATOM     18  C   UNL     1      -4.616  -4.267  -5.111  0.00  0.00    +0.249 C 
ATOM     19  O   UNL     1      -5.446  -3.483  -4.694  0.00  0.00    -0.270 OA
ATOM     20  C   UNL     1      -4.333  -4.527  -6.536  0.00  0.00    +0.043 A 
ATOM     21  C   UNL     1      -3.573  -5.715  -6.623  0.00  0.00    -0.005 A 
ATOM     22  C   UNL     1      -3.160  -6.202  -7.841  0.00  0.00    +0.007 A 
ATOM     23  C   UNL     1      -3.515  -5.545  -9.008  0.00  0.00    +0.000 A 
ATOM     24  C   UNL     1      -4.289  -4.400  -8.953  0.00  0.00    +0.001 A 
ATOM     25  C   UNL     1      -4.698  -3.866  -7.708  0.00  0.00    +0.013 A 
ATOM     26  C   UNL     1      -0.753  -4.608  -2.664  0.00  0.00    +0.025 C 
ATOM     27  C   UNL     1      -1.653  -6.887  -2.071  0.00  0.00    +0.025 C 
ENDBRANCH  10  13
ENDBRANCH   1   9
BRANCH   1  28
ATOM     28  C   UNL     1      -3.565  -2.322   0.967  0.00  0.00    +0.065 C 
BRANCH  28  29
ATOM     29  C   UNL     1      -5.017  -2.726   0.970  0.00  0.00    -0.039 C 
ATOM     30  C   UNL     1      -5.513  -3.975   1.125  0.00  0.00    -0.001 A 
ATOM     31  C   UNL     1      -4.875  -5.280   1.329  0.00  0.00    +0.010 A 
ATOM     32  C   UNL     1      -5.653  -6.379   1.452  0.00  0.00    +0.001 A 
ATOM     33  C   UNL     1      -7.051  -6.303   1.390  0.00  0.00    +0.002 A 
ATOM     34  C   UNL     1      -7.711  -5.139   1.205  0.00  0.00    +0.026 A 
ATOM     35  C   UNL     1      -6.992  -3.921   1.064  0.00  0.00    +0.043 A 
ATOM     36  N   UNL     1      -7.393  -2.687   0.878  0.00  0.00    -0.380 N 
ATOM     37  C   UNL     1      -6.214  -1.816   0.807  0.00  0.00    +0.144 C 
ATOM     38  H   UNL     1      -8.316  -2.397   0.804  0.00  0.00    +0.160 HD
ENDBRANCH  28  29
ENDBRANCH   1  28
TORSDOF 6
