REMARK  Name = ZINC08451163
REMARK  7 active torsions:
REMARK  status: ('A' for Active; 'I' for Inactive)
REMARK    1  A    between atoms: C_1  and  O_2
REMARK    2  A    between atoms: O_2  and  C_3
REMARK    3  A    between atoms: C_6  and  C_9
REMARK    4  A    between atoms: C_11  and  C_32
REMARK    5  A    between atoms: C_13  and  N_31
REMARK    6  A    between atoms: C_14  and  C_18
REMARK    7  A    between atoms: N_20  and  C_21
REMARK                            x       y       z     vdW  Elec       q    Type
REMARK                         _______ _______ _______ _____ _____    ______ ____
ROOT
ATOM      1  C   UNL     1      -1.262  12.024  -1.357  0.00  0.00    +0.073 A 
ATOM      2  C   UNL     1      -1.895  11.751  -2.575  0.00  0.00    +0.041 A 
ATOM      3  C   UNL     1      -2.392  10.510  -2.830  0.00  0.00    +0.068 A 
ATOM      4  C   UNL     1      -2.262   9.495  -1.847  0.00  0.00    +0.041 A 
ATOM      5  C   UNL     1      -2.710   8.113  -1.907  0.00  0.00    +0.054 A 
ATOM      6  C   UNL     1      -2.476   7.301  -0.818  0.00  0.00    +0.097 A 
ATOM      7  S   UNL     1      -1.631   8.376   0.324  0.00  0.00    -0.062 S 
ATOM      8  C   UNL     1      -1.610   9.863  -0.647  0.00  0.00    +0.112 A 
ATOM      9  N   UNL     1      -1.143  11.074  -0.439  0.00  0.00    -0.239 NA
ENDROOT
BRANCH   1  13
ATOM     10  C   UNL     1       0.279  15.913  -0.595  0.00  0.00    +0.120 A 
ATOM     11  C   UNL     1       0.404  14.918   0.365  0.00  0.00    +0.046 A 
ATOM     12  C   UNL     1      -0.095  13.656   0.121  0.00  0.00    +0.013 A 
ATOM     13  C   UNL     1      -0.726  13.380  -1.092  0.00  0.00    +0.001 A 
ATOM     14  C   UNL     1      -0.845  14.380  -2.056  0.00  0.00    +0.013 A 
ATOM     15  C   UNL     1      -0.349  15.641  -1.804  0.00  0.00    +0.046 A 
BRANCH  10  17
ATOM     16  C   UNL     1       0.608  18.132  -1.383  0.00  0.00    +0.277 C 
ATOM     17  O   UNL     1       0.771  17.156  -0.352  0.00  0.00    -0.495 OA
ENDBRANCH  10  17
ENDBRANCH   1  13
BRANCH   6  18
ATOM     18  C   UNL     1      -2.821   5.937  -0.650  0.00  0.00    +0.253 C 
ATOM     19  O   UNL     1      -3.403   5.342  -1.538  0.00  0.00    -0.270 OA
ATOM     20  N   UNL     1      -2.503   5.298   0.494  0.00  0.00    -0.305 N 
ATOM     21  H   UNL     1      -2.039   5.772   1.202  0.00  0.00    +0.150 HD
BRANCH  20  22
ATOM     22  C   UNL     1      -2.859   3.888   0.668  0.00  0.00    +0.036 C 
ATOM     23  C   UNL     1      -2.183   3.053  -0.421  0.00  0.00    +0.029 C 
ATOM     24  C   UNL     1      -2.555   1.580  -0.239  0.00  0.00    -0.008 C 
ATOM     25  C   UNL     1      -2.084   1.101   1.135  0.00  0.00    +0.007 C 
ATOM     26  C   UNL     1      -2.760   1.936   2.225  0.00  0.00    -0.008 C 
ATOM     27  C   UNL     1      -2.388   3.409   2.043  0.00  0.00    +0.029 C 
ATOM     28  C   UNL     1      -4.278   1.777   2.122  0.00  0.00    +0.007 C 
ATOM     29  C   UNL     1      -4.749   2.255   0.747  0.00  0.00    -0.008 C 
ATOM     30  C   UNL     1      -4.073   1.421  -0.343  0.00  0.00    +0.007 C 
ATOM     31  C   UNL     1      -4.377   3.728   0.565  0.00  0.00    +0.029 C 
ENDBRANCH  20  22
ENDBRANCH   6  18
BRANCH   3  32
ATOM     32  C   UNL     1      -3.072  10.216  -4.143  0.00  0.00    +0.418 C 
ATOM     33  F   UNL     1      -2.954  11.326  -4.987  0.00  0.00    -0.166 F 
ATOM     34  F   UNL     1      -2.468   9.107  -4.743  0.00  0.00    -0.166 F 
ATOM     35  F   UNL     1      -4.425   9.945  -3.916  0.00  0.00    -0.166 F 
ENDBRANCH   3  32
BRANCH   5  36
ATOM     36  N   UNL     1      -3.359   7.624  -3.032  0.00  0.00    -0.356 N 
ATOM     37  H   UNL     1      -3.353   6.672  -3.221  0.00  0.00    +0.142 HD
ATOM     38  H   UNL     1      -3.819   8.234  -3.630  0.00  0.00    +0.142 HD
ENDBRANCH   5  36
TORSDOF 6
