REMARK  Name = ZINC13638161
REMARK  7 active torsions:
REMARK  status: ('A' for Active; 'I' for Inactive)
REMARK    1  A    between atoms: C_1  and  C_2
REMARK    2  A    between atoms: C_2  and  C_3
REMARK    3  A    between atoms: C_2  and  C_4
REMARK    4  A    between atoms: C_5  and  C_16
REMARK    5  A    between atoms: C_6  and  N_15
REMARK    6  A    between atoms: C_11  and  S_13
REMARK    7  A    between atoms: S_13  and  C_14
REMARK                            x       y       z     vdW  Elec       q    Type
REMARK                         _______ _______ _______ _____ _____    ______ ____
ROOT
ATOM      1  C   UNL     1       0.707  -0.490  -1.238  0.00  0.00    +0.059 A 
ATOM      2  C   UNL     1       0.027  -1.306  -2.155  0.00  0.00    +0.043 A 
ATOM      3  C   UNL     1       0.701  -1.738  -3.296  0.00  0.00    +0.131 A 
ATOM      4  N   UNL     1       1.999  -1.359  -3.470  0.00  0.00    -0.181 N 
ATOM      5  C   UNL     1       2.616  -0.567  -2.544  0.00  0.00    +0.256 A 
ATOM      6  N   UNL     1       1.960  -0.153  -1.454  0.00  0.00    -0.215 NA
ATOM      7  N   UNL     1       3.859  -0.360  -2.968  0.00  0.00    -0.183 NA
ATOM      8  C   UNL     1       4.050  -0.989  -4.126  0.00  0.00    +0.211 A 
ATOM      9  N   UNL     1       2.944  -1.613  -4.473  0.00  0.00    -0.135 NA
ENDROOT
BRANCH   2  10
ATOM     10  C   UNL     1      -1.384  -1.696  -1.917  0.00  0.00    -0.013 A 
ATOM     11  C   UNL     1      -1.711  -2.508  -0.833  0.00  0.00    +0.010 A 
ATOM     12  C   UNL     1      -3.026  -2.864  -0.613  0.00  0.00    +0.016 A 
ATOM     13  C   UNL     1      -4.018  -2.425  -1.473  0.00  0.00    +0.018 A 
ATOM     14  C   UNL     1      -3.697  -1.623  -2.555  0.00  0.00    +0.016 A 
ATOM     15  C   UNL     1      -2.386  -1.256  -2.780  0.00  0.00    +0.010 A 
ATOM     16 BR   UNL     1      -5.817  -2.922  -1.169  0.00  0.00    -0.050 Br
ENDBRANCH   2  10
BRANCH   1  18
ATOM     17  C   UNL     1      -0.019   1.526   0.010  0.00  0.00    +0.014 C 
ATOM     18  C   UNL     1       0.002  -0.004   0.002  0.00  0.00    +0.032 C 
ATOM     19  C   UNL     1       0.742  -0.511   1.242  0.00  0.00    +0.014 C 
ENDBRANCH   1  18
BRANCH   3  20
ATOM     20  N   UNL     1       0.072  -2.534  -4.224  0.00  0.00    -0.342 N 
ATOM     21  H   UNL     1       0.552  -2.832  -5.012  0.00  0.00    +0.144 HD
ATOM     22  H   UNL     1      -0.852  -2.798  -4.089  0.00  0.00    +0.144 HD
ENDBRANCH   3  20
BRANCH   8  23
ATOM     23  S   UNL     1       5.551  -0.989  -5.050  0.00  0.00    -0.088 S 
ATOM     24  C   UNL     1       6.676   0.031  -4.058  0.00  0.00    +0.093 C 
ENDBRANCH   8  23
TORSDOF 4
