REMARK  Name = ZINC46613779
REMARK  7 active torsions:
REMARK  status: ('A' for Active; 'I' for Inactive)
REMARK    1  A    between atoms: C_1  and  C_2
REMARK    2  A    between atoms: C_2  and  C_4
REMARK    3  A    between atoms: C_2  and  N_14
REMARK    4  A    between atoms: C_7  and  O_10
REMARK    5  A    between atoms: O_10  and  C_11
REMARK    6  A    between atoms: N_17  and  N_18
REMARK    7  A    between atoms: C_19  and  C_21
REMARK                            x       y       z     vdW  Elec       q    Type
REMARK                         _______ _______ _______ _____ _____    ______ ____
ROOT
ATOM      1  N   UNL     1      -1.372  -0.511   0.012  0.00  0.00    -0.292 N 
ATOM      2  C   UNL     1      -2.051  -0.643  -1.145  0.00  0.00    +0.316 C 
ATOM      3  O   UNL     1      -1.522  -0.341  -2.197  0.00  0.00    -0.251 OA
ATOM      4  N   UNL     1      -3.315  -1.109  -1.135  0.00  0.00    -0.218 N 
ATOM      5  H   UNL     1      -1.794  -0.752   0.852  0.00  0.00    +0.151 HD
ATOM      6  H   UNL     1      -3.804  -1.204  -1.968  0.00  0.00    +0.174 HD
ENDROOT
BRANCH   4   7
ATOM      7  N   UNL     1      -3.924  -1.457   0.078  0.00  0.00    -0.229 N 
ATOM      8  C   UNL     1      -5.189  -1.924   0.087  0.00  0.00    +0.260 C 
ATOM      9  O   UNL     1      -5.801  -2.043  -0.956  0.00  0.00    -0.269 OA
ATOM     10  H   UNL     1      -3.436  -1.363   0.910  0.00  0.00    +0.173 HD
BRANCH   8  11
ATOM     11  C   UNL     1      -5.831  -2.291   1.366  0.00  0.00    +0.038 A 
ATOM     12  C   UNL     1      -5.133  -2.151   2.567  0.00  0.00    +0.014 A 
ATOM     13  C   UNL     1      -5.737  -2.495   3.758  0.00  0.00    +0.021 A 
ATOM     14  C   UNL     1      -7.035  -2.980   3.764  0.00  0.00    +0.041 A 
ATOM     15  C   UNL     1      -7.733  -3.122   2.576  0.00  0.00    +0.021 A 
ATOM     16  C   UNL     1      -7.141  -2.775   1.379  0.00  0.00    +0.014 A 
ATOM     17 CL   UNL     1      -7.789  -3.412   5.266  0.00  0.00    -0.084 Cl
ENDBRANCH   8  11
ENDBRANCH   4   7
BRANCH   1  19
ATOM     18  C   UNL     1      -0.019   1.526   0.010  0.00  0.00    +0.033 C 
ATOM     19  C   UNL     1       0.002  -0.004   0.002  0.00  0.00    +0.102 C 
BRANCH  19  20
ATOM     20  C   UNL     1       0.731  -0.503   1.223  0.00  0.00    -0.027 A 
ATOM     21  C   UNL     1       0.080  -0.558   2.441  0.00  0.00    +0.009 A 
ATOM     22  C   UNL     1       0.746  -1.015   3.562  0.00  0.00    +0.046 A 
ATOM     23  C   UNL     1       2.069  -1.419   3.464  0.00  0.00    +0.127 A 
ATOM     24  C   UNL     1       2.720  -1.364   2.240  0.00  0.00    +0.046 A 
ATOM     25  C   UNL     1       2.048  -0.911   1.122  0.00  0.00    +0.009 A 
BRANCH  23  26
ATOM     26  O   UNL     1       2.727  -1.869   4.565  0.00  0.00    -0.434 OA
BRANCH  26  27
ATOM     27  C   UNL     1       4.087  -2.268   4.390  0.00  0.00    +0.541 C 
ATOM     28  F   UNL     1       4.151  -3.313   3.462  0.00  0.00    -0.166 F 
ATOM     29  F   UNL     1       4.836  -1.183   3.922  0.00  0.00    -0.166 F 
ENDBRANCH  26  27
ENDBRANCH  23  26
ENDBRANCH  19  20
ENDBRANCH   1  19
TORSDOF 6
