REMARK  Name = ZINC61360370
REMARK  5 active torsions:
REMARK  status: ('A' for Active; 'I' for Inactive)
REMARK    1  A    between atoms: C_1  and  C_2
REMARK    2  A    between atoms: C_3  and  N_22
REMARK    3  A    between atoms: C_7  and  S_8
REMARK    4  A    between atoms: S_8  and  N_11
REMARK    5  A    between atoms: N_11  and  C_12
REMARK                            x       y       z     vdW  Elec       q    Type
REMARK                         _______ _______ _______ _____ _____    ______ ____
ROOT
ATOM      1  S   UNL     1      -0.024  -0.087   2.680  0.00  0.00    +0.059 S 
ATOM      2  O   UNL     1      -1.252   0.629   2.682  0.00  0.00    -0.153 OA
ATOM      3  O   UNL     1       0.235  -1.157   3.579  0.00  0.00    -0.153 OA
ENDROOT
BRANCH   1  10
ATOM      4  C   UNL     1       2.365  -1.707   1.783  0.00  0.00    +0.047 C 
ATOM      5  C   UNL     1       1.307  -1.464   0.738  0.00  0.00    -0.004 A 
ATOM      6  C   UNL     1       1.463  -1.980  -0.543  0.00  0.00    +0.029 A 
ATOM      7  C   UNL     1       0.485  -1.754  -1.503  0.00  0.00    +0.023 A 
ATOM      8  C   UNL     1      -0.640  -1.020  -1.181  0.00  0.00    +0.004 A 
ATOM      9  C   UNL     1      -0.792  -0.508   0.095  0.00  0.00    +0.029 A 
ATOM     10  C   UNL     1       0.178  -0.735   1.054  0.00  0.00    +0.110 A 
BRANCH   6  11
ATOM     11  N   UNL     1       2.602  -2.722  -0.865  0.00  0.00    -0.358 N 
ATOM     12  H   UNL     1       3.284  -2.878  -0.194  0.00  0.00    +0.142 HD
ATOM     13  H   UNL     1       2.710  -3.081  -1.759  0.00  0.00    +0.142 HD
ENDBRANCH   6  11
ENDBRANCH   1  10
BRANCH   1  14
ATOM     14  N   UNL     1       1.176   1.030   2.915  0.00  0.00    -0.183 NA
ATOM     15  H   UNL     1       1.852   0.880   3.594  0.00  0.00    +0.149 HD
BRANCH  14  16
ATOM     16  C   UNL     1       1.216   2.244   2.097  0.00  0.00    +0.107 C 
ATOM     17  C   UNL     1       2.669   2.604   1.785  0.00  0.00    +0.025 C 
ATOM     18  C   UNL     1       3.394   3.017   3.069  0.00  0.00    +0.007 C 
ATOM     19  C   UNL     1       2.850   4.378   3.526  0.00  0.00    +0.043 C 
ATOM     20  C   UNL     1       1.357   4.325   3.483  0.00  0.00    -0.005 A 
ATOM     21  C   UNL     1       0.574   3.398   2.862  0.00  0.00    -0.019 A 
ATOM     22  C   UNL     1      -0.806   3.568   2.970  0.00  0.00    +0.013 A 
ATOM     23  C   UNL     1      -1.307   4.616   3.663  0.00  0.00    +0.046 A 
ATOM     24  S   UNL     1       0.189   5.439   4.216  0.00  0.00    -0.101 S 
ENDBRANCH  14  16
ENDBRANCH   1  14
TORSDOF 4
