REMARK  Name = ZINC44813699
REMARK  11 active torsions:
REMARK  status: ('A' for Active; 'I' for Inactive)
REMARK    1  A    between atoms: C_1  and  C_2
REMARK    2  A    between atoms: N_4  and  C_5
REMARK    3  A    between atoms: C_8  and  N_11
REMARK    4  A    between atoms: C_12  and  C_14
REMARK    5  A    between atoms: N_19  and  C_21
REMARK    6  A    between atoms: C_21  and  C_22
REMARK    7  A    between atoms: C_24  and  C_27
REMARK    8  A    between atoms: C_30  and  C_33
REMARK    9  A    between atoms: C_33  and  C_34
REMARK   10  A    between atoms: C_33  and  C_35
REMARK   11  A    between atoms: C_33  and  C_36
REMARK                            x       y       z     vdW  Elec       q    Type
REMARK                         _______ _______ _______ _____ _____    ______ ____
ROOT
ATOM      1  C   UNL     1      -1.678  -8.512  -0.017  0.00  0.00    +0.059 C 
ATOM      2  C   UNL     1      -1.014  -9.026   1.265  0.00  0.00    +0.009 C 
ATOM      3  C   UNL     1      -0.956 -10.555   1.219  0.00  0.00    -0.018 C 
ATOM      4  C   UNL     1      -2.370 -11.109   1.036  0.00  0.00    -0.078 C 
ATOM      5  N   UNL     1      -2.940 -10.603  -0.218  0.00  0.00    +0.386 N 
ATOM      6  C   UNL     1      -3.065  -9.142  -0.155  0.00  0.00    -0.065 C 
ATOM      7  H   UNL     1      -2.335 -10.854  -0.986  0.00  0.00    -0.081 HD
ENDROOT
BRANCH   1   9
ATOM      8  N   UNL     1      -0.710  -6.244   0.177  0.00  0.00    -0.285 N 
ATOM      9  C   UNL     1      -1.810  -7.012   0.052  0.00  0.00    +0.218 C 
ATOM     10  O   UNL     1      -2.906  -6.497  -0.006  0.00  0.00    -0.275 OA
ATOM     11  H   UNL     1       0.160  -6.657   0.291  0.00  0.00    +0.155 HD
BRANCH   8  15
ATOM     12  C   UNL     1      -1.047  -2.089   0.076  0.00  0.00    +0.033 A 
ATOM     13  C   UNL     1       0.067  -2.709  -0.473  0.00  0.00    +0.025 A 
ATOM     14  C   UNL     1       0.179  -4.084  -0.440  0.00  0.00    +0.025 A 
ATOM     15  C   UNL     1      -0.823  -4.848   0.143  0.00  0.00    +0.034 A 
ATOM     16  C   UNL     1      -1.938  -4.229   0.693  0.00  0.00    +0.025 A 
ATOM     17  C   UNL     1      -2.047  -2.853   0.665  0.00  0.00    +0.025 A 
BRANCH  12  21
ATOM     18  C   UNL     1      -1.766   1.468   1.082  0.00  0.00    +0.109 C 
ATOM     19  C   UNL     1      -1.737  -0.039   1.070  0.00  0.00    +0.214 C 
ATOM     20  O   UNL     1      -2.232  -0.662   1.985  0.00  0.00    -0.276 OA
ATOM     21  N   UNL     1      -1.161  -0.693   0.042  0.00  0.00    -0.286 N 
ATOM     22  H   UNL     1      -0.825  -0.198  -0.721  0.00  0.00    +0.155 HD
ENDBRANCH  12  21
ENDBRANCH   8  15
ENDBRANCH   1   9
BRANCH   5  23
ATOM     23  C   UNL     1      -4.266 -11.198  -0.428  0.00  0.00    +0.022 C 
BRANCH  23  24
ATOM     24  C   UNL     1      -4.124 -12.685  -0.626  0.00  0.00    +0.211 A 
ATOM     25  N   UNL     1      -4.155 -13.585   0.316  0.00  0.00    -0.193 NA
ATOM     26  C   UNL     1      -3.998 -14.811  -0.214  0.00  0.00    +0.202 A 
ATOM     27  N   UNL     1      -3.863 -14.693  -1.512  0.00  0.00    -0.056 NA
ATOM     28  O   UNL     1      -3.949 -13.305  -1.800  0.00  0.00    -0.340 OA
BRANCH  26  29
ATOM     29  C   UNL     1      -3.978 -16.086   0.546  0.00  0.00    +0.022 A 
ATOM     30  C   UNL     1      -4.137 -16.078   1.930  0.00  0.00    +0.012 A 
ATOM     31  C   UNL     1      -4.117 -17.266   2.632  0.00  0.00    +0.005 A 
ATOM     32  C   UNL     1      -3.941 -18.464   1.963  0.00  0.00    -0.042 A 
ATOM     33  C   UNL     1      -3.782 -18.478   0.589  0.00  0.00    +0.005 A 
ATOM     34  C   UNL     1      -3.806 -17.296  -0.123  0.00  0.00    +0.012 A 
BRANCH  32  35
ATOM     35  C   UNL     1      -3.920 -19.759   2.734  0.00  0.00    -0.013 C 
ATOM     36  C   UNL     1      -5.250 -19.936   3.469  0.00  0.00    +0.015 C 
ATOM     37  C   UNL     1      -3.711 -20.925   1.767  0.00  0.00    +0.015 C 
ATOM     38  C   UNL     1      -2.776 -19.728   3.751  0.00  0.00    +0.015 C 
ENDBRANCH  32  35
ENDBRANCH  26  29
ENDBRANCH  23  24
ENDBRANCH   5  23
TORSDOF 7
