REMARK  Name = ZINC20570485
REMARK  5 active torsions:
REMARK  status: ('A' for Active; 'I' for Inactive)
REMARK    1  A    between atoms: C_1  and  C_2
REMARK    2  A    between atoms: C_15  and  C_17
REMARK    3  A    between atoms: C_21  and  N_23
REMARK    4  A    between atoms: N_23  and  S_24
REMARK    5  A    between atoms: S_24  and  C_27
REMARK                            x       y       z     vdW  Elec       q    Type
REMARK                         _______ _______ _______ _____ _____    ______ ____
ROOT
ATOM      1  C   UNL     1       9.986   0.017  -0.096  0.00  0.00    +0.039 A 
ATOM      2  C   UNL     1      10.244  -1.355  -0.106  0.00  0.00    +0.013 A 
ATOM      3  C   UNL     1      11.546  -1.812  -0.121  0.00  0.00    +0.003 A 
ATOM      4  C   UNL     1      12.598  -0.915  -0.127  0.00  0.00    +0.024 A 
ATOM      5  C   UNL     1      12.352   0.453  -0.118  0.00  0.00    +0.049 A 
ATOM      6  C   UNL     1      11.047   0.922  -0.108  0.00  0.00    +0.037 A 
ENDROOT
BRANCH   1  21
ATOM      7  C   UNL     1      -1.167  -0.956   0.007  0.00  0.00    +0.073 C 
ATOM      8  C   UNL     1       0.002  -0.004   0.002  0.00  0.00    +0.076 A 
ATOM      9  N   UNL     1       1.274  -0.285  -0.012  0.00  0.00    -0.243 NA
ATOM     10  C   UNL     1       2.231   0.667  -0.016  0.00  0.00    +0.094 A 
ATOM     11  C   UNL     1       1.734   1.991  -0.004  0.00  0.00    +0.040 A 
ATOM     12  S   UNL     1      -0.021   1.732   0.012  0.00  0.00    -0.072 S 
ATOM     13  C   UNL     1       2.572   3.083  -0.006  0.00  0.00    +0.019 A 
ATOM     14  C   UNL     1       3.924   2.934  -0.020  0.00  0.00    +0.030 A 
ATOM     15  C   UNL     1       4.505   1.637  -0.033  0.00  0.00    +0.082 A 
ATOM     16  C   UNL     1       3.628   0.541  -0.030  0.00  0.00    +0.067 A 
ATOM     17  S   UNL     1       4.740  -0.844  -0.049  0.00  0.00    -0.050 S 
ATOM     18  C   UNL     1       6.261   0.094  -0.059  0.00  0.00    +0.166 A 
ATOM     19  N   UNL     1       5.824   1.331  -0.048  0.00  0.00    -0.224 NA
ATOM     20  N   UNL     1       7.568  -0.367  -0.074  0.00  0.00    -0.261 N 
ATOM     21  C   UNL     1       8.592   0.509  -0.080  0.00  0.00    +0.250 C 
ATOM     22  O   UNL     1       8.369   1.704  -0.072  0.00  0.00    -0.270 OA
ATOM     23  H   UNL     1       7.769  -1.449  -0.082  0.00  0.00    +0.157 HD
ENDBRANCH   1  21
BRANCH   5  24
ATOM     24  N   UNL     1      13.419   1.355  -0.124  0.00  0.00    -0.216 N 
ATOM     25  H   UNL     1      13.411   2.221   0.554  0.00  0.00    +0.174 HD
BRANCH  24  26
ATOM     26  S   UNL     1      14.695   1.120  -1.152  0.00  0.00    +0.072 S 
ATOM     27  O   UNL     1      15.590   2.204  -0.942  0.00  0.00    -0.150 OA
ATOM     28  O   UNL     1      15.093  -0.236  -1.003  0.00  0.00    -0.150 OA
BRANCH  26  29
ATOM     29  C   UNL     1      14.079   1.287  -2.794  0.00  0.00    +0.109 A 
ATOM     30  C   UNL     1      13.604   0.179  -3.470  0.00  0.00    +0.031 A 
ATOM     31  C   UNL     1      13.116   0.309  -4.756  0.00  0.00    +0.040 A 
ATOM     32  C   UNL     1      13.113   1.549  -5.372  0.00  0.00    +0.124 A 
ATOM     33  C   UNL     1      13.595   2.658  -4.697  0.00  0.00    +0.040 A 
ATOM     34  C   UNL     1      14.077   2.526  -3.408  0.00  0.00    +0.031 A 
ATOM     35  F   UNL     1      12.641   1.677  -6.631  0.00  0.00    -0.205 F 
ENDBRANCH  26  29
ENDBRANCH  24  26
ENDBRANCH   5  24
TORSDOF 4
