REMARK  Name = ZINC40157753
REMARK  9 active torsions:
REMARK  status: ('A' for Active; 'I' for Inactive)
REMARK    1  A    between atoms: C_1  and  O_2
REMARK    2  A    between atoms: O_2  and  C_3
REMARK    3  A    between atoms: C_6  and  N_11
REMARK    4  A    between atoms: C_8  and  O_9
REMARK    5  A    between atoms: O_9  and  C_10
REMARK    6  A    between atoms: N_11  and  S_12
REMARK    7  A    between atoms: S_12  and  C_15
REMARK    8  A    between atoms: C_18  and  N_21
REMARK    9  A    between atoms: C_22  and  C_24
REMARK                            x       y       z     vdW  Elec       q    Type
REMARK                         _______ _______ _______ _____ _____    ______ ____
ROOT
ATOM      1  C   UNL     1      -5.558  -2.360  -2.617  0.00  0.00    +0.109 A 
ATOM      2  C   UNL     1      -5.013  -1.321  -3.350  0.00  0.00    +0.030 A 
ATOM      3  C   UNL     1      -4.594  -1.535  -4.648  0.00  0.00    +0.025 A 
ATOM      4  C   UNL     1      -4.720  -2.796  -5.218  0.00  0.00    +0.034 A 
ATOM      5  C   UNL     1      -5.267  -3.837  -4.479  0.00  0.00    +0.025 A 
ATOM      6  C   UNL     1      -5.679  -3.617  -3.179  0.00  0.00    +0.030 A 
ENDROOT
BRANCH   4   7
ATOM      7  N   UNL     1      -4.297  -3.016  -6.532  0.00  0.00    -0.281 N 
ATOM      8  C   UNL     1      -4.951  -3.901  -7.311  0.00  0.00    +0.255 C 
ATOM      9  O   UNL     1      -5.965  -4.436  -6.904  0.00  0.00    -0.269 OA
ATOM     10  H   UNL     1      -3.534  -2.532  -6.884  0.00  0.00    +0.155 HD
BRANCH   8  11
ATOM     11  C   UNL     1      -4.439  -4.218  -8.652  0.00  0.00    +0.075 A 
ATOM     12  C   UNL     1      -4.957  -5.071  -9.576  0.00  0.00    +0.029 A 
ATOM     13  C   UNL     1      -4.312  -5.238 -10.815  0.00  0.00    -0.007 A 
ATOM     14  C   UNL     1      -4.692  -6.073 -11.897  0.00  0.00    +0.047 A 
ATOM     15  C   UNL     1      -3.950  -6.119 -13.035  0.00  0.00    +0.124 A 
ATOM     16  C   UNL     1      -2.796  -5.355 -13.182  0.00  0.00    +0.039 A 
ATOM     17  C   UNL     1      -2.391  -4.530 -12.153  0.00  0.00    +0.018 A 
ATOM     18  C   UNL     1      -3.135  -4.474 -10.994  0.00  0.00    +0.020 A 
ATOM     19  S   UNL     1      -2.990  -3.575  -9.470  0.00  0.00    -0.084 S 
ATOM     20  F   UNL     1      -4.340  -6.925 -14.046  0.00  0.00    -0.205 F 
ENDBRANCH   8  11
ENDBRANCH   4   7
BRANCH   1  21
ATOM     21  S   UNL     1      -6.091  -2.082  -0.961  0.00  0.00    +0.072 S 
ATOM     22  O   UNL     1      -7.060  -3.080  -0.673  0.00  0.00    -0.150 OA
ATOM     23  O   UNL     1      -6.373  -0.693  -0.853  0.00  0.00    -0.150 OA
BRANCH  21  24
ATOM     24  N   UNL     1      -4.796  -2.380   0.027  0.00  0.00    -0.216 N 
ATOM     25  H   UNL     1      -4.826  -3.119   0.655  0.00  0.00    +0.174 HD
BRANCH  24  29
ATOM     26  C   UNL     1      -1.412   0.050  -0.183  0.00  0.00    +0.162 A 
ATOM     27  C   UNL     1      -2.675   0.619  -0.169  0.00  0.00    +0.051 A 
ATOM     28  C   UNL     1      -3.797  -0.186  -0.099  0.00  0.00    +0.028 A 
ATOM     29  C   UNL     1      -3.660  -1.567  -0.043  0.00  0.00    +0.052 A 
ATOM     30  C   UNL     1      -2.396  -2.140  -0.057  0.00  0.00    +0.074 A 
ATOM     31  C   UNL     1      -1.272  -1.334  -0.133  0.00  0.00    +0.163 A 
BRANCH  26  33
ATOM     32  C   UNL     1      -0.527   2.255  -0.300  0.00  0.00    +0.277 C 
ATOM     33  O   UNL     1      -0.309   0.843  -0.251  0.00  0.00    -0.491 OA
ENDBRANCH  26  33
BRANCH  31  34
ATOM     34  O   UNL     1      -0.033  -1.893  -0.152  0.00  0.00    -0.491 OA
ATOM     35  C   UNL     1       0.036  -3.320  -0.098  0.00  0.00    +0.277 C 
ENDBRANCH  31  34
ENDBRANCH  24  29
ENDBRANCH  21  24
ENDBRANCH   1  21
TORSDOF 7
