REMARK  Name = ZINC14482279
REMARK  9 active torsions:
REMARK  status: ('A' for Active; 'I' for Inactive)
REMARK    1  A    between atoms: C_1  and  C_2
REMARK    2  A    between atoms: C_5  and  S_9
REMARK    3  A    between atoms: C_7  and  C_8
REMARK    4  A    between atoms: S_9  and  N_12
REMARK    5  A    between atoms: N_12  and  C_13
REMARK    6  A    between atoms: C_16  and  C_19
REMARK    7  A    between atoms: N_21  and  C_22
REMARK    8  A    between atoms: C_26  and  C_28
REMARK    9  A    between atoms: N_30  and  C_31
REMARK                            x       y       z     vdW  Elec       q    Type
REMARK                         _______ _______ _______ _____ _____    ______ ____
ROOT
ATOM      1  C   UNL     1      -3.748  -2.000   0.133  0.00  0.00    +0.048 A 
ATOM      2  C   UNL     1      -2.674  -2.858  -0.086  0.00  0.00    +0.025 A 
ATOM      3  C   UNL     1      -1.392  -2.360  -0.138  0.00  0.00    +0.015 A 
ATOM      4  C   UNL     1      -1.169  -0.990   0.031  0.00  0.00    +0.037 A 
ATOM      5  C   UNL     1      -2.249  -0.131   0.257  0.00  0.00    +0.015 A 
ATOM      6  C   UNL     1      -3.529  -0.635   0.302  0.00  0.00    +0.025 A 
ENDROOT
BRANCH   4   7
ATOM      7  C   UNL     1       0.203  -0.452  -0.023  0.00  0.00    +0.248 C 
ATOM      8  O   UNL     1       1.142  -1.200  -0.214  0.00  0.00    -0.270 OA
ATOM      9  N   UNL     1       0.416   0.869   0.140  0.00  0.00    -0.281 N 
ATOM     10  H   UNL     1      -0.336   1.476   0.213  0.00  0.00    +0.155 HD
BRANCH   9  11
ATOM     11  C   UNL     1       1.723   1.364   0.198  0.00  0.00    +0.034 A 
ATOM     12  C   UNL     1       2.011   2.625  -0.311  0.00  0.00    +0.023 A 
ATOM     13  C   UNL     1       3.301   3.120  -0.256  0.00  0.00    +0.003 A 
ATOM     14  C   UNL     1       4.311   2.365   0.305  0.00  0.00    +0.013 A 
ATOM     15  C   UNL     1       4.032   1.097   0.819  0.00  0.00    +0.038 A 
ATOM     16  C   UNL     1       2.730   0.600   0.768  0.00  0.00    +0.036 A 
BRANCH  15  17
ATOM     17  C   UNL     1       5.112   0.286   1.421  0.00  0.00    +0.244 C 
ATOM     18  O   UNL     1       4.867  -0.817   1.867  0.00  0.00    -0.270 OA
ATOM     19  N   UNL     1       6.369   0.771   1.474  0.00  0.00    -0.308 N 
ATOM     20  H   UNL     1       6.564   1.652   1.117  0.00  0.00    +0.149 HD
BRANCH  19  21
ATOM     21  C   UNL     1       7.439  -0.032   2.070  0.00  0.00    +0.073 C 
ATOM     22  C   UNL     1       8.417   0.678   3.008  0.00  0.00    +0.024 C 
ATOM     23  C   UNL     1       8.872   0.248   1.612  0.00  0.00    +0.024 C 
ENDBRANCH  19  21
ENDBRANCH  15  17
ENDBRANCH   9  11
ENDBRANCH   4   7
BRANCH   1  24
ATOM     24  N   UNL     1      -5.042  -2.507   0.184  0.00  0.00    -0.216 N 
ATOM     25  H   UNL     1      -5.338  -3.147  -0.481  0.00  0.00    +0.174 HD
BRANCH  24  26
ATOM     26  S   UNL     1      -6.075  -2.018   1.382  0.00  0.00    +0.072 S 
ATOM     27  O   UNL     1      -6.055  -0.597   1.382  0.00  0.00    -0.150 OA
ATOM     28  O   UNL     1      -7.274  -2.762   1.213  0.00  0.00    -0.150 OA
BRANCH  26  33
ATOM     29  C   UNL     1      -3.682  -3.776   6.634  0.00  0.00    +0.044 C 
ATOM     30  C   UNL     1      -4.279  -3.337   5.322  0.00  0.00    -0.047 A 
ATOM     31  C   UNL     1      -5.051  -4.216   4.585  0.00  0.00    +0.005 A 
ATOM     32  C   UNL     1      -5.603  -3.812   3.385  0.00  0.00    +0.029 A 
ATOM     33  C   UNL     1      -5.376  -2.531   2.916  0.00  0.00    +0.109 A 
ATOM     34  C   UNL     1      -4.606  -1.652   3.653  0.00  0.00    +0.032 A 
ATOM     35  C   UNL     1      -4.057  -2.055   4.856  0.00  0.00    -0.046 A 
ATOM     36  C   UNL     1      -3.217  -1.096   5.660  0.00  0.00    +0.044 C 
ENDBRANCH  26  33
ENDBRANCH  24  26
ENDBRANCH   1  24
TORSDOF 7
