REMARK  Name = ZINC02788867
REMARK  7 active torsions:
REMARK  status: ('A' for Active; 'I' for Inactive)
REMARK    1  A    between atoms: C_1  and  N_2
REMARK    2  A    between atoms: C_5  and  C_7
REMARK    3  A    between atoms: C_10  and  C_26
REMARK    4  A    between atoms: N_12  and  C_20
REMARK    5  A    between atoms: C_15  and  N_19
REMARK    6  A    between atoms: C_16  and  C_17
REMARK    7  A    between atoms: C_26  and  C_27
REMARK                            x       y       z     vdW  Elec       q    Type
REMARK                         _______ _______ _______ _____ _____    ______ ____
ROOT
ATOM      1  C   UNL     1       1.887  -1.820  -0.027  0.00  0.00    +0.122 C 
ATOM      2  C   UNL     1       1.327  -0.421  -0.013  0.00  0.00    +0.058 A 
ATOM      3  C   UNL     1       0.002  -0.004   0.002  0.00  0.00    +0.148 A 
ATOM      4  N   UNL     1      -0.016   1.308   0.009  0.00  0.00    -0.162 NA
ATOM      5  N   UNL     1       1.310   1.771  -0.001  0.00  0.00    -0.199 N 
ATOM      6  C   UNL     1       2.122   0.691  -0.013  0.00  0.00    +0.230 A 
ATOM      7  O   UNL     1       3.476   0.624  -0.023  0.00  0.00    -0.423 OA
ATOM      8  C   UNL     1       4.043  -0.570   0.243  0.00  0.00    +0.201 C 
ATOM      9  C   UNL     1       3.365  -1.739   0.260  0.00  0.00    +0.100 C 
ENDROOT
BRANCH   1  14
ATOM     10  C   UNL     1      -0.078  -4.439  -3.832  0.00  0.00    +0.172 C 
ATOM     11  N   UNL     1       0.823  -3.581  -3.059  0.00  0.00    -0.274 N 
ATOM     12  C   UNL     1       1.956  -3.006  -3.515  0.00  0.00    +0.108 A 
ATOM     13  C   UNL     1       2.493  -2.292  -2.499  0.00  0.00    +0.045 A 
ATOM     14  C   UNL     1       1.665  -2.442  -1.382  0.00  0.00    +0.076 A 
ATOM     15  N   UNL     1       0.662  -3.212  -1.718  0.00  0.00    -0.176 NA
ENDBRANCH   1  14
BRANCH   5  16
ATOM     16  C   UNL     1       1.717   3.112   0.001  0.00  0.00    +0.069 A 
ATOM     17  C   UNL     1       2.865   3.489   0.685  0.00  0.00    +0.028 A 
ATOM     18  C   UNL     1       3.267   4.810   0.680  0.00  0.00    +0.002 A 
ATOM     19  C   UNL     1       2.522   5.759   0.004  0.00  0.00    +0.000 A 
ATOM     20  C   UNL     1       1.376   5.387  -0.674  0.00  0.00    +0.002 A 
ATOM     21  C   UNL     1       0.971   4.066  -0.677  0.00  0.00    +0.028 A 
ENDBRANCH   5  16
BRANCH   8  22
ATOM     22  N   UNL     1       5.389  -0.600   0.514  0.00  0.00    -0.328 N 
ATOM     23  H   UNL     1       5.903   0.223   0.510  0.00  0.00    +0.145 HD
ATOM     24  H   UNL     1       5.826  -1.443   0.710  0.00  0.00    +0.145 HD
ENDBRANCH   8  22
BRANCH   3  25
ATOM     25  C   UNL     1      -1.207  -0.904   0.008  0.00  0.00    +0.385 C 
ATOM     26  F   UNL     1      -1.198  -1.705  -1.139  0.00  0.00    -0.189 F 
ATOM     27  F   UNL     1      -1.177  -1.718   1.145  0.00  0.00    -0.189 F 
BRANCH  25  28
ATOM     28  C   UNL     1      -2.477  -0.051   0.024  0.00  0.00    +0.460 C 
ATOM     29  F   UNL     1      -2.507   0.763  -1.113  0.00  0.00    -0.165 F 
ATOM     30  F   UNL     1      -3.599  -0.886   0.030  0.00  0.00    -0.165 F 
ATOM     31  F   UNL     1      -2.486   0.750   1.171  0.00  0.00    -0.165 F 
ENDBRANCH  25  28
ENDBRANCH   3  25
BRANCH   9  32
ATOM     32  C   UNL     1       4.076  -2.944   0.561  0.00  0.00    +0.101 C 
ATOM     33  N   UNL     1       4.641  -3.901   0.799  0.00  0.00    -0.191 NA
ENDBRANCH   9  32
TORSDOF 6
