REMARK  Name = ZINC17903760
REMARK  5 active torsions:
REMARK  status: ('A' for Active; 'I' for Inactive)
REMARK    1  A    between atoms: C_1  and  C_2
REMARK    2  A    between atoms: N_15  and  C_18
REMARK    3  A    between atoms: C_21  and  C_24
REMARK    4  A    between atoms: N_26  and  C_27
REMARK    5  A    between atoms: C_32  and  C_33
REMARK                            x       y       z     vdW  Elec       q    Type
REMARK                         _______ _______ _______ _____ _____    ______ ____
ROOT
ATOM      1  C   UNL     1       4.052  -3.938   1.685  0.00  0.00    +0.044 A 
ATOM      2  C   UNL     1       4.515  -3.727   2.979  0.00  0.00    +0.025 A 
ATOM      3  C   UNL     1       5.647  -4.374   3.421  0.00  0.00    +0.015 A 
ATOM      4  C   UNL     1       6.331  -5.244   2.568  0.00  0.00    +0.037 A 
ATOM      5  C   UNL     1       5.864  -5.453   1.268  0.00  0.00    +0.015 A 
ATOM      6  C   UNL     1       4.728  -4.807   0.834  0.00  0.00    +0.025 A 
ENDROOT
BRANCH   1  17
ATOM      7  C   UNL     1      -0.124   1.385  -0.006  0.00  0.00    +0.039 C 
ATOM      8  C   UNL     1      -0.088  -0.122  -0.003  0.00  0.00    -0.072 C 
ATOM      9  C   UNL     1      -0.080  -0.913  -1.060  0.00  0.00    -0.023 C 
ATOM     10  C   UNL     1      -0.142  -2.383  -0.644  0.00  0.00    +0.025 C 
ATOM     11  C   UNL     1      -1.017  -2.160   0.679  0.00  0.00    +0.017 C 
ATOM     12  C   UNL     1      -0.046  -1.048   1.248  0.00  0.00    +0.028 C 
ATOM     13  C   UNL     1       1.369  -1.601   1.039  0.00  0.00    +0.095 C 
ATOM     14  C   UNL     1       1.072  -2.827   0.071  0.00  0.00    +0.095 C 
ATOM     15  C   UNL     1       2.369  -3.434  -0.026  0.00  0.00    +0.231 C 
ATOM     16  O   UNL     1       2.878  -3.959  -0.993  0.00  0.00    -0.274 OA
ATOM     17  N   UNL     1       2.903  -3.280   1.239  0.00  0.00    -0.210 N 
ATOM     18  C   UNL     1       2.147  -2.371   2.045  0.00  0.00    +0.231 C 
ATOM     19  O   UNL     1       2.134  -2.248   3.251  0.00  0.00    -0.274 OA
ENDBRANCH   1  17
BRANCH   4  20
ATOM     20  C   UNL     1       7.545  -5.939   3.039  0.00  0.00    +0.248 C 
ATOM     21  O   UNL     1       7.951  -5.755   4.170  0.00  0.00    -0.270 OA
ATOM     22  N   UNL     1       8.204  -6.777   2.214  0.00  0.00    -0.281 N 
ATOM     23  H   UNL     1       7.846  -6.974   1.335  0.00  0.00    +0.155 HD
BRANCH  22  24
ATOM     24  C   UNL     1       9.399  -7.360   2.625  0.00  0.00    +0.048 A 
ATOM     25  C   UNL     1       9.579  -7.721   3.953  0.00  0.00    +0.024 A 
ATOM     26  C   UNL     1      10.764  -8.300   4.358  0.00  0.00    +0.002 A 
ATOM     27  C   UNL     1      11.784  -8.524   3.446  0.00  0.00    +0.001 A 
ATOM     28  C   UNL     1      11.625  -8.172   2.124  0.00  0.00    +0.017 A 
ATOM     29  C   UNL     1      10.427  -7.591   1.696  0.00  0.00    +0.084 A 
BRANCH  29  30
ATOM     30  C   UNL     1      10.247  -7.219   0.284  0.00  0.00    +0.388 C 
ATOM     31  O   UNL     1      11.104  -7.510  -0.539  0.00  0.00    -0.241 OA
ATOM     32  O   UNL     1       9.241  -6.618  -0.067  0.00  0.00    -0.241 OA
ENDBRANCH  29  30
ENDBRANCH  22  24
ENDBRANCH   4  20
TORSDOF 4
