REMARK  Name = ZINC27637487
REMARK  8 active torsions:
REMARK  status: ('A' for Active; 'I' for Inactive)
REMARK    1  A    between atoms: C_1  and  C_2
REMARK    2  A    between atoms: C_2  and  C_3
REMARK    3  A    between atoms: C_2  and  C_4
REMARK    4  A    between atoms: C_7  and  N_10
REMARK    5  A    between atoms: C_11  and  C_13
REMARK    6  A    between atoms: C_16  and  N_19
REMARK    7  A    between atoms: N_19  and  S_20
REMARK    8  A    between atoms: S_20  and  C_23
REMARK                            x       y       z     vdW  Elec       q    Type
REMARK                         _______ _______ _______ _____ _____    ______ ____
ROOT
ATOM      1  C   UNL     1      -1.112  -0.954   0.552  0.00  0.00    +0.037 A 
ATOM      2  C   UNL     1      -2.311  -0.234   0.547  0.00  0.00    +0.015 A 
ATOM      3  C   UNL     1      -3.513  -0.903   0.511  0.00  0.00    +0.025 A 
ATOM      4  C   UNL     1      -3.536  -2.295   0.491  0.00  0.00    +0.048 A 
ATOM      5  C   UNL     1      -2.344  -3.015   0.502  0.00  0.00    +0.025 A 
ATOM      6  C   UNL     1      -1.139  -2.352   0.533  0.00  0.00    +0.015 A 
ENDROOT
BRANCH   1   8
ATOM      7  N   UNL     1       0.202   1.108   0.604  0.00  0.00    -0.282 N 
ATOM      8  C   UNL     1       0.178  -0.240   0.585  0.00  0.00    +0.248 C 
ATOM      9  O   UNL     1       1.220  -0.867   0.594  0.00  0.00    -0.270 OA
ATOM     10  H   UNL     1      -0.736   1.676   0.517  0.00  0.00    +0.155 HD
BRANCH   7  14
ATOM     11  C   UNL     1       3.829   3.120   0.990  0.00  0.00    -0.045 A 
ATOM     12  C   UNL     1       3.767   1.941   0.270  0.00  0.00    +0.006 A 
ATOM     13  C   UNL     1       2.567   1.271   0.141  0.00  0.00    +0.023 A 
ATOM     14  C   UNL     1       1.420   1.783   0.734  0.00  0.00    +0.034 A 
ATOM     15  C   UNL     1       1.484   2.971   1.451  0.00  0.00    +0.023 A 
ATOM     16  C   UNL     1       2.689   3.633   1.581  0.00  0.00    +0.006 A 
BRANCH  11  18
ATOM     17  C   UNL     1       5.013   5.251   0.532  0.00  0.00    +0.012 C 
ATOM     18  C   UNL     1       5.141   3.848   1.130  0.00  0.00    +0.013 C 
ATOM     19  C   UNL     1       5.508   3.957   2.611  0.00  0.00    +0.012 C 
ENDBRANCH  11  18
ENDBRANCH   7  14
ENDBRANCH   1   8
BRANCH   4  20
ATOM     20  N   UNL     1      -4.753  -2.968   0.461  0.00  0.00    -0.216 N 
ATOM     21  H   UNL     1      -4.898  -3.811  -0.231  0.00  0.00    +0.174 HD
BRANCH  20  22
ATOM     22  S   UNL     1      -5.983  -2.501   1.466  0.00  0.00    +0.072 S 
ATOM     23  O   UNL     1      -6.135  -1.099   1.297  0.00  0.00    -0.150 OA
ATOM     24  O   UNL     1      -7.050  -3.415   1.254  0.00  0.00    -0.150 OA
BRANCH  22  25
ATOM     25  C   UNL     1      -5.428  -2.752   3.120  0.00  0.00    +0.112 A 
ATOM     26  C   UNL     1      -5.559  -3.995   3.710  0.00  0.00    +0.032 A 
ATOM     27  C   UNL     1      -5.121  -4.201   5.006  0.00  0.00    +0.051 A 
ATOM     28  C   UNL     1      -4.559  -3.152   5.715  0.00  0.00    +0.162 A 
ATOM     29  C   UNL     1      -4.431  -1.903   5.124  0.00  0.00    +0.164 A 
ATOM     30  C   UNL     1      -4.867  -1.702   3.825  0.00  0.00    +0.078 A 
ATOM     31  O   UNL     1      -3.875  -0.877   5.831  0.00  0.00    -0.488 OA
ATOM     32  C   UNL     1      -4.640  -0.393   6.936  0.00  0.00    +0.232 C 
ATOM     33  C   UNL     1      -4.388  -1.235   8.177  0.00  0.00    +0.082 C 
ATOM     34  C   UNL     1      -4.872  -2.667   8.012  0.00  0.00    +0.232 C 
ATOM     35  O   UNL     1      -4.126  -3.340   6.995  0.00  0.00    -0.488 OA
ENDBRANCH  22  25
ENDBRANCH  20  22
ENDBRANCH   4  20
TORSDOF 6
