REMARK  Name = ZINC42620557
REMARK  3 active torsions:
REMARK  status: ('A' for Active; 'I' for Inactive)
REMARK    1  A    between atoms: C_3  and  N_11
REMARK    2  A    between atoms: C_5  and  N_7
REMARK    3  A    between atoms: C_12  and  C_14
REMARK                            x       y       z     vdW  Elec       q    Type
REMARK                         _______ _______ _______ _____ _____    ______ ____
ROOT
ATOM      1  C   UNL     1       0.329   1.288  -0.030  0.00  0.00    +0.004 A 
ATOM      2  C   UNL     1       1.574   1.876   0.087  0.00  0.00    +0.023 A 
ATOM      3  C   UNL     1       2.696   1.090   0.321  0.00  0.00    +0.035 A 
ATOM      4  C   UNL     1       2.565  -0.286   0.437  0.00  0.00    +0.046 A 
ATOM      5  C   UNL     1       1.313  -0.873   0.319  0.00  0.00    +0.037 A 
ATOM      6  C   UNL     1       0.196  -0.082   0.085  0.00  0.00    +0.023 A 
ENDROOT
BRANCH   5   7
ATOM      7  N   UNL     1       1.177  -2.261   0.435  0.00  0.00    -0.270 N 
ATOM      8  C   UNL     1       1.986  -2.951   1.263  0.00  0.00    +0.301 C 
ATOM      9  O   UNL     1       2.768  -2.359   1.982  0.00  0.00    -0.253 OA
ATOM     10  N   UNL     1       1.928  -4.297   1.296  0.00  0.00    -0.313 N 
ATOM     11  H   UNL     1       0.500  -2.727  -0.081  0.00  0.00    +0.156 HD
ATOM     12  H   UNL     1       1.304  -4.770   0.723  0.00  0.00    +0.146 HD
ATOM     13  H   UNL     1       2.510  -4.794   1.892  0.00  0.00    +0.146 HD
ENDBRANCH   5   7
BRANCH   3  14
ATOM     14  N   UNL     1       3.956   1.686   0.439  0.00  0.00    -0.281 N 
ATOM     15  C   UNL     1       4.079   2.889   1.034  0.00  0.00    +0.254 C 
ATOM     16  O   UNL     1       3.088   3.494   1.393  0.00  0.00    -0.270 OA
ATOM     17  H   UNL     1       4.740   1.233   0.093  0.00  0.00    +0.155 HD
BRANCH  15  18
ATOM     18  C   UNL     1       5.417   3.471   1.250  0.00  0.00    +0.107 A 
ATOM     19  C   UNL     1       5.992   4.294   0.276  0.00  0.00    +0.138 A 
ATOM     20  C   UNL     1       7.246   4.835   0.486  0.00  0.00    +0.039 A 
ATOM     21  C   UNL     1       7.933   4.566   1.656  0.00  0.00    +0.006 A 
ATOM     22  C   UNL     1       7.372   3.753   2.625  0.00  0.00    +0.039 A 
ATOM     23  C   UNL     1       6.117   3.208   2.433  0.00  0.00    +0.138 A 
ATOM     24  F   UNL     1       5.569   2.418   3.383  0.00  0.00    -0.205 F 
ATOM     25  F   UNL     1       5.324   4.558  -0.868  0.00  0.00    -0.205 F 
ENDBRANCH  15  18
ENDBRANCH   3  14
TORSDOF 3
