REMARK  Name = ZINC13184320
REMARK  8 active torsions:
REMARK  status: ('A' for Active; 'I' for Inactive)
REMARK    1  A    between atoms: C_1  and  C_2
REMARK    2  A    between atoms: C_2  and  C_3
REMARK    3  A    between atoms: C_2  and  C_4
REMARK    4  A    between atoms: C_4  and  C_6
REMARK    5  A    between atoms: C_4  and  N_16
REMARK    6  A    between atoms: N_16  and  S_17
REMARK    7  A    between atoms: S_17  and  C_20
REMARK    8  A    between atoms: C_24  and  C_26
REMARK                            x       y       z     vdW  Elec       q    Type
REMARK                         _______ _______ _______ _____ _____    ______ ____
ROOT
ATOM      1  N   UNL     1      -4.712  -0.364   1.022  0.00  0.00    -0.182 NA
ATOM      2  H   UNL     1      -4.788   0.591   1.175  0.00  0.00    +0.149 HD
ENDROOT
BRANCH   1   3
ATOM      3  S   UNL     1      -5.640  -1.420   1.897  0.00  0.00    +0.059 S 
ATOM      4  O   UNL     1      -6.419  -0.634   2.788  0.00  0.00    -0.153 OA
ATOM      5  O   UNL     1      -6.225  -2.317   0.963  0.00  0.00    -0.153 OA
BRANCH   3   6
ATOM      6  C   UNL     1      -4.544  -2.374   2.893  0.00  0.00    +0.106 A 
ATOM      7  C   UNL     1      -4.026  -3.562   2.406  0.00  0.00    +0.029 A 
ATOM      8  C   UNL     1      -3.161  -4.315   3.179  0.00  0.00    +0.018 A 
ATOM      9  C   UNL     1      -2.816  -3.891   4.447  0.00  0.00    +0.032 A 
ATOM     10  C   UNL     1      -3.340  -2.696   4.947  0.00  0.00    +0.079 A 
ATOM     11  C   UNL     1      -4.209  -1.939   4.158  0.00  0.00    +0.044 A 
ATOM     12 BR   UNL     1      -1.638  -4.925   5.505  0.00  0.00    -0.049 Br
BRANCH  10  13
ATOM     13  C   UNL     1      -2.977  -2.236   6.302  0.00  0.00    +0.388 C 
ATOM     14  O   UNL     1      -2.221  -2.897   6.985  0.00  0.00    -0.241 OA
ATOM     15  O   UNL     1      -3.484  -1.083   6.780  0.00  0.00    -0.241 OA
ENDBRANCH  10  13
ENDBRANCH   3   6
ENDBRANCH   1   3
BRANCH   1  16
ATOM     16  C   UNL     1      -3.777  -0.872   0.015  0.00  0.00    +0.109 C 
BRANCH  16  17
ATOM     17  C   UNL     1      -2.537  -0.015   0.004  0.00  0.00    -0.025 A 
ATOM     18  C   UNL     1      -2.645   1.357   0.135  0.00  0.00    +0.009 A 
ATOM     19  C   UNL     1      -1.511   2.147   0.121  0.00  0.00    +0.050 A 
ATOM     20  C   UNL     1      -0.260   1.564  -0.018  0.00  0.00    +0.162 A 
ATOM     21  C   UNL     1      -0.151   0.184  -0.149  0.00  0.00    +0.162 A 
ATOM     22  C   UNL     1      -1.294  -0.602  -0.138  0.00  0.00    +0.054 A 
ATOM     23  O   UNL     1       1.066  -0.408  -0.287  0.00  0.00    -0.485 OA
ATOM     24  C   UNL     1       2.155   0.439  -0.669  0.00  0.00    +0.270 C 
ATOM     25  C   UNL     1       2.104   1.706   0.196  0.00  0.00    +0.270 C 
ATOM     26  O   UNL     1       0.848   2.354  -0.032  0.00  0.00    -0.485 OA
ENDBRANCH  16  17
BRANCH  16  28
ATOM     27  C   UNL     1      -4.811   0.615  -1.707  0.00  0.00    +0.009 C 
ATOM     28  C   UNL     1      -4.439  -0.829  -1.364  0.00  0.00    +0.006 C 
ATOM     29  C   UNL     1      -3.465  -1.368  -2.414  0.00  0.00    +0.009 C 
ENDBRANCH  16  28
ENDBRANCH   1  16
TORSDOF 6
