REMARK  Name = ZINC32971158
REMARK  8 active torsions:
REMARK  status: ('A' for Active; 'I' for Inactive)
REMARK    1  A    between atoms: C_1  and  C_2
REMARK    2  A    between atoms: C_6  and  N_8
REMARK    3  A    between atoms: N_11  and  C_16
REMARK    4  A    between atoms: C_13  and  C_15
REMARK    5  A    between atoms: C_19  and  C_33
REMARK    6  A    between atoms: C_21  and  N_22
REMARK    7  A    between atoms: N_22  and  S_23
REMARK    8  A    between atoms: S_23  and  C_26
REMARK                            x       y       z     vdW  Elec       q    Type
REMARK                         _______ _______ _______ _____ _____    ______ ____
ROOT
ATOM      1  C   UNL     1      -0.811   1.676  -0.902  0.00  0.00    +0.052 A 
ATOM      2  C   UNL     1      -0.395   1.255  -2.159  0.00  0.00    +0.026 A 
ATOM      3  C   UNL     1      -1.097   1.631  -3.283  0.00  0.00    +0.017 A 
ATOM      4  C   UNL     1      -2.224   2.449  -3.163  0.00  0.00    +0.065 A 
ATOM      5  C   UNL     1      -2.641   2.880  -1.899  0.00  0.00    +0.041 A 
ATOM      6  C   UNL     1      -1.938   2.494  -0.774  0.00  0.00    +0.070 A 
ENDROOT
BRANCH   1  10
ATOM      7  N   UNL     1       1.953  -0.085   1.647  0.00  0.00    -0.324 N 
ATOM      8  C   UNL     1       0.559  -0.545   1.715  0.00  0.00    +0.124 C 
ATOM      9  C   UNL     1      -0.164  -0.168   0.419  0.00  0.00    +0.124 C 
ATOM     10  N   UNL     1      -0.102   1.288   0.232  0.00  0.00    -0.325 N 
ATOM     11  C   UNL     1       1.292   1.748   0.164  0.00  0.00    +0.127 C 
ATOM     12  C   UNL     1       2.015   1.372   1.460  0.00  0.00    +0.088 C 
ATOM     13  C   UNL     1       3.477   1.814   1.377  0.00  0.00    +0.029 C 
BRANCH   7  19
ATOM     14  C   UNL     1       2.422  -0.113   6.539  0.00  0.00    +0.044 C 
ATOM     15  C   UNL     1       2.915  -0.501   5.169  0.00  0.00    -0.049 A 
ATOM     16  C   UNL     1       4.074  -1.245   5.037  0.00  0.00    +0.003 A 
ATOM     17  C   UNL     1       4.530  -1.604   3.781  0.00  0.00    +0.002 A 
ATOM     18  C   UNL     1       3.828  -1.221   2.655  0.00  0.00    +0.023 A 
ATOM     19  C   UNL     1       2.664  -0.474   2.784  0.00  0.00    +0.030 A 
ATOM     20  C   UNL     1       2.212  -0.110   4.047  0.00  0.00    +0.026 A 
ENDBRANCH   7  19
ENDBRANCH   1  10
BRANCH   4  21
ATOM     21  C   UNL     1      -2.972   2.857  -4.366  0.00  0.00    +0.387 C 
ATOM     22  O   UNL     1      -3.952   3.568  -4.260  0.00  0.00    -0.241 OA
ATOM     23  O   UNL     1      -2.569   2.442  -5.583  0.00  0.00    -0.241 OA
ENDBRANCH   4  21
BRANCH   6  24
ATOM     24  N   UNL     1      -2.352   2.922   0.493  0.00  0.00    -0.214 N 
ATOM     25  H   UNL     1      -1.606   3.153   1.267  0.00  0.00    +0.174 HD
BRANCH  24  26
ATOM     26  S   UNL     1      -3.967   3.082   0.825  0.00  0.00    +0.072 S 
ATOM     27  O   UNL     1      -4.067   3.397   2.208  0.00  0.00    -0.150 OA
ATOM     28  O   UNL     1      -4.509   3.918  -0.188  0.00  0.00    -0.150 OA
BRANCH  26  29
ATOM     29  C   UNL     1      -4.702   1.495   0.615  0.00  0.00    +0.109 A 
ATOM     30  C   UNL     1      -5.207   1.125  -0.617  0.00  0.00    +0.031 A 
ATOM     31  C   UNL     1      -5.779  -0.121  -0.785  0.00  0.00    +0.040 A 
ATOM     32  C   UNL     1      -5.856  -0.997   0.285  0.00  0.00    +0.124 A 
ATOM     33  C   UNL     1      -5.354  -0.624   1.521  0.00  0.00    +0.040 A 
ATOM     34  C   UNL     1      -4.777   0.622   1.684  0.00  0.00    +0.031 A 
ATOM     35  F   UNL     1      -6.419  -2.214   0.124  0.00  0.00    -0.205 F 
ENDBRANCH  26  29
ENDBRANCH  24  26
ENDBRANCH   6  24
TORSDOF 6
