REMARK  Name = ZINC38547071
REMARK  11 active torsions:
REMARK  status: ('A' for Active; 'I' for Inactive)
REMARK    1  A    between atoms: C_1  and  C_2
REMARK    2  A    between atoms: C_2  and  C_3
REMARK    3  A    between atoms: C_5  and  C_17
REMARK    4  A    between atoms: C_6  and  N_8
REMARK    5  A    between atoms: C_9  and  C_11
REMARK    6  A    between atoms: C_17  and  C_19
REMARK    7  A    between atoms: C_17  and  N_29
REMARK    8  A    between atoms: C_23  and  O_27
REMARK    9  A    between atoms: C_24  and  O_25
REMARK   10  A    between atoms: O_25  and  C_26
REMARK   11  A    between atoms: O_27  and  C_28
REMARK                            x       y       z     vdW  Elec       q    Type
REMARK                         _______ _______ _______ _____ _____    ______ ____
ROOT
ATOM      1  C   UNL     1       0.664  -1.570   4.928  0.00  0.00    +0.138 C 
ENDROOT
BRANCH   1   2
ATOM      2  N   UNL     1      -0.742  -1.968   4.827  0.00  0.00    -0.319 N 
ATOM      3  C   UNL     1      -1.704  -1.036   4.456  0.00  0.00    +0.097 A 
ATOM      4  C   UNL     1      -1.308   0.208   3.974  0.00  0.00    +0.041 A 
ATOM      5  C   UNL     1      -2.276   1.126   3.608  0.00  0.00    +0.005 A 
ATOM      6  C   UNL     1      -3.611   0.768   3.737  0.00  0.00    +0.018 A 
ATOM      7  C   UNL     1      -3.933  -0.483   4.222  0.00  0.00    +0.084 A 
ATOM      8  N   UNL     1      -2.988  -1.342   4.559  0.00  0.00    -0.350 N 
ATOM      9  H   UNL     1      -1.002  -2.883   5.019  0.00  0.00    +0.148 HD
ATOM     10  H   UNL     1      -3.241  -2.216   4.893  0.00  0.00    +0.166 HD
ENDBRANCH   1   2
BRANCH   1  11
ATOM     11  C   UNL     1       0.796  -0.440   5.917  0.00  0.00    +0.022 A 
ATOM     12  C   UNL     1       1.042   0.845   5.469  0.00  0.00    +0.009 A 
ATOM     13  C   UNL     1       1.163   1.884   6.373  0.00  0.00    +0.004 A 
ATOM     14  C   UNL     1       1.039   1.642   7.729  0.00  0.00    +0.049 A 
ATOM     15  C   UNL     1       0.792   0.358   8.184  0.00  0.00    +0.162 A 
ATOM     16  C   UNL     1       0.664  -0.687   7.274  0.00  0.00    +0.167 A 
BRANCH  16  17
ATOM     17  O   UNL     1       0.416  -1.950   7.715  0.00  0.00    -0.491 OA
ATOM     18  C   UNL     1       1.544  -2.731   8.114  0.00  0.00    +0.277 C 
ENDBRANCH  16  17
BRANCH  15  19
ATOM     19  O   UNL     1       0.670   0.119   9.517  0.00  0.00    -0.491 OA
ATOM     20  C   UNL     1       0.808   1.240  10.393  0.00  0.00    +0.277 C 
ENDBRANCH  15  19
ENDBRANCH   1  11
BRANCH   1  23
ATOM     21  C   UNL     1       0.868  -0.910   1.245  0.00  0.00    -0.008 A 
ATOM     22  C   UNL     1       0.396  -1.331   2.443  0.00  0.00    +0.019 A 
ATOM     23  C   UNL     1       1.156  -1.116   3.578  0.00  0.00    +0.006 A 
ATOM     24  C   UNL     1       2.358  -0.486   3.454  0.00  0.00    +0.077 A 
ATOM     25  S   UNL     1       2.438  -0.189   1.695  0.00  0.00    -0.078 S 
BRANCH  24  26
ATOM     26  N   UNL     1       3.288  -0.163   4.444  0.00  0.00    -0.276 N 
ATOM     27  C   UNL     1       4.377   0.569   4.133  0.00  0.00    +0.249 C 
ATOM     28  O   UNL     1       4.502   1.026   3.013  0.00  0.00    -0.270 OA
ATOM     29  H   UNL     1       3.151  -0.464   5.356  0.00  0.00    +0.156 HD
BRANCH  27  30
ATOM     30  C   UNL     1       5.418   0.814   5.152  0.00  0.00    +0.037 A 
ATOM     31  C   UNL     1       5.231   0.379   6.465  0.00  0.00    +0.013 A 
ATOM     32  C   UNL     1       6.207   0.611   7.411  0.00  0.00    +0.001 A 
ATOM     33  C   UNL     1       7.370   1.273   7.062  0.00  0.00    +0.000 A 
ATOM     34  C   UNL     1       7.563   1.708   5.762  0.00  0.00    +0.001 A 
ATOM     35  C   UNL     1       6.597   1.477   4.805  0.00  0.00    +0.013 A 
ENDBRANCH  27  30
ENDBRANCH  24  26
BRANCH  21  37
ATOM     36  C   UNL     1      -0.622   0.211  -0.389  0.00  0.00    +0.009 C 
ATOM     37  C   UNL     1       0.234  -1.027  -0.117  0.00  0.00    +0.039 C 
ENDBRANCH  21  37
ENDBRANCH   1  23
TORSDOF 8
