REMARK  Name = ZINC11755771
REMARK  4 active torsions:
REMARK  status: ('A' for Active; 'I' for Inactive)
REMARK    1  A    between atoms: C_1  and  C_2
REMARK    2  A    between atoms: C_4  and  S_9
REMARK    3  A    between atoms: C_7  and  N_8
REMARK    4  A    between atoms: S_9  and  N_12
REMARK                            x       y       z     vdW  Elec       q    Type
REMARK                         _______ _______ _______ _____ _____    ______ ____
ROOT
ATOM      1  C   UNL     1      -3.562   0.460   3.728  0.00  0.00    +0.046 C 
ATOM      2  C   UNL     1      -2.560   1.407   3.119  0.00  0.00    -0.028 A 
ATOM      3  C   UNL     1      -1.846   1.032   1.999  0.00  0.00    +0.033 A 
ATOM      4  C   UNL     1      -0.927   1.900   1.439  0.00  0.00    +0.106 A 
ATOM      5  C   UNL     1      -0.716   3.146   2.003  0.00  0.00    +0.030 A 
ATOM      6  C   UNL     1      -1.431   3.530   3.120  0.00  0.00    +0.025 A 
ATOM      7  C   UNL     1      -2.355   2.659   3.684  0.00  0.00    +0.028 A 
ENDROOT
BRANCH   7   8
ATOM      8  N   UNL     1      -3.076   3.042   4.818  0.00  0.00    -0.358 N 
ATOM      9  H   UNL     1      -3.720   2.434   5.211  0.00  0.00    +0.142 HD
ATOM     10  H   UNL     1      -2.932   3.917   5.212  0.00  0.00    +0.142 HD
ENDBRANCH   7   8
BRANCH   4  11
ATOM     11  S   UNL     1      -0.017   1.417   0.010  0.00  0.00    +0.061 S 
ATOM     12  O   UNL     1       0.002  -0.004   0.002  0.00  0.00    -0.153 OA
ATOM     13  O   UNL     1       1.172   2.195   0.003  0.00  0.00    -0.153 OA
BRANCH  11  14
ATOM     14  N   UNL     1      -0.897   1.885  -1.312  0.00  0.00    -0.177 NA
ATOM     15  C   UNL     1      -1.909   1.071  -2.000  0.00  0.00    +0.109 C 
ATOM     16  C   UNL     1      -2.444   1.906  -3.183  0.00  0.00    +0.018 C 
ATOM     17  C   UNL     1      -1.295   2.918  -3.438  0.00  0.00    +0.018 C 
ATOM     18  C   UNL     1      -0.792   3.186  -1.998  0.00  0.00    +0.109 C 
ENDBRANCH  11  14
ENDBRANCH   4  11
TORSDOF 3
