REMARK  Name = ZINC13657884
REMARK  7 active torsions:
REMARK  status: ('A' for Active; 'I' for Inactive)
REMARK    1  A    between atoms: C_2  and  C_10
REMARK    2  A    between atoms: C_5  and  O_8
REMARK    3  A    between atoms: N_11  and  N_12
REMARK    4  A    between atoms: N_12  and  C_13
REMARK    5  A    between atoms: C_13  and  N_15
REMARK    6  A    between atoms: N_15  and  C_16
REMARK    7  A    between atoms: C_16  and  C_17
REMARK                            x       y       z     vdW  Elec       q    Type
REMARK                         _______ _______ _______ _____ _____    ______ ____
ROOT
ATOM      1  C   UNL     1       1.170   3.562   0.009  0.00  0.00    +0.138 C 
ATOM      2  N   UNL     1       2.287   4.223   0.002  0.00  0.00    -0.188 NA
ENDROOT
BRANCH   1   4
ATOM      3  C   UNL     1      -0.017   1.375   0.010  0.00  0.00    +0.028 A 
ATOM      4  C   UNL     1       1.185   2.088   0.002  0.00  0.00    -0.003 A 
ATOM      5  C   UNL     1       2.401   1.400  -0.013  0.00  0.00    +0.028 A 
ATOM      6  C   UNL     1       2.411   0.021  -0.021  0.00  0.00    +0.061 A 
ATOM      7  C   UNL     1       1.213  -0.684  -0.014  0.00  0.00    +0.145 A 
ATOM      8  C   UNL     1       0.002  -0.004   0.002  0.00  0.00    +0.061 A 
ATOM      9 BR   UNL     1      -1.623  -0.970   0.013  0.00  0.00    -0.046 Br
ATOM     10 BR   UNL     1       4.055  -0.912  -0.042  0.00  0.00    -0.046 Br
BRANCH   7  11
ATOM     11  O   UNL     1       1.227  -2.043  -0.022  0.00  0.00    -0.505 OA
ATOM     12  H   UNL     1       1.240  -2.442   0.859  0.00  0.00    +0.292 HD
ENDBRANCH   7  11
ENDBRANCH   1   4
BRANCH   2  13
ATOM     13  N   UNL     1       2.273   5.623   0.010  0.00  0.00    -0.218 N 
ATOM     14  H   UNL     1       1.428   6.100   0.020  0.00  0.00    +0.176 HD
BRANCH  13  15
ATOM     15  C   UNL     1       3.433   6.309   0.002  0.00  0.00    +0.150 C 
ATOM     16  S   UNL     1       3.415   8.021   0.011  0.00  0.00    -0.017 S 
BRANCH  15  17
ATOM     17  N   UNL     1       4.607   5.647  -0.012  0.00  0.00    -0.323 N 
ATOM     18  H   UNL     1       4.617   4.678  -0.017  0.00  0.00    +0.148 HD
BRANCH  17  19
ATOM     19  C   UNL     1       5.868   6.393  -0.020  0.00  0.00    +0.134 C 
BRANCH  19  20
ATOM     20  C   UNL     1       7.041   5.411  -0.036  0.00  0.00    +0.135 C 
ATOM     21  C   UNL     1       8.386   6.179  -0.009  0.00  0.00    +0.035 C 
ATOM     22  C   UNL     1       9.326   5.107   0.607  0.00  0.00    +0.031 C 
ATOM     23  C   UNL     1       8.386   4.372   1.586  0.00  0.00    +0.160 C 
ATOM     24  O   UNL     1       7.039   4.612   1.158  0.00  0.00    -0.375 OA
ENDBRANCH  19  20
ENDBRANCH  17  19
ENDBRANCH  15  17
ENDBRANCH  13  15
ENDBRANCH   2  13
TORSDOF 7
