REMARK  Name = ZINC63349897
REMARK  11 active torsions:
REMARK  status: ('A' for Active; 'I' for Inactive)
REMARK    1  A    between atoms: C_1  and  C_2
REMARK    2  A    between atoms: C_6  and  C_41
REMARK    3  A    between atoms: C_7  and  O_8
REMARK    4  A    between atoms: O_8  and  C_9
REMARK    5  A    between atoms: C_9  and  C_10
REMARK    6  A    between atoms: C_12  and  C_18
REMARK    7  A    between atoms: C_15  and  O_16
REMARK    8  A    between atoms: O_16  and  C_17
REMARK    9  A    between atoms: C_25  and  O_30
REMARK   10  A    between atoms: O_30  and  C_31
REMARK   11  A    between atoms: C_31  and  C_32
REMARK                            x       y       z     vdW  Elec       q    Type
REMARK                         _______ _______ _______ _____ _____    ______ ____
ROOT
ATOM      1  C   UNL     1       1.810   2.280   6.372  0.00  0.00    +0.111 C 
ATOM      2  C   UNL     1       2.169   1.351   7.534  0.00  0.00    +0.128 C 
ATOM      3  C   UNL     1       1.241   1.728   8.683  0.00  0.00    -0.035 C 
ATOM      4  C   UNL     1       0.636   0.611   9.059  0.00  0.00    +0.003 A 
ATOM      5  C   UNL     1      -0.297   0.318  10.158  0.00  0.00    +0.055 A 
ATOM      6  C   UNL     1      -0.749  -0.962  10.252  0.00  0.00    +0.122 A 
ATOM      7  C   UNL     1      -0.378  -1.991   9.373  0.00  0.00    +0.048 A 
ATOM      8  C   UNL     1       0.479  -1.833   8.332  0.00  0.00    +0.029 A 
ATOM      9  C   UNL     1       1.039  -0.490   8.130  0.00  0.00    +0.043 A 
ATOM     10  N   UNL     1       1.901  -0.055   7.234  0.00  0.00    -0.376 N 
ATOM     11  C   UNL     1       1.075   3.161   9.128  0.00  0.00    +0.048 C 
ATOM     12  C   UNL     1       0.844   3.985   7.848  0.00  0.00    +0.086 C 
ATOM     13  N   UNL     1       1.874   3.669   6.852  0.00  0.00    -0.307 NA
ATOM     14  H   UNL     1       2.794   3.889   7.202  0.00  0.00    +0.123 HD
ATOM     15  H   UNL     1       2.287  -0.563   6.503  0.00  0.00    +0.160 HD
ENDROOT
BRANCH   1  18
ATOM     16  C   UNL     1      -1.084   1.415   4.107  0.00  0.00    +0.032 A 
ATOM     17  C   UNL     1       0.193   1.697   4.553  0.00  0.00    +0.015 A 
ATOM     18  C   UNL     1       0.415   1.973   5.889  0.00  0.00    -0.028 A 
ATOM     19  C   UNL     1      -0.639   1.968   6.783  0.00  0.00    +0.009 A 
ATOM     20  C   UNL     1      -1.918   1.687   6.343  0.00  0.00    +0.046 A 
ATOM     21  C   UNL     1      -2.145   1.415   5.001  0.00  0.00    +0.126 A 
BRANCH  21  22
ATOM     22  O   UNL     1      -3.403   1.143   4.565  0.00  0.00    -0.495 OA
ATOM     23  C   UNL     1      -4.446   1.160   5.541  0.00  0.00    +0.277 C 
ENDBRANCH  21  22
BRANCH  16  24
ATOM     24  C   UNL     1      -1.326   1.114   2.651  0.00  0.00    +0.268 C 
BRANCH  24  25
ATOM     25  O   UNL     1      -0.087   1.175   1.940  0.00  0.00    -0.487 OA
BRANCH  25  32
ATOM     26  C   UNL     1      -0.502   3.376   0.218  0.00  0.00    +0.047 C 
ATOM     27  C   UNL     1      -0.330   1.968  -0.290  0.00  0.00    -0.009 A 
ATOM     28  C   UNL     1      -0.367   1.714  -1.647  0.00  0.00    +0.007 A 
ATOM     29  C   UNL     1      -0.209   0.422  -2.114  0.00  0.00    +0.001 A 
ATOM     30  C   UNL     1      -0.015  -0.619  -1.225  0.00  0.00    +0.007 A 
ATOM     31  C   UNL     1       0.022  -0.369   0.134  0.00  0.00    -0.009 A 
ATOM     32  C   UNL     1      -0.130   0.927   0.604  0.00  0.00    +0.127 A 
ATOM     33  C   UNL     1       0.234  -1.504   1.103  0.00  0.00    +0.047 C 
ENDBRANCH  25  32
ENDBRANCH  24  25
ENDBRANCH  16  24
ENDBRANCH   1  18
BRANCH   6  34
ATOM     34  O   UNL     1      -1.612  -1.263  11.258  0.00  0.00    -0.487 OA
BRANCH  34  35
ATOM     35  C   UNL     1      -2.073  -2.614  11.336  0.00  0.00    +0.264 C 
BRANCH  35  36
ATOM     36  C   UNL     1      -3.014  -2.757  12.504  0.00  0.00    -0.010 A 
ATOM     37  C   UNL     1      -2.521  -3.091  13.751  0.00  0.00    +0.007 A 
ATOM     38  C   UNL     1      -3.385  -3.222  14.823  0.00  0.00    +0.000 A 
ATOM     39  C   UNL     1      -4.740  -3.019  14.647  0.00  0.00    +0.000 A 
ATOM     40  C   UNL     1      -5.233  -2.684  13.400  0.00  0.00    +0.000 A 
ATOM     41  C   UNL     1      -4.369  -2.548  12.329  0.00  0.00    +0.007 A 
ENDBRANCH  35  36
ENDBRANCH  34  35
ENDBRANCH   6  34
TORSDOF 8
