REMARK  Name = ZINC39695997
REMARK  11 active torsions:
REMARK  status: ('A' for Active; 'I' for Inactive)
REMARK    1  A    between atoms: C_1  and  C_2
REMARK    2  A    between atoms: C_2  and  C_3
REMARK    3  A    between atoms: C_6  and  C_9
REMARK    4  A    between atoms: C_9  and  C_11
REMARK    5  A    between atoms: C_9  and  N_12
REMARK    6  A    between atoms: C_13  and  C_15
REMARK    7  A    between atoms: C_26  and  C_28
REMARK    8  A    between atoms: C_31  and  O_36
REMARK    9  A    between atoms: C_33  and  O_34
REMARK   10  A    between atoms: O_34  and  C_35
REMARK   11  A    between atoms: O_36  and  C_37
REMARK                            x       y       z     vdW  Elec       q    Type
REMARK                         _______ _______ _______ _____ _____    ______ ____
ROOT
ATOM      1  C   UNL     1      -8.325  -0.552  -1.982  0.00  0.00    +0.100 C 
ATOM      2  C   UNL     1      -8.098  -1.245  -3.344  0.00  0.00    +0.121 C 
ATOM      3  N   UNL     1      -9.217  -2.208  -3.465  0.00  0.00    -0.296 N 
ATOM      4  C   UNL     1     -10.388  -1.484  -2.914  0.00  0.00    +0.115 C 
ATOM      5  C   UNL     1      -9.829  -0.708  -1.705  0.00  0.00    -0.004 C 
ATOM      6  C   UNL     1     -10.493   0.662  -1.605  0.00  0.00    -0.010 C 
ATOM      7  C   UNL     1     -11.976   0.482  -1.271  0.00  0.00    -0.082 C 
ATOM      8  N   UNL     1     -12.110  -0.243  -0.002  0.00  0.00    +0.379 N 
ATOM      9  C   UNL     1     -11.552  -1.594  -0.136  0.00  0.00    -0.082 C 
ATOM     10  C   UNL     1     -10.051  -1.502  -0.421  0.00  0.00    -0.010 C 
ATOM     11  C   UNL     1      -9.180  -3.460  -3.964  0.00  0.00    +0.250 C 
ATOM     12  O   UNL     1      -8.118  -3.953  -4.292  0.00  0.00    -0.270 OA
ATOM     13  H   UNL     1     -11.614   0.254   0.722  0.00  0.00    -0.086 HD
ATOM     14  H   UNL     1     -13.086  -0.307   0.246  0.00  0.00    -0.086 HD
ENDROOT
BRANCH  11  15
ATOM     15  C   UNL     1     -10.426  -4.231  -4.112  0.00  0.00    +0.079 A 
ATOM     16  C   UNL     1     -11.617  -3.583  -4.458  0.00  0.00    +0.020 A 
ATOM     17  C   UNL     1     -12.778  -4.307  -4.596  0.00  0.00    +0.046 A 
ATOM     18  C   UNL     1     -12.774  -5.684  -4.392  0.00  0.00    +0.124 A 
ATOM     19  C   UNL     1     -11.600  -6.336  -4.048  0.00  0.00    +0.092 A 
ATOM     20  C   UNL     1     -10.423  -5.620  -3.913  0.00  0.00    +0.136 A 
BRANCH  20  21
ATOM     21  O   UNL     1      -9.272  -6.258  -3.582  0.00  0.00    -0.494 OA
ATOM     22  C   UNL     1      -9.345  -7.672  -3.394  0.00  0.00    +0.277 C 
ENDBRANCH  20  21
BRANCH  18  23
ATOM     23  O   UNL     1     -13.925  -6.390  -4.529  0.00  0.00    -0.495 OA
ATOM     24  C   UNL     1     -15.098  -5.656  -4.884  0.00  0.00    +0.277 C 
ENDBRANCH  18  23
ENDBRANCH  11  15
BRANCH   1  26
ATOM     25  N   UNL     1      -7.064  -0.526   0.146  0.00  0.00    -0.308 N 
ATOM     26  C   UNL     1      -7.520  -1.235  -0.906  0.00  0.00    +0.219 C 
ATOM     27  O   UNL     1      -7.282  -2.421  -0.987  0.00  0.00    -0.275 OA
ATOM     28  H   UNL     1      -7.253   0.423   0.210  0.00  0.00    +0.149 HD
BRANCH  25  29
ATOM     29  C   UNL     1      -6.281  -1.190   1.192  0.00  0.00    +0.100 C 
ATOM     30  C   UNL     1      -4.810  -1.239   0.774  0.00  0.00    +0.033 C 
BRANCH  29  34
ATOM     31  C   UNL     1      -6.650   0.991   4.847  0.00  0.00    -0.048 A 
ATOM     32  C   UNL     1      -6.657  -0.391   4.863  0.00  0.00    +0.004 A 
ATOM     33  C   UNL     1      -6.538  -1.097   3.680  0.00  0.00    +0.006 A 
ATOM     34  C   UNL     1      -6.412  -0.420   2.481  0.00  0.00    -0.027 A 
ATOM     35  C   UNL     1      -6.406   0.962   2.465  0.00  0.00    +0.006 A 
ATOM     36  C   UNL     1      -6.529   1.667   3.647  0.00  0.00    +0.004 A 
BRANCH  31  38
ATOM     37  C   UNL     1      -8.259   2.020   6.428  0.00  0.00    +0.009 C 
ATOM     38  C   UNL     1      -6.780   1.760   6.136  0.00  0.00    +0.032 C 
ENDBRANCH  31  38
ENDBRANCH  29  34
ENDBRANCH  25  29
ENDBRANCH   1  26
TORSDOF 7
