REMARK  Name = ZINC59776178
REMARK  9 active torsions:
REMARK  status: ('A' for Active; 'I' for Inactive)
REMARK    1  A    between atoms: C_1  and  C_2
REMARK    2  A    between atoms: C_5  and  C_26
REMARK    3  A    between atoms: C_7  and  N_8
REMARK    4  A    between atoms: C_9  and  C_11
REMARK    5  A    between atoms: C_14  and  C_25
REMARK    6  A    between atoms: C_15  and  N_17
REMARK    7  A    between atoms: C_18  and  C_20
REMARK    8  A    between atoms: C_30  and  C_37
REMARK    9  A    between atoms: C_33  and  C_36
REMARK                            x       y       z     vdW  Elec       q    Type
REMARK                         _______ _______ _______ _____ _____    ______ ____
ROOT
ATOM      1  N   UNL     1       0.347   0.141   1.873  0.00  0.00    -0.281 N 
ATOM      2  C   UNL     1       0.069  -0.583   2.975  0.00  0.00    +0.248 C 
ATOM      3  O   UNL     1      -0.261  -1.748   2.870  0.00  0.00    -0.270 OA
ATOM      4  H   UNL     1       0.667   1.053   1.960  0.00  0.00    +0.155 HD
ENDROOT
BRANCH   1  11
ATOM      5  C   UNL     1      -0.159   1.891  -0.308  0.00  0.00    +0.045 C 
ATOM      6  C   UNL     1      -0.075   0.397  -0.490  0.00  0.00    -0.029 A 
ATOM      7  C   UNL     1      -0.240  -0.154  -1.748  0.00  0.00    +0.006 A 
ATOM      8  C   UNL     1      -0.165  -1.520  -1.923  0.00  0.00    +0.013 A 
ATOM      9  C   UNL     1       0.079  -2.352  -0.828  0.00  0.00    +0.039 A 
ATOM     10  C   UNL     1       0.247  -1.796   0.440  0.00  0.00    +0.036 A 
ATOM     11  C   UNL     1       0.175  -0.421   0.605  0.00  0.00    +0.037 A 
BRANCH   9  12
ATOM     12  C   UNL     1       0.160  -3.817  -1.012  0.00  0.00    +0.247 C 
ATOM     13  O   UNL     1      -0.219  -4.562  -0.130  0.00  0.00    -0.270 OA
ATOM     14  N   UNL     1       0.652  -4.325  -2.159  0.00  0.00    -0.297 N 
ATOM     15  C   UNL     1       1.230  -3.443  -3.182  0.00  0.00    +0.111 C 
ATOM     16  C   UNL     1       2.639  -3.938  -3.522  0.00  0.00    +0.004 C 
ATOM     17  C   UNL     1       2.573  -5.412  -3.928  0.00  0.00    +0.009 C 
ATOM     18  C   UNL     1       2.038  -6.242  -2.758  0.00  0.00    +0.004 C 
ATOM     19  C   UNL     1       0.628  -5.773  -2.407  0.00  0.00    +0.111 C 
ATOM     20  C   UNL     1       2.951  -6.060  -1.544  0.00  0.00    +0.009 C 
ATOM     21  C   UNL     1       3.205  -3.114  -4.680  0.00  0.00    +0.009 C 
ENDBRANCH   9  12
ENDBRANCH   1  11
BRANCH   2  22
ATOM     22  C   UNL     1       0.165   0.040   4.313  0.00  0.00    +0.039 A 
ATOM     23  C   UNL     1       0.538   1.380   4.437  0.00  0.00    +0.013 A 
ATOM     24  C   UNL     1       0.626   1.958   5.686  0.00  0.00    +0.006 A 
ATOM     25  C   UNL     1       0.346   1.216   6.818  0.00  0.00    -0.029 A 
ATOM     26  C   UNL     1      -0.026  -0.118   6.706  0.00  0.00    +0.037 A 
ATOM     27  C   UNL     1      -0.123  -0.708   5.455  0.00  0.00    +0.036 A 
ATOM     28  C   UNL     1       0.445   1.856   8.179  0.00  0.00    +0.045 C 
BRANCH  26  29
ATOM     29  N   UNL     1      -0.307  -0.865   7.855  0.00  0.00    -0.279 N 
ATOM     30  C   UNL     1      -0.186  -2.207   7.832  0.00  0.00    +0.284 C 
ATOM     31  O   UNL     1       0.261  -2.761   6.845  0.00  0.00    -0.266 OA
ATOM     32  H   UNL     1      -0.589  -0.417   8.667  0.00  0.00    +0.155 HD
BRANCH  30  33
ATOM     33  C   UNL     1      -0.594  -2.999   8.996  0.00  0.00    +0.189 A 
ATOM     34  C   UNL     1      -0.520  -4.359   9.108  0.00  0.00    +0.054 A 
ATOM     35  C   UNL     1      -1.013  -4.686  10.381  0.00  0.00    +0.042 A 
ATOM     36  C   UNL     1      -1.362  -3.528  10.983  0.00  0.00    +0.196 A 
ATOM     37  O   UNL     1      -1.102  -2.513  10.148  0.00  0.00    -0.458 OA
ENDBRANCH  30  33
ENDBRANCH  26  29
ENDBRANCH   2  22
TORSDOF 5
