REMARK  Name = ZINC30826268
REMARK  10 active torsions:
REMARK  status: ('A' for Active; 'I' for Inactive)
REMARK    1  A    between atoms: C_1  and  C_2
REMARK    2  A    between atoms: C_4  and  N_21
REMARK    3  A    between atoms: C_6  and  C_9
REMARK    4  A    between atoms: C_7  and  O_8
REMARK    5  A    between atoms: C_13  and  C_18
REMARK    6  A    between atoms: C_18  and  C_19
REMARK    7  A    between atoms: C_18  and  C_20
REMARK    8  A    between atoms: N_21  and  C_22
REMARK    9  A    between atoms: C_22  and  N_24
REMARK   10  A    between atoms: C_25  and  C_27
REMARK                            x       y       z     vdW  Elec       q    Type
REMARK                         _______ _______ _______ _____ _____    ______ ____
ROOT
ATOM      1  C   UNL     1       4.928   5.159   0.262  0.00  0.00    +0.047 C 
ATOM      2  C   UNL     1       4.864   3.656   0.166  0.00  0.00    -0.007 A 
ATOM      3  C   UNL     1       3.638   3.020   0.120  0.00  0.00    +0.030 A 
ATOM      4  C   UNL     1       3.570   1.635   0.032  0.00  0.00    +0.034 A 
ATOM      5  C   UNL     1       4.732   0.882  -0.004  0.00  0.00    +0.040 A 
ATOM      6  C   UNL     1       5.973   1.519   0.037  0.00  0.00    +0.080 A 
ATOM      7  C   UNL     1       6.034   2.915   0.126  0.00  0.00    +0.132 A 
ENDROOT
BRANCH   6   8
ATOM      8  C   UNL     1       7.217   0.724  -0.006  0.00  0.00    +0.232 A 
ATOM      9  N   UNL     1       7.270  -0.583  -0.083  0.00  0.00    -0.209 NA
ATOM     10  C   UNL     1       8.573  -0.965  -0.105  0.00  0.00    +0.110 A 
ATOM     11  C   UNL     1       9.213  -2.205  -0.180  0.00  0.00    +0.035 A 
ATOM     12  C   UNL     1      10.588  -2.265  -0.175  0.00  0.00    -0.043 A 
ATOM     13  C   UNL     1      11.342  -1.103  -0.097  0.00  0.00    +0.007 A 
ATOM     14  C   UNL     1      10.723   0.129  -0.022  0.00  0.00    +0.049 A 
ATOM     15  C   UNL     1       9.340   0.208  -0.026  0.00  0.00    +0.156 A 
ATOM     16  O   UNL     1       8.462   1.235   0.034  0.00  0.00    -0.435 OA
BRANCH  12  17
ATOM     17  C   UNL     1      11.280  -3.601  -0.256  0.00  0.00    +0.013 C 
ATOM     18  C   UNL     1      12.162  -3.644  -1.505  0.00  0.00    +0.012 C 
ATOM     19  C   UNL     1      12.147  -3.803   0.988  0.00  0.00    +0.012 C 
ENDBRANCH  12  17
ENDBRANCH   6   8
BRANCH   7  20
ATOM     20  O   UNL     1       7.238   3.542   0.173  0.00  0.00    -0.506 OA
ATOM     21  H   UNL     1       8.166   2.954   0.141  0.00  0.00    +0.292 HD
ENDBRANCH   7  20
BRANCH   4  22
ATOM     22  N   UNL     1       2.323   0.998  -0.015  0.00  0.00    -0.297 N 
ATOM     23  H   UNL     1       1.506   1.339   0.638  0.00  0.00    +0.154 HD
BRANCH  22  24
ATOM     24  C   UNL     1       2.124  -0.033  -0.860  0.00  0.00    +0.141 C 
ATOM     25  S   UNL     1       3.345  -0.474  -1.975  0.00  0.00    -0.018 S 
BRANCH  24  26
ATOM     26  N   UNL     1       0.963  -0.717  -0.826  0.00  0.00    -0.263 N 
ATOM     27  C   UNL     1       0.766  -1.752  -1.667  0.00  0.00    +0.256 C 
ATOM     28  O   UNL     1       1.635  -2.065  -2.460  0.00  0.00    -0.269 OA
ATOM     29  H   UNL     1       0.176  -0.431  -0.113  0.00  0.00    +0.157 HD
BRANCH  27  30
ATOM     30  C   UNL     1      -0.493  -2.499  -1.627  0.00  0.00    +0.074 A 
ATOM     31  C   UNL     1      -0.894  -3.579  -2.400  0.00  0.00    +0.021 A 
ATOM     32  C   UNL     1      -2.139  -4.098  -2.149  0.00  0.00    +0.008 A 
ATOM     33  C   UNL     1      -2.911  -3.535  -1.182  0.00  0.00    +0.046 A 
ATOM     34  S   UNL     1      -1.914  -2.253  -0.577  0.00  0.00    -0.092 S 
ENDBRANCH  27  30
ENDBRANCH  24  26
ENDBRANCH  22  24
ENDBRANCH   4  22
TORSDOF 7
