REMARK  Name = ZINC14642634
REMARK  10 active torsions:
REMARK  status: ('A' for Active; 'I' for Inactive)
REMARK    1  A    between atoms: C_1  and  C_2
REMARK    2  A    between atoms: C_6  and  C_31
REMARK    3  A    between atoms: C_7  and  O_8
REMARK    4  A    between atoms: O_8  and  C_9
REMARK    5  A    between atoms: C_9  and  C_11
REMARK    6  A    between atoms: C_9  and  C_12
REMARK    7  A    between atoms: N_14  and  C_15
REMARK    8  A    between atoms: C_18  and  S_21
REMARK    9  A    between atoms: S_21  and  N_24
REMARK   10  A    between atoms: C_27  and  C_30
REMARK                            x       y       z     vdW  Elec       q    Type
REMARK                         _______ _______ _______ _____ _____    ______ ____
ROOT
ATOM      1  C   UNL     1       2.852   1.371  -6.726  0.00  0.00    +0.258 C 
ATOM      2  O   UNL     1       1.653   1.238  -6.598  0.00  0.00    -0.271 OA
ATOM      3  N   UNL     1       3.527   2.209  -5.914  0.00  0.00    -0.282 N 
ATOM      4  H   UNL     1       4.474   2.363  -6.056  0.00  0.00    +0.155 HD
ENDROOT
BRANCH   3   5
ATOM      5  C   UNL     1       2.862   2.855  -4.867  0.00  0.00    +0.034 A 
ATOM      6  C   UNL     1       1.546   3.267  -5.027  0.00  0.00    +0.025 A 
ATOM      7  C   UNL     1       0.892   3.905  -3.991  0.00  0.00    +0.030 A 
ATOM      8  C   UNL     1       1.547   4.133  -2.795  0.00  0.00    +0.106 A 
ATOM      9  C   UNL     1       2.860   3.729  -2.633  0.00  0.00    +0.030 A 
ATOM     10  C   UNL     1       3.517   3.087  -3.664  0.00  0.00    +0.025 A 
BRANCH   8  11
ATOM     11  S   UNL     1       0.710   4.947  -1.475  0.00  0.00    +0.061 S 
ATOM     12  O   UNL     1      -0.329   5.715  -2.066  0.00  0.00    -0.153 OA
ATOM     13  O   UNL     1       1.713   5.527  -0.654  0.00  0.00    -0.153 OA
BRANCH  11  14
ATOM     14  N   UNL     1      -0.027   3.775  -0.566  0.00  0.00    -0.177 NA
ATOM     15  C   UNL     1       0.677   3.150   0.562  0.00  0.00    +0.110 C 
ATOM     16  C   UNL     1       0.644   1.629   0.382  0.00  0.00    +0.020 C 
ATOM     17  C   UNL     1      -0.807   1.171   0.214  0.00  0.00    -0.012 C 
ATOM     18  C   UNL     1      -1.407   1.818  -1.036  0.00  0.00    +0.020 C 
ATOM     19  C   UNL     1      -1.397   3.341  -0.872  0.00  0.00    +0.110 C 
ATOM     20  C   UNL     1      -0.847  -0.352   0.069  0.00  0.00    +0.007 C 
ENDBRANCH  11  14
ENDBRANCH   8  11
ENDBRANCH   3   5
BRANCH   1  21
ATOM     21  C   UNL     1       3.586   0.600  -7.792  0.00  0.00    +0.256 C 
ATOM     22  C   UNL     1       4.265   1.578  -8.753  0.00  0.00    +0.062 C 
BRANCH  21  23
ATOM     23  O   UNL     1       2.659  -0.213  -8.516  0.00  0.00    -0.479 OA
BRANCH  23  30
ATOM     24  C   UNL     1       3.678  -0.463 -11.138  0.00  0.00    +0.047 C 
ATOM     25  C   UNL     1       3.600  -1.626 -10.182  0.00  0.00    -0.007 A 
ATOM     26  C   UNL     1       4.042  -2.874 -10.575  0.00  0.00    +0.022 A 
ATOM     27  C   UNL     1       3.966  -3.943  -9.700  0.00  0.00    +0.019 A 
ATOM     28  C   UNL     1       3.452  -3.763  -8.428  0.00  0.00    +0.022 A 
ATOM     29  C   UNL     1       3.014  -2.514  -8.030  0.00  0.00    -0.007 A 
ATOM     30  C   UNL     1       3.090  -1.442  -8.906  0.00  0.00    +0.127 A 
ATOM     31  C   UNL     1       2.454  -2.319  -6.644  0.00  0.00    +0.047 C 
ATOM     32 BR   UNL     1       4.565  -5.653 -10.242  0.00  0.00    -0.050 Br
ENDBRANCH  23  30
ENDBRANCH  21  23
ENDBRANCH   1  21
TORSDOF 6
