REMARK  Name = ZINC33113309
REMARK  6 active torsions:
REMARK  status: ('A' for Active; 'I' for Inactive)
REMARK    1  A    between atoms: C_1  and  C_2
REMARK    2  A    between atoms: C_5  and  N_8
REMARK    3  A    between atoms: C_9  and  C_11
REMARK    4  A    between atoms: C_14  and  C_16
REMARK    5  A    between atoms: N_25  and  C_26
REMARK    6  A    between atoms: C_31  and  C_32
REMARK                            x       y       z     vdW  Elec       q    Type
REMARK                         _______ _______ _______ _____ _____    ______ ____
ROOT
ATOM      1  C   UNL     1      -4.509   7.696  -1.477  0.00  0.00    +0.064 C 
ATOM      2  C   UNL     1      -5.896   7.054  -1.391  0.00  0.00    +0.013 C 
ATOM      3  C   UNL     1      -5.754   5.530  -1.377  0.00  0.00    +0.020 C 
ATOM      4  C   UNL     1      -4.947   5.107  -0.146  0.00  0.00    +0.109 C 
ATOM      5  N   UNL     1      -3.669   5.832  -0.145  0.00  0.00    -0.285 N 
ATOM      6  C   UNL     1      -3.689   7.298  -0.241  0.00  0.00    +0.119 C 
ATOM      7  C   UNL     1      -2.501   5.165  -0.054  0.00  0.00    +0.306 C 
ATOM      8  O   UNL     1      -2.493   3.950  -0.066  0.00  0.00    -0.252 OA
ATOM      9  N   UNL     1      -1.343   5.846   0.052  0.00  0.00    -0.269 N 
ATOM     10  H   UNL     1      -1.357   6.941   0.158  0.00  0.00    +0.156 HD
ENDROOT
BRANCH   9  11
ATOM     11  C   UNL     1      -0.123   5.161   0.026  0.00  0.00    +0.039 A 
ATOM     12  C   UNL     1      -0.034   3.924  -0.598  0.00  0.00    +0.043 A 
ATOM     13  C   UNL     1       1.172   3.249  -0.621  0.00  0.00    +0.043 A 
ATOM     14  C   UNL     1       2.289   3.806  -0.022  0.00  0.00    +0.020 A 
ATOM     15  C   UNL     1       2.202   5.037   0.600  0.00  0.00    +0.006 A 
ATOM     16  C   UNL     1       0.998   5.714   0.630  0.00  0.00    -0.029 A 
ATOM     17  C   UNL     1       0.903   7.053   1.314  0.00  0.00    +0.045 C 
ATOM     18 CL   UNL     1       1.286   1.703  -1.402  0.00  0.00    -0.083 Cl
ENDBRANCH   9  11
BRANCH   1  22
ATOM     19  C   UNL     1      -4.729  11.796  -1.931  0.00  0.00    +0.187 A 
ATOM     20  N   UNL     1      -5.241  11.264  -0.825  0.00  0.00    -0.136 NA
ATOM     21  N   UNL     1      -5.203  10.015  -0.644  0.00  0.00    -0.145 NA
ATOM     22  C   UNL     1      -4.652   9.196  -1.523  0.00  0.00    +0.107 A 
ATOM     23  S   UNL     1      -4.143  10.318  -2.750  0.00  0.00    -0.046 S 
BRANCH  19  25
ATOM     24  N   UNL     1      -5.177  14.172  -1.574  0.00  0.00    -0.280 N 
ATOM     25  C   UNL     1      -4.664  13.204  -2.360  0.00  0.00    +0.275 C 
ATOM     26  O   UNL     1      -4.148  13.493  -3.422  0.00  0.00    -0.268 OA
ATOM     27  H   UNL     1      -5.712  13.905  -0.651  0.00  0.00    +0.155 HD
BRANCH  24  32
ATOM     28  C   UNL     1      -4.572  19.621  -3.029  0.00  0.00    +0.044 C 
ATOM     29  C   UNL     1      -4.733  18.173  -2.643  0.00  0.00    -0.050 A 
ATOM     30  C   UNL     1      -4.907  17.213  -3.622  0.00  0.00    +0.005 A 
ATOM     31  C   UNL     1      -5.054  15.885  -3.272  0.00  0.00    +0.023 A 
ATOM     32  C   UNL     1      -5.028  15.515  -1.933  0.00  0.00    +0.034 A 
ATOM     33  C   UNL     1      -4.858  16.483  -0.951  0.00  0.00    +0.023 A 
ATOM     34  C   UNL     1      -4.706  17.808  -1.309  0.00  0.00    +0.005 A 
ENDBRANCH  24  32
ENDBRANCH  19  25
ENDBRANCH   1  22
TORSDOF 4
