REMARK  Name = ZINC02667945
REMARK  9 active torsions:
REMARK  status: ('A' for Active; 'I' for Inactive)
REMARK    1  A    between atoms: C_1  and  C_2
REMARK    2  A    between atoms: C_3  and  C_36
REMARK    3  A    between atoms: C_5  and  N_28
REMARK    4  A    between atoms: C_6  and  C_7
REMARK    5  A    between atoms: C_7  and  C_9
REMARK    6  A    between atoms: C_7  and  N_67
REMARK    7  A    between atoms: C_18  and  C_21
REMARK    8  A    between atoms: C_21  and  C_22
REMARK    9  A    between atoms: C_29  and  C_31
REMARK                            x       y       z     vdW  Elec       q    Type
REMARK                         _______ _______ _______ _____ _____    ______ ____
ROOT
ATOM      1  C   UNL     1       2.963  -0.548  -2.825  0.00  0.00    -0.004 C 
ENDROOT
BRANCH   1   7
ATOM      2  C   UNL     1       5.015  -2.614  -2.700  0.00  0.00    +0.045 C 
ATOM      3  C   UNL     1       5.313  -1.211  -2.237  0.00  0.00    -0.037 A 
ATOM      4  C   UNL     1       6.540  -0.891  -1.762  0.00  0.00    -0.008 A 
ATOM      5  S   UNL     1       6.347   0.838  -1.363  0.00  0.00    -0.078 S 
ATOM      6  C   UNL     1       4.643   1.024  -1.863  0.00  0.00    +0.074 A 
ATOM      7  C   UNL     1       4.338  -0.232  -2.296  0.00  0.00    -0.025 A 
ATOM      8  C   UNL     1       7.754  -1.770  -1.604  0.00  0.00    +0.052 C 
BRANCH   6   9
ATOM      9  N   UNL     1       3.833   2.160  -1.821  0.00  0.00    -0.273 N 
ATOM     10  C   UNL     1       4.362   3.352  -1.480  0.00  0.00    +0.284 C 
ATOM     11  O   UNL     1       5.545   3.438  -1.209  0.00  0.00    -0.266 OA
ATOM     12  H   UNL     1       2.890   2.092  -2.036  0.00  0.00    +0.156 HD
BRANCH  10  13
ATOM     13  C   UNL     1       3.511   4.546  -1.435  0.00  0.00    +0.189 A 
ATOM     14  C   UNL     1       3.916   5.808  -1.108  0.00  0.00    +0.054 A 
ATOM     15  C   UNL     1       2.782   6.631  -1.195  0.00  0.00    +0.042 A 
ATOM     16  C   UNL     1       1.748   5.845  -1.568  0.00  0.00    +0.196 A 
ATOM     17  O   UNL     1       2.192   4.590  -1.717  0.00  0.00    -0.458 OA
ENDBRANCH  10  13
ENDBRANCH   6   9
ENDBRANCH   1   7
BRANCH   1  18
ATOM     18  C   UNL     1       2.840  -0.044  -4.239  0.00  0.00    -0.056 A 
ATOM     19  C   UNL     1       2.608   1.298  -4.476  0.00  0.00    +0.005 A 
ATOM     20  C   UNL     1       2.501   1.763  -5.774  0.00  0.00    +0.038 A 
ATOM     21  C   UNL     1       2.614   0.881  -6.836  0.00  0.00    +0.123 A 
ATOM     22  C   UNL     1       2.840  -0.464  -6.597  0.00  0.00    +0.038 A 
ATOM     23  C   UNL     1       2.953  -0.925  -5.299  0.00  0.00    +0.005 A 
ATOM     24  F   UNL     1       2.503   1.333  -8.104  0.00  0.00    -0.205 F 
ENDBRANCH   1  18
BRANCH   1  30
ATOM     25  C   UNL     1       2.104  -0.290  -0.576  0.00  0.00    -0.077 C 
ATOM     26  C   UNL     1       1.134   0.517   0.289  0.00  0.00    -0.015 C 
ATOM     27  C   UNL     1      -0.300   0.257  -0.181  0.00  0.00    -0.010 C 
ATOM     28  C   UNL     1      -0.418   0.631  -1.661  0.00  0.00    -0.015 C 
ATOM     29  C   UNL     1       0.597  -0.179  -2.470  0.00  0.00    -0.077 C 
ATOM     30  N   UNL     1       1.958   0.134  -1.985  0.00  0.00    +0.387 N 
ATOM     31  H   UNL     1       2.107   1.149  -2.044  0.00  0.00    -0.080 HD
BRANCH  27  32
ATOM     32  C   UNL     1      -1.270   1.108   0.640  0.00  0.00    +0.038 C 
BRANCH  32  33
ATOM     33  C   UNL     1      -2.687   0.761   0.261  0.00  0.00    -0.047 A 
ATOM     34  C   UNL     1      -3.318   1.450  -0.758  0.00  0.00    +0.003 A 
ATOM     35  C   UNL     1      -4.616   1.129  -1.108  0.00  0.00    +0.000 A 
ATOM     36  C   UNL     1      -5.287   0.126  -0.433  0.00  0.00    +0.000 A 
ATOM     37  C   UNL     1      -4.657  -0.559   0.589  0.00  0.00    +0.000 A 
ATOM     38  C   UNL     1      -3.358  -0.241   0.936  0.00  0.00    +0.003 A 
ENDBRANCH  32  33
ENDBRANCH  27  32
ENDBRANCH   1  30
TORSDOF 7
