REMARK  Name = ZINC13124513
REMARK  8 active torsions:
REMARK  status: ('A' for Active; 'I' for Inactive)
REMARK    1  A    between atoms: C_1  and  C_2
REMARK    2  A    between atoms: C_3  and  C_8
REMARK    3  A    between atoms: N_5  and  C_7
REMARK    4  A    between atoms: C_8  and  N_9
REMARK    5  A    between atoms: N_9  and  C_10
REMARK    6  A    between atoms: C_11  and  C_13
REMARK    7  A    between atoms: C_18  and  C_29
REMARK    8  A    between atoms: C_21  and  C_24
REMARK                            x       y       z     vdW  Elec       q    Type
REMARK                         _______ _______ _______ _____ _____    ______ ____
ROOT
ATOM      1  C   UNL     1       2.722   2.035  -3.537  0.00  0.00    +0.163 A 
ATOM      2  C   UNL     1       3.070   3.404  -3.479  0.00  0.00    +0.089 A 
ATOM      3  C   UNL     1       4.213   3.562  -4.176  0.00  0.00    +0.133 A 
ATOM      4  N   UNL     1       4.586   2.343  -4.666  0.00  0.00    -0.237 N 
ATOM      5  N   UNL     1       3.643   1.406  -4.247  0.00  0.00    -0.163 NA
ATOM      6  C   UNL     1       5.785   2.126  -5.481  0.00  0.00    +0.215 C 
ATOM      7  C   UNL     1       6.232   3.467  -6.073  0.00  0.00    +0.063 C 
ATOM      8  C   UNL     1       6.310   4.526  -4.967  0.00  0.00    +0.111 C 
ATOM      9  N   UNL     1       4.957   4.723  -4.410  0.00  0.00    -0.321 N 
ATOM     10 BR   UNL     1       2.107   4.765  -2.588  0.00  0.00    -0.044 Br
ATOM     11  H   UNL     1       4.604   5.607  -4.219  0.00  0.00    +0.148 HD
ENDROOT
BRANCH   8  12
ATOM     12  C   UNL     1       6.819   5.822  -5.542  0.00  0.00    +0.010 A 
ATOM     13  C   UNL     1       8.070   6.342  -5.499  0.00  0.00    +0.013 A 
ATOM     14  C   UNL     1       8.311   7.561  -6.104  0.00  0.00    +0.008 A 
ATOM     15  C   UNL     1       7.288   8.201  -6.722  0.00  0.00    +0.045 A 
ATOM     16  S   UNL     1       5.933   7.068  -6.464  0.00  0.00    -0.100 S 
ENDBRANCH   8  12
BRANCH   1  19
ATOM     17  N   UNL     1       1.389   0.075  -2.928  0.00  0.00    -0.295 N 
ATOM     18  C   UNL     1       2.445  -0.771  -3.489  0.00  0.00    +0.132 C 
ATOM     19  C   UNL     1       1.539   1.414  -2.907  0.00  0.00    +0.268 C 
ATOM     20  O   UNL     1       0.701   2.112  -2.370  0.00  0.00    -0.268 OA
BRANCH  17  21
ATOM     21  C   UNL     1       0.170  -0.534  -2.390  0.00  0.00    +0.146 C 
BRANCH  21  24
ATOM     22  C   UNL     1      -0.068   1.555  -0.019  0.00  0.00    +0.068 C 
ATOM     23  C   UNL     1       0.256   0.090   0.122  0.00  0.00    +0.065 A 
ATOM     24  C   UNL     1       0.361  -0.831  -0.925  0.00  0.00    +0.010 A 
ATOM     25  C   UNL     1       0.664  -2.037  -0.390  0.00  0.00    +0.113 A 
ATOM     26  N   UNL     1       0.748  -1.884   0.948  0.00  0.00    -0.274 N 
ATOM     27  N   UNL     1       0.493  -0.539   1.245  0.00  0.00    -0.176 NA
ATOM     28  C   UNL     1       1.057  -2.937   1.918  0.00  0.00    +0.172 C 
ENDBRANCH  21  24
ENDBRANCH  17  21
ENDBRANCH   1  19
BRANCH   6  29
ATOM     29  C   UNL     1       5.465   1.145  -6.611  0.00  0.00    +0.412 C 
ATOM     30  F   UNL     1       4.447   1.673  -7.412  0.00  0.00    -0.168 F 
ATOM     31  F   UNL     1       6.611   0.940  -7.388  0.00  0.00    -0.168 F 
ATOM     32  F   UNL     1       5.046  -0.073  -6.066  0.00  0.00    -0.168 F 
ENDBRANCH   6  29
TORSDOF 5
