REMARK  Name = ZINC20371071
REMARK  7 active torsions:
REMARK  status: ('A' for Active; 'I' for Inactive)
REMARK    1  A    between atoms: C_1  and  C_2
REMARK    2  A    between atoms: C_9  and  C_11
REMARK    3  A    between atoms: C_14  and  N_17
REMARK    4  A    between atoms: C_18  and  C_20
REMARK    5  A    between atoms: N_25  and  C_27
REMARK    6  A    between atoms: C_30  and  N_33
REMARK    7  A    between atoms: C_34  and  C_36
REMARK                            x       y       z     vdW  Elec       q    Type
REMARK                         _______ _______ _______ _____ _____    ______ ____
ROOT
ATOM      1  N   UNL     1       1.110   3.167  -1.909  0.00  0.00    -0.285 N 
ATOM      2  C   UNL     1      -0.103   3.152  -1.323  0.00  0.00    +0.222 C 
ATOM      3  O   UNL     1      -0.721   4.187  -1.182  0.00  0.00    -0.275 OA
ATOM      4  H   UNL     1       1.706   2.244  -1.962  0.00  0.00    +0.155 HD
ENDROOT
BRANCH   1   8
ATOM      5  C   UNL     1       2.605   6.707  -3.523  0.00  0.00    +0.007 A 
ATOM      6  C   UNL     1       3.474   5.779  -2.947  0.00  0.00    +0.012 A 
ATOM      7  C   UNL     1       2.977   4.609  -2.414  0.00  0.00    +0.024 A 
ATOM      8  C   UNL     1       1.611   4.353  -2.450  0.00  0.00    +0.033 A 
ATOM      9  C   UNL     1       0.743   5.273  -3.027  0.00  0.00    +0.024 A 
ATOM     10  C   UNL     1       1.233   6.446  -3.557  0.00  0.00    +0.012 A 
BRANCH   5  19
ATOM     11  C   UNL     1       5.351  13.401  -6.587  0.00  0.00    +0.044 C 
ATOM     12  C   UNL     1       5.120  12.062  -5.934  0.00  0.00    -0.049 A 
ATOM     13  C   UNL     1       6.191  11.333  -5.435  0.00  0.00    +0.005 A 
ATOM     14  C   UNL     1       6.015  10.122  -4.842  0.00  0.00    +0.029 A 
ATOM     15  C   UNL     1       4.723   9.559  -4.712  0.00  0.00    +0.079 A 
ATOM     16  C   UNL     1       3.653  10.326  -5.231  0.00  0.00    +0.040 A 
ATOM     17  C   UNL     1       3.841  11.548  -5.828  0.00  0.00    +0.020 A 
ATOM     18  S   UNL     1       2.247   9.296  -4.887  0.00  0.00    -0.067 S 
ATOM     19  C   UNL     1       3.135   7.962  -4.095  0.00  0.00    +0.109 A 
ATOM     20  N   UNL     1       4.380   8.380  -4.156  0.00  0.00    -0.239 NA
ENDBRANCH   5  19
ENDBRANCH   1   8
BRANCH   2  21
ATOM     21  C   UNL     1      -0.693   1.852  -0.842  0.00  0.00    +0.102 C 
ATOM     22  C   UNL     1       0.197   1.210   0.247  0.00  0.00    +0.110 C 
ATOM     23  C   UNL     1      -0.387   1.711   1.550  0.00  0.00    +0.221 C 
ATOM     24  O   UNL     1       0.176   1.672   2.624  0.00  0.00    -0.275 OA
ATOM     25  N   UNL     1      -1.623   2.204   1.340  0.00  0.00    -0.271 N 
ATOM     26  C   UNL     1      -2.010   2.093  -0.072  0.00  0.00    +0.127 C 
BRANCH  25  27
ATOM     27  C   UNL     1      -2.434   2.755   2.340  0.00  0.00    +0.036 A 
ATOM     28  C   UNL     1      -3.693   3.245   2.022  0.00  0.00    +0.025 A 
ATOM     29  C   UNL     1      -4.495   3.782   3.009  0.00  0.00    +0.025 A 
ATOM     30  C   UNL     1      -4.037   3.842   4.319  0.00  0.00    +0.033 A 
ATOM     31  C   UNL     1      -2.775   3.357   4.636  0.00  0.00    +0.025 A 
ATOM     32  C   UNL     1      -1.976   2.815   3.650  0.00  0.00    +0.025 A 
BRANCH  30  33
ATOM     33  N   UNL     1      -4.848   4.392   5.320  0.00  0.00    -0.286 N 
ATOM     34  C   UNL     1      -6.183   4.213   5.279  0.00  0.00    +0.214 C 
ATOM     35  O   UNL     1      -6.691   3.648   4.333  0.00  0.00    -0.276 OA
ATOM     36  C   UNL     1      -7.046   4.714   6.409  0.00  0.00    +0.109 C 
ATOM     37  H   UNL     1      -4.395   4.970   6.139  0.00  0.00    +0.155 HD
ENDBRANCH  30  33
ENDBRANCH  25  27
ENDBRANCH   2  21
TORSDOF 5
