REMARK  Name = ZINC22505006
REMARK  6 active torsions:
REMARK  status: ('A' for Active; 'I' for Inactive)
REMARK    1  A    between atoms: C_4  and  C_7
REMARK    2  A    between atoms: C_7  and  C_8
REMARK    3  A    between atoms: C_7  and  N_14
REMARK    4  A    between atoms: N_17  and  C_18
REMARK    5  A    between atoms: N_27  and  S_28
REMARK    6  A    between atoms: S_28  and  C_31
REMARK                            x       y       z     vdW  Elec       q    Type
REMARK                         _______ _______ _______ _____ _____    ______ ____
ROOT
ATOM      1  N   UNL     1       7.287   5.213  -4.936  0.00  0.00    -0.288 N 
ATOM      2  C   UNL     1       6.708   4.246  -4.197  0.00  0.00    +0.305 C 
ATOM      3  O   UNL     1       5.893   4.539  -3.343  0.00  0.00    -0.252 OA
ATOM      4  N   UNL     1       7.031   2.954  -4.404  0.00  0.00    -0.269 N 
ATOM      5  H   UNL     1       8.023   4.948  -5.708  0.00  0.00    +0.151 HD
ATOM      6  H   UNL     1       7.821   2.694  -5.124  0.00  0.00    +0.156 HD
ENDROOT
BRANCH   4   7
ATOM      7  C   UNL     1       6.361   1.942  -3.703  0.00  0.00    +0.035 A 
ATOM      8  C   UNL     1       5.969   2.152  -2.387  0.00  0.00    +0.025 A 
ATOM      9  C   UNL     1       5.311   1.153  -1.700  0.00  0.00    +0.027 A 
ATOM     10  C   UNL     1       5.041  -0.061  -2.322  0.00  0.00    +0.055 A 
ATOM     11  C   UNL     1       5.427  -0.271  -3.636  0.00  0.00    -0.023 A 
ATOM     12  C   UNL     1       6.089   0.733  -4.324  0.00  0.00    +0.028 A 
ATOM     13  C   UNL     1       5.138  -1.569  -4.343  0.00  0.00    +0.039 C 
ATOM     14  C   UNL     1       4.885  -2.686  -3.331  0.00  0.00    +0.025 C 
ATOM     15  C   UNL     1       3.829  -2.217  -2.327  0.00  0.00    +0.132 C 
ATOM     16  N   UNL     1       4.375  -1.062  -1.600  0.00  0.00    -0.203 N 
BRANCH  16  17
ATOM     17  S   UNL     1       4.213  -0.949   0.044  0.00  0.00    +0.075 S 
ATOM     18  O   UNL     1       5.328  -0.202   0.511  0.00  0.00    -0.150 OA
ATOM     19  O   UNL     1       3.921  -2.257   0.514  0.00  0.00    -0.150 OA
BRANCH  17  20
ATOM     20  C   UNL     1       2.783   0.031   0.360  0.00  0.00    +0.109 A 
ATOM     21  C   UNL     1       1.546  -0.573   0.486  0.00  0.00    +0.029 A 
ATOM     22  C   UNL     1       0.424   0.195   0.734  0.00  0.00    +0.002 A 
ATOM     23  C   UNL     1       0.539   1.567   0.856  0.00  0.00    +0.000 A 
ATOM     24  C   UNL     1       1.776   2.171   0.731  0.00  0.00    +0.002 A 
ATOM     25  C   UNL     1       2.898   1.403   0.483  0.00  0.00    +0.029 A 
ENDBRANCH  17  20
ENDBRANCH  16  17
ENDBRANCH   4   7
BRANCH   1  26
ATOM     26  C   UNL     1       6.935   6.617  -4.710  0.00  0.00    +0.135 C 
BRANCH  26  30
ATOM     27  C   UNL     1      10.160   9.115  -5.978  0.00  0.00    +0.000 A 
ATOM     28  C   UNL     1       9.466   9.416  -4.822  0.00  0.00    +0.000 A 
ATOM     29  C   UNL     1       8.422   8.608  -4.411  0.00  0.00    +0.006 A 
ATOM     30  C   UNL     1       8.073   7.498  -5.157  0.00  0.00    -0.023 A 
ATOM     31  C   UNL     1       8.771   7.193  -6.311  0.00  0.00    +0.006 A 
ATOM     32  C   UNL     1       9.811   8.004  -6.724  0.00  0.00    +0.000 A 
ENDBRANCH  26  30
BRANCH  26  33
ATOM     33  C   UNL     1       5.696   6.958  -5.498  0.00  0.00    -0.023 A 
ATOM     34  C   UNL     1       5.535   6.465  -6.779  0.00  0.00    +0.006 A 
ATOM     35  C   UNL     1       4.396   6.774  -7.500  0.00  0.00    +0.000 A 
ATOM     36  C   UNL     1       3.424   7.583  -6.943  0.00  0.00    +0.000 A 
ATOM     37  C   UNL     1       3.588   8.080  -5.663  0.00  0.00    +0.000 A 
ATOM     38  C   UNL     1       4.724   7.767  -4.941  0.00  0.00    +0.006 A 
ENDBRANCH  26  33
ENDBRANCH   1  26
TORSDOF 6
