REMARK  Name = ZINC00748634
REMARK  8 active torsions:
REMARK  status: ('A' for Active; 'I' for Inactive)
REMARK    1  A    between atoms: C_1  and  C_2
REMARK    2  A    between atoms: C_2  and  C_3
REMARK    3  A    between atoms: C_3  and  C_5
REMARK    4  A    between atoms: C_3  and  N_6
REMARK    5  A    between atoms: C_7  and  C_9
REMARK    6  A    between atoms: C_11  and  N_21
REMARK    7  A    between atoms: C_14  and  N_15
REMARK    8  A    between atoms: N_24  and  C_25
REMARK                            x       y       z     vdW  Elec       q    Type
REMARK                         _______ _______ _______ _____ _____    ______ ____
ROOT
ATOM      1  C   UNL     1      -4.455   0.151  -2.672  0.00  0.00    +0.059 A 
ATOM      2  C   UNL     1      -3.635   0.529  -3.738  0.00  0.00    +0.038 A 
ATOM      3  C   UNL     1      -4.183   0.720  -4.994  0.00  0.00    +0.036 A 
ATOM      4  C   UNL     1      -5.547   0.536  -5.198  0.00  0.00    +0.025 A 
ATOM      5  C   UNL     1      -6.364   0.163  -4.152  0.00  0.00    +0.026 A 
ATOM      6  C   UNL     1      -5.829  -0.038  -2.885  0.00  0.00    +0.042 A 
ENDROOT
BRANCH   6   7
ATOM      7  N   UNL     1      -6.653  -0.420  -1.832  0.00  0.00    -0.329 N 
ATOM      8  C   UNL     1      -7.311   0.590  -0.992  0.00  0.00    +0.105 C 
ATOM      9  C   UNL     1      -8.816   0.303  -0.964  0.00  0.00    +0.019 C 
ATOM     10  C   UNL     1      -9.047  -1.140  -0.509  0.00  0.00    +0.003 C 
ATOM     11  C   UNL     1      -8.390  -2.101  -1.503  0.00  0.00    +0.019 C 
ATOM     12  C   UNL     1      -6.886  -1.841  -1.541  0.00  0.00    +0.105 C 
ENDBRANCH   6   7
BRANCH   3  13
ATOM     13  N   UNL     1      -3.361   1.099  -6.065  0.00  0.00    -0.269 N 
ATOM     14  C   UNL     1      -3.845   1.901  -7.034  0.00  0.00    +0.308 C 
ATOM     15  O   UNL     1      -4.962   2.371  -6.933  0.00  0.00    -0.252 OA
ATOM     16  N   UNL     1      -3.091   2.181  -8.115  0.00  0.00    -0.269 N 
ATOM     17  H   UNL     1      -2.445   0.784  -6.108  0.00  0.00    +0.156 HD
ATOM     18  H   UNL     1      -2.231   1.747  -8.233  0.00  0.00    +0.156 HD
BRANCH  16  19
ATOM     19  C   UNL     1      -3.548   3.099  -9.069  0.00  0.00    +0.038 A 
ATOM     20  C   UNL     1      -3.228   2.925 -10.410  0.00  0.00    +0.026 A 
ATOM     21  C   UNL     1      -3.680   3.831 -11.350  0.00  0.00    +0.043 A 
ATOM     22  C   UNL     1      -4.452   4.911 -10.958  0.00  0.00    +0.159 A 
ATOM     23  C   UNL     1      -4.773   5.087  -9.621  0.00  0.00    +0.160 A 
ATOM     24  C   UNL     1      -4.327   4.179  -8.677  0.00  0.00    +0.064 A 
ATOM     25  F   UNL     1      -5.526   6.141  -9.240  0.00  0.00    -0.202 F 
ATOM     26  F   UNL     1      -4.893   5.795 -11.880  0.00  0.00    -0.202 F 
ENDBRANCH  16  19
ENDBRANCH   3  13
BRANCH   1  28
ATOM     27  N   UNL     1      -2.559   0.129  -1.129  0.00  0.00    -0.309 N 
ATOM     28  C   UNL     1      -3.879  -0.054  -1.330  0.00  0.00    +0.246 C 
ATOM     29  O   UNL     1      -4.594  -0.388  -0.406  0.00  0.00    -0.270 OA
ATOM     30  H   UNL     1      -1.988   0.395  -1.867  0.00  0.00    +0.149 HD
BRANCH  27  31
ATOM     31  C   UNL     1      -1.986  -0.075   0.204  0.00  0.00    +0.070 C 
ATOM     32  C   UNL     1      -1.661  -1.557   0.398  0.00  0.00    +0.028 C 
BRANCH  31  34
ATOM     33  C   UNL     1      -1.047   2.240   0.270  0.00  0.00    +0.005 C 
ATOM     34  C   UNL     1      -0.704   0.750   0.340  0.00  0.00    +0.018 C 
ENDBRANCH  31  34
ENDBRANCH  27  31
ENDBRANCH   1  28
TORSDOF 6
