REMARK  Name = ZINC42278265
REMARK  4 active torsions:
REMARK  status: ('A' for Active; 'I' for Inactive)
REMARK    1  A    between atoms: C_1  and  C_2
REMARK    2  A    between atoms: C_6  and  C_18
REMARK    3  A    between atoms: N_9  and  C_10
REMARK    4  A    between atoms: C_13  and  C_16
REMARK                            x       y       z     vdW  Elec       q    Type
REMARK                         _______ _______ _______ _____ _____    ______ ____
ROOT
ATOM      1  C   UNL     1      -0.008   1.541   0.031  0.00  0.00    +0.028 C 
ATOM      2  C   UNL     1       0.011   0.012   0.003  0.00  0.00    +0.070 C 
ATOM      3  C   UNL     1      -1.426  -0.520   0.005  0.00  0.00    +0.023 C 
ATOM      4  C   UNL     1      -2.101  -0.150   1.327  0.00  0.00    +0.016 C 
ATOM      5  C   UNL     1      -1.345  -0.800   2.488  0.00  0.00    +0.092 C 
ATOM      6  C   UNL     1       0.093  -0.271   2.515  0.00  0.00    +0.118 C 
ATOM      7  N   UNL     1       0.706  -0.494   1.195  0.00  0.00    -0.326 N 
ENDROOT
BRANCH   7   8
ATOM      8  C   UNL     1       1.917  -1.170   1.076  0.00  0.00    +0.030 A 
ATOM      9  C   UNL     1       2.620  -1.541   2.218  0.00  0.00    +0.024 A 
ATOM     10  C   UNL     1       3.818  -2.210   2.104  0.00  0.00    +0.020 A 
ATOM     11  C   UNL     1       4.327  -2.517   0.839  0.00  0.00    +0.052 A 
ATOM     12  C   UNL     1       3.618  -2.143  -0.306  0.00  0.00    +0.020 A 
ATOM     13  C   UNL     1       2.419  -1.479  -0.185  0.00  0.00    +0.024 A 
BRANCH  11  14
ATOM     14  C   UNL     1       5.573  -3.213   0.717  0.00  0.00    +0.099 C 
ATOM     15  N   UNL     1       6.561  -3.764   0.620  0.00  0.00    -0.191 NA
ENDBRANCH  11  14
ENDBRANCH   7   8
BRANCH   5  16
ATOM     16  C   UNL     1      -2.030  -0.462   3.787  0.00  0.00    +0.215 C 
ATOM     17  O   UNL     1      -1.428   0.140   4.651  0.00  0.00    -0.276 OA
ATOM     18  N   UNL     1      -3.311  -0.828   3.988  0.00  0.00    -0.329 N 
ATOM     19  H   UNL     1      -3.792  -1.309   3.297  0.00  0.00    +0.145 HD
ATOM     20  H   UNL     1      -3.752  -0.611   4.824  0.00  0.00    +0.145 HD
ENDBRANCH   5  16
TORSDOF 3
