REMARK  Name = ZINC57328249
REMARK  3 active torsions:
REMARK  status: ('A' for Active; 'I' for Inactive)
REMARK    1  A    between atoms: C_6  and  O_7
REMARK    2  A    between atoms: O_7  and  C_8
REMARK    3  A    between atoms: N_14  and  N_15
REMARK                            x       y       z     vdW  Elec       q    Type
REMARK                         _______ _______ _______ _____ _____    ______ ____
ROOT
ATOM      1  C   UNL     1      -0.017   1.371   0.010  0.00  0.00    +0.063 A 
ATOM      2  C   UNL     1       1.158   2.110   0.002  0.00  0.00    +0.023 A 
ATOM      3  C   UNL     1       2.374   1.451  -0.013  0.00  0.00    +0.032 A 
ATOM      4  C   UNL     1       2.403   0.077  -0.020  0.00  0.00    +0.045 A 
ATOM      5  C   UNL     1       1.231  -0.710  -0.013  0.00  0.00    +0.122 A 
ATOM      6  C   UNL     1       0.002  -0.004   0.002  0.00  0.00    +0.154 A 
ATOM      7  N   UNL     1       1.425  -2.049  -0.023  0.00  0.00    -0.220 NA
ATOM      8  C   UNL     1       2.622  -2.588  -0.037  0.00  0.00    +0.173 A 
ATOM      9  S   UNL     1       3.686  -1.152  -0.040  0.00  0.00    -0.051 S 
ATOM     10  N   UNL     1       2.970  -3.924  -0.048  0.00  0.00    -0.262 N 
ATOM     11 BR   UNL     1       1.097   4.000   0.012  0.00  0.00    -0.050 Br
ATOM     12  H   UNL     1       2.280  -4.605  -0.045  0.00  0.00    +0.168 HD
ENDROOT
BRANCH  10  13
ATOM     13  N   UNL     1       4.287  -4.287  -0.063  0.00  0.00    -0.255 NA
ATOM     14  H   UNL     1       4.783  -3.880   0.716  0.00  0.00    +0.140 HD
ATOM     15  H   UNL     1       4.386  -5.291  -0.070  0.00  0.00    +0.140 HD
ENDBRANCH  10  13
BRANCH   6  16
ATOM     16  O   UNL     1      -1.170  -0.693   0.009  0.00  0.00    -0.432 OA
BRANCH  16  17
ATOM     17  C   UNL     1      -2.374   0.076   0.025  0.00  0.00    +0.541 C 
ATOM     18  F   UNL     1      -2.402   0.876   1.172  0.00  0.00    -0.166 F 
ATOM     19  F   UNL     1      -2.423   0.889  -1.113  0.00  0.00    -0.166 F 
ENDBRANCH  16  17
ENDBRANCH   6  16
TORSDOF 3
