REMARK  Name = ZINC38615207
REMARK  9 active torsions:
REMARK  status: ('A' for Active; 'I' for Inactive)
REMARK    1  A    between atoms: C_1  and  O_2
REMARK    2  A    between atoms: O_2  and  C_3
REMARK    3  A    between atoms: C_6  and  C_9
REMARK    4  A    between atoms: C_9  and  C_11
REMARK    5  A    between atoms: C_9  and  N_31
REMARK    6  A    between atoms: C_11  and  N_12
REMARK    7  A    between atoms: C_13  and  C_15
REMARK    8  A    between atoms: C_15  and  N_16
REMARK    9  A    between atoms: C_20  and  C_21
REMARK                            x       y       z     vdW  Elec       q    Type
REMARK                         _______ _______ _______ _____ _____    ______ ____
ROOT
ATOM      1  N   UNL     1      -5.208   0.003   2.631  0.00  0.00    -0.315 N 
ATOM      2  C   UNL     1      -5.489  -0.447   3.870  0.00  0.00    +0.231 C 
ATOM      3  O   UNL     1      -5.440  -1.635   4.109  0.00  0.00    -0.274 OA
ATOM      4  H   UNL     1      -5.247   0.954   2.440  0.00  0.00    +0.149 HD
ENDROOT
BRANCH   1   5
ATOM      5  C   UNL     1      -4.845  -0.942   1.573  0.00  0.00    +0.093 C 
BRANCH   5   6
ATOM      6  C   UNL     1      -4.450  -0.170   0.312  0.00  0.00    -0.020 C 
BRANCH   6   7
ATOM      7  N   UNL     1      -4.173  -1.117  -0.776  0.00  0.00    +0.385 N 
ATOM      8  C   UNL     1      -3.748  -0.377  -1.970  0.00  0.00    -0.078 C 
ATOM      9  C   UNL     1      -3.380  -1.363  -3.081  0.00  0.00    -0.019 C 
ATOM     10  C   UNL     1      -4.601  -2.222  -3.419  0.00  0.00    -0.004 C 
ATOM     11  C   UNL     1      -5.081  -2.932  -2.150  0.00  0.00    -0.019 C 
ATOM     12  C   UNL     1      -5.386  -1.888  -1.073  0.00  0.00    -0.078 C 
ATOM     13  H   UNL     1      -3.437  -1.746  -0.493  0.00  0.00    -0.081 HD
ENDBRANCH   6   7
BRANCH   6  17
ATOM     14  C   UNL     1      -0.953   2.156   1.103  0.00  0.00    +0.120 A 
ATOM     15  C   UNL     1      -2.205   2.754   1.121  0.00  0.00    +0.046 A 
ATOM     16  C   UNL     1      -3.333   2.001   0.865  0.00  0.00    +0.005 A 
ATOM     17  C   UNL     1      -3.217   0.650   0.591  0.00  0.00    -0.059 A 
ATOM     18  C   UNL     1      -1.971   0.051   0.573  0.00  0.00    +0.005 A 
ATOM     19  C   UNL     1      -0.839   0.802   0.822  0.00  0.00    +0.046 A 
BRANCH  14  21
ATOM     20  C   UNL     1      -0.035   4.283   1.635  0.00  0.00    +0.277 C 
ATOM     21  O   UNL     1       0.159   2.895   1.354  0.00  0.00    -0.495 OA
ENDBRANCH  14  21
ENDBRANCH   6  17
ENDBRANCH   5   6
ENDBRANCH   1   5
BRANCH   2  22
ATOM     22  C   UNL     1      -5.863   0.525   4.958  0.00  0.00    +0.210 C 
BRANCH  22  23
ATOM     23  N   UNL     1      -6.118  -0.207   6.201  0.00  0.00    -0.246 N 
ATOM     24  C   UNL     1      -7.342  -0.638   6.457  0.00  0.00    +0.259 C 
ATOM     25  O   UNL     1      -8.263  -0.442   5.687  0.00  0.00    -0.269 OA
ATOM     26  C   UNL     1      -7.533  -1.370   7.726  0.00  0.00    +0.077 C 
ATOM     27  C   UNL     1      -8.659  -1.921   8.246  0.00  0.00    +0.028 C 
ATOM     28  S   UNL     1      -5.873  -1.332   8.389  0.00  0.00    -0.061 S 
ATOM     29  C   UNL     1      -5.099  -0.431   7.055  0.00  0.00    +0.121 C 
ATOM     30  S   UNL     1      -3.459   0.036   6.900  0.00  0.00    -0.027 S 
BRANCH  27  31
ATOM     31  C   UNL     1      -8.648  -2.466   9.611  0.00  0.00    -0.024 A 
ATOM     32  C   UNL     1      -7.621  -2.121  10.498  0.00  0.00    +0.011 A 
ATOM     33  C   UNL     1      -7.617  -2.636  11.775  0.00  0.00    +0.039 A 
ATOM     34  C   UNL     1      -8.627  -3.496  12.183  0.00  0.00    +0.123 A 
ATOM     35  C   UNL     1      -9.646  -3.842  11.310  0.00  0.00    +0.039 A 
ATOM     36  C   UNL     1      -9.666  -3.330  10.031  0.00  0.00    +0.011 A 
ATOM     37  F   UNL     1      -8.616  -3.997  13.438  0.00  0.00    -0.205 F 
ENDBRANCH  27  31
ENDBRANCH  22  23
ENDBRANCH   2  22
TORSDOF 8
