REMARK  Name = ZINC13416068
REMARK  7 active torsions:
REMARK  status: ('A' for Active; 'I' for Inactive)
REMARK    1  A    between atoms: C_1  and  C_2
REMARK    2  A    between atoms: C_3  and  C_32
REMARK    3  A    between atoms: C_9  and  C_13
REMARK    4  A    between atoms: C_13  and  S_14
REMARK    5  A    between atoms: S_14  and  C_15
REMARK    6  A    between atoms: N_28  and  C_29
REMARK    7  A    between atoms: C_29  and  C_30
REMARK                            x       y       z     vdW  Elec       q    Type
REMARK                         _______ _______ _______ _____ _____    ______ ____
ROOT
ATOM      1  S   UNL     1       3.624  -5.063  -0.043  0.00  0.00    -0.080 S 
ENDROOT
BRANCH   1   2
ATOM      2  C   UNL     1       4.524  -6.577  -0.055  0.00  0.00    +0.173 A 
ATOM      3  N   UNL     1       3.871  -7.722  -0.063  0.00  0.00    -0.216 NA
ATOM      4  C   UNL     1       4.524  -8.878  -0.073  0.00  0.00    +0.117 A 
ATOM      5  C   UNL     1       5.928  -8.943  -0.075  0.00  0.00    +0.076 A 
ATOM      6  C   UNL     1       6.505 -10.288  -0.085  0.00  0.00    -0.023 A 
ATOM      7  C   UNL     1       5.643 -11.324  -0.092  0.00  0.00    -0.004 A 
ATOM      8  S   UNL     1       4.033 -10.583  -0.086  0.00  0.00    -0.073 S 
ATOM      9  C   UNL     1       5.978 -12.785  -0.103  0.00  0.00    +0.043 C 
ATOM     10  C   UNL     1       7.459 -12.939  -0.479  0.00  0.00    +0.005 C 
ATOM     11  C   UNL     1       8.284 -11.963   0.365  0.00  0.00    +0.005 C 
ATOM     12  C   UNL     1       8.013 -10.528  -0.087  0.00  0.00    +0.037 C 
ATOM     13  C   UNL     1       6.611  -7.685  -0.066  0.00  0.00    +0.263 A 
ATOM     14  O   UNL     1       7.829  -7.643  -0.068  0.00  0.00    -0.267 OA
ATOM     15  N   UNL     1       5.889  -6.549  -0.062  0.00  0.00    -0.283 N 
BRANCH  15  16
ATOM     16  C   UNL     1       6.581  -5.258  -0.059  0.00  0.00    +0.154 C 
BRANCH  16  17
ATOM     17  C   UNL     1       6.825  -4.823   1.363  0.00  0.00    -0.013 C 
ATOM     18  C   UNL     1       8.039  -4.531   1.759  0.00  0.00    +0.005 C 
ENDBRANCH  16  17
ENDBRANCH  15  16
ENDBRANCH   1   2
BRANCH   1  19
ATOM     19  C   UNL     1       1.887  -5.585  -0.037  0.00  0.00    +0.151 C 
BRANCH  19  28
ATOM     20  C   UNL     1      -0.018   1.503   0.010  0.00  0.00    +0.087 C 
ATOM     21  C   UNL     1       0.002  -0.004   0.002  0.00  0.00    +0.119 A 
ATOM     22  C   UNL     1      -1.102  -0.806   0.003  0.00  0.00    +0.118 A 
ATOM     23  C   UNL     1      -0.586  -2.186  -0.007  0.00  0.00    +0.118 A 
ATOM     24  C   UNL     1      -1.171  -3.470  -0.011  0.00  0.00    +0.263 A 
ATOM     25  O   UNL     1      -2.382  -3.607  -0.006  0.00  0.00    -0.267 OA
ATOM     26  N   UNL     1      -0.348  -4.544  -0.020  0.00  0.00    -0.309 N 
ATOM     27  H   UNL     1      -0.720  -5.439  -0.023  0.00  0.00    +0.170 HD
ATOM     28  C   UNL     1       0.997  -4.369  -0.026  0.00  0.00    +0.124 A 
ATOM     29  N   UNL     1       1.547  -3.188  -0.022  0.00  0.00    -0.198 NA
ATOM     30  C   UNL     1       0.804  -2.070  -0.013  0.00  0.00    +0.235 A 
ATOM     31  O   UNL     1       1.106  -0.761  -0.013  0.00  0.00    -0.441 OA
BRANCH  22  32
ATOM     32  C   UNL     1      -2.507  -0.383   0.012  0.00  0.00    +0.391 C 
ATOM     33  O   UNL     1      -2.788   0.808   0.020  0.00  0.00    -0.240 OA
ATOM     34  O   UNL     1      -3.398  -1.222   0.012  0.00  0.00    -0.240 OA
ENDBRANCH  22  32
ENDBRANCH  19  28
ENDBRANCH   1  19
TORSDOF 6
