REMARK  Name = ZINC00704321
REMARK  5 active torsions:
REMARK  status: ('A' for Active; 'I' for Inactive)
REMARK    1  A    between atoms: C_4  and  C_7
REMARK    2  A    between atoms: C_9  and  C_24
REMARK    3  A    between atoms: C_10  and  C_17
REMARK    4  A    between atoms: C_12  and  N_16
REMARK    5  A    between atoms: C_13  and  C_14
REMARK                            x       y       z     vdW  Elec       q    Type
REMARK                         _______ _______ _______ _____ _____    ______ ____
ROOT
ATOM      1  C   UNL     1       1.281   2.188   0.086  0.00  0.00    +0.108 C 
ATOM      2  C   UNL     1      -0.018   1.430   0.091  0.00  0.00    +0.085 C 
ATOM      3  C   UNL     1      -1.204   2.078   0.019  0.00  0.00    +0.151 C 
ATOM      4  O   UNL     1      -1.273   3.422  -0.050  0.00  0.00    -0.440 OA
ATOM      5  C   UNL     1      -0.192   4.127  -0.431  0.00  0.00    +0.199 C 
ATOM      6  C   UNL     1       1.054   3.596  -0.391  0.00  0.00    +0.099 C 
ENDROOT
BRANCH   3   7
ATOM      7  C   UNL     1      -2.454   1.293   0.022  0.00  0.00    +0.018 A 
ATOM      8  C   UNL     1      -2.600   0.204  -0.841  0.00  0.00    +0.012 A 
ATOM      9  C   UNL     1      -3.768  -0.529  -0.829  0.00  0.00    +0.016 A 
ATOM     10  C   UNL     1      -4.799  -0.180   0.027  0.00  0.00    +0.018 A 
ATOM     11  C   UNL     1      -4.663   0.901   0.881  0.00  0.00    +0.016 A 
ATOM     12  C   UNL     1      -3.498   1.639   0.883  0.00  0.00    +0.012 A 
ATOM     13 BR   UNL     1      -6.401  -1.186   0.030  0.00  0.00    -0.050 Br
ENDBRANCH   3   7
BRANCH   1  17
ATOM     14  C   UNL     1       2.884   2.281   4.045  0.00  0.00    +0.000 A 
ATOM     15  C   UNL     1       3.606   1.699   3.020  0.00  0.00    +0.000 A 
ATOM     16  C   UNL     1       3.088   1.669   1.739  0.00  0.00    +0.004 A 
ATOM     17  C   UNL     1       1.846   2.220   1.483  0.00  0.00    -0.034 A 
ATOM     18  C   UNL     1       1.125   2.806   2.507  0.00  0.00    +0.004 A 
ATOM     19  C   UNL     1       1.642   2.833   3.789  0.00  0.00    +0.000 A 
ENDBRANCH   1  17
BRANCH   5  20
ATOM     20  N   UNL     1      -0.356   5.417  -0.871  0.00  0.00    -0.328 N 
ATOM     21  H   UNL     1       0.415   5.936  -1.149  0.00  0.00    +0.145 HD
ATOM     22  H   UNL     1      -1.242   5.809  -0.905  0.00  0.00    +0.145 HD
ENDBRANCH   5  20
BRANCH   6  23
ATOM     23  C   UNL     1       2.171   4.388  -0.808  0.00  0.00    +0.101 C 
ATOM     24  N   UNL     1       3.058   5.016  -1.139  0.00  0.00    -0.191 NA
ENDBRANCH   6  23
BRANCH   2  25
ATOM     25  C   UNL     1      -0.000  -0.000   0.168  0.00  0.00    +0.099 C 
ATOM     26  N   UNL     1       0.015  -1.134   0.229  0.00  0.00    -0.191 NA
ENDBRANCH   2  25
TORSDOF 5
