REMARK  Name = ZINC39624103
REMARK  8 active torsions:
REMARK  status: ('A' for Active; 'I' for Inactive)
REMARK    1  A    between atoms: C_1  and  C_2
REMARK    2  A    between atoms: C_2  and  C_3
REMARK    3  A    between atoms: C_3  and  C_4
REMARK    4  A    between atoms: C_4  and  N_5
REMARK    5  A    between atoms: C_6  and  C_8
REMARK    6  A    between atoms: C_19  and  C_21
REMARK    7  A    between atoms: C_24  and  O_28
REMARK    8  A    between atoms: O_28  and  C_29
REMARK                            x       y       z     vdW  Elec       q    Type
REMARK                         _______ _______ _______ _____ _____    ______ ____
ROOT
ATOM      1  C   UNL     1      -4.053  -4.433   0.602  0.00  0.00    +0.100 C 
ATOM      2  C   UNL     1      -5.022  -4.060   1.746  0.00  0.00    +0.121 C 
ATOM      3  N   UNL     1      -5.860  -5.268   1.936  0.00  0.00    -0.296 N 
ATOM      4  C   UNL     1      -4.916  -6.400   1.779  0.00  0.00    +0.115 C 
ATOM      5  C   UNL     1      -3.985  -5.970   0.627  0.00  0.00    -0.004 C 
ATOM      6  C   UNL     1      -2.557  -6.431   0.904  0.00  0.00    -0.010 C 
ATOM      7  C   UNL     1      -2.503  -7.961   0.866  0.00  0.00    -0.082 C 
ATOM      8  N   UNL     1      -2.946  -8.435  -0.450  0.00  0.00    +0.379 N 
ATOM      9  C   UNL     1      -4.350  -8.068  -0.669  0.00  0.00    -0.082 C 
ATOM     10  C   UNL     1      -4.482  -6.542  -0.696  0.00  0.00    -0.010 C 
ATOM     11  C   UNL     1      -7.182  -5.324   2.193  0.00  0.00    +0.247 C 
ATOM     12  O   UNL     1      -7.850  -4.309   2.166  0.00  0.00    -0.270 OA
ATOM     13  H   UNL     1      -2.374  -8.015  -1.168  0.00  0.00    -0.086 HD
ATOM     14  H   UNL     1      -2.852  -9.439  -0.493  0.00  0.00    -0.086 HD
ENDROOT
BRANCH  11  15
ATOM     15  C   UNL     1      -7.818  -6.619   2.506  0.00  0.00    +0.040 A 
ATOM     16  C   UNL     1      -7.043  -7.688   2.964  0.00  0.00    +0.036 A 
ATOM     17  C   UNL     1      -7.640  -8.895   3.256  0.00  0.00    +0.085 A 
ATOM     18  C   UNL     1      -9.012  -9.050   3.095  0.00  0.00    +0.157 A 
ATOM     19  C   UNL     1      -9.787  -7.989   2.640  0.00  0.00    +0.085 A 
ATOM     20  C   UNL     1      -9.198  -6.777   2.352  0.00  0.00    +0.036 A 
ATOM     21 CL   UNL     1     -11.500  -8.189   2.440  0.00  0.00    -0.080 Cl
ATOM     22 CL   UNL     1      -6.678 -10.223   3.825  0.00  0.00    -0.080 Cl
BRANCH  18  23
ATOM     23  O   UNL     1      -9.597 -10.241   3.383  0.00  0.00    -0.492 OA
ATOM     24  C   UNL     1     -10.061 -10.430   4.721  0.00  0.00    +0.277 C 
ENDBRANCH  18  23
ENDBRANCH  11  15
BRANCH   1  26
ATOM     25  N   UNL     1      -1.898  -3.504  -0.180  0.00  0.00    -0.315 N 
ATOM     26  C   UNL     1      -2.690  -3.843   0.856  0.00  0.00    +0.218 C 
ATOM     27  O   UNL     1      -2.305  -3.674   1.994  0.00  0.00    -0.275 OA
ATOM     28  H   UNL     1      -2.206  -3.640  -1.090  0.00  0.00    +0.149 HD
BRANCH  25  29
ATOM     29  C   UNL     1      -0.573  -2.931   0.067  0.00  0.00    +0.104 C 
BRANCH  29  30
ATOM     30  C   UNL     1       0.113  -2.638  -1.269  0.00  0.00    +0.018 C 
BRANCH  30  32
ATOM     31  C   UNL     1       2.183  -1.746  -2.347  0.00  0.00    +0.004 C 
ATOM     32  C   UNL     1       1.497  -2.039  -1.011  0.00  0.00    -0.002 C 
ENDBRANCH  30  32
ENDBRANCH  29  30
ENDBRANCH  25  29
ENDBRANCH   1  26
TORSDOF 6
