REMARK  Name = ZINC12562034
REMARK  7 active torsions:
REMARK  status: ('A' for Active; 'I' for Inactive)
REMARK    1  A    between atoms: C_1  and  C_2
REMARK    2  A    between atoms: C_7  and  N_8
REMARK    3  A    between atoms: C_9  and  C_11
REMARK    4  A    between atoms: C_14  and  S_17
REMARK    5  A    between atoms: S_17  and  N_20
REMARK    6  A    between atoms: C_22  and  C_29
REMARK    7  A    between atoms: C_25  and  C_28
REMARK                            x       y       z     vdW  Elec       q    Type
REMARK                         _______ _______ _______ _____ _____    ______ ____
ROOT
ATOM      1  C   UNL     1       1.371  -0.813  -5.361  0.00  0.00    +0.037 A 
ATOM      2  C   UNL     1       0.127  -0.197  -5.497  0.00  0.00    +0.015 A 
ATOM      3  C   UNL     1      -0.271   0.757  -4.583  0.00  0.00    +0.029 A 
ATOM      4  C   UNL     1       0.561   1.102  -3.532  0.00  0.00    +0.106 A 
ATOM      5  C   UNL     1       1.798   0.499  -3.395  0.00  0.00    +0.029 A 
ATOM      6  C   UNL     1       2.206  -0.460  -4.299  0.00  0.00    +0.015 A 
ENDROOT
BRANCH   1   8
ATOM      7  N   UNL     1       3.006  -2.429  -6.202  0.00  0.00    -0.281 N 
ATOM      8  C   UNL     1       1.804  -1.836  -6.337  0.00  0.00    +0.248 C 
ATOM      9  O   UNL     1       1.075  -2.141  -7.261  0.00  0.00    -0.270 OA
ATOM     10  H   UNL     1       3.703  -2.090  -5.422  0.00  0.00    +0.155 HD
BRANCH   7  17
ATOM     11  C   UNL     1       5.777  -2.907  -6.642  0.00  0.00    +0.046 C 
ATOM     12  C   UNL     1       4.709  -3.745  -7.298  0.00  0.00    -0.028 A 
ATOM     13  C   UNL     1       5.064  -4.784  -8.136  0.00  0.00    +0.019 A 
ATOM     14  C   UNL     1       4.085  -5.549  -8.744  0.00  0.00    +0.014 A 
ATOM     15  C   UNL     1       2.748  -5.281  -8.508  0.00  0.00    +0.016 A 
ATOM     16  C   UNL     1       2.387  -4.247  -7.667  0.00  0.00    +0.024 A 
ATOM     17  C   UNL     1       3.368  -3.477  -7.056  0.00  0.00    +0.037 A 
ATOM     18  I   UNL     1       4.627  -7.118 -10.021  0.00  0.00    -0.044 I 
ENDBRANCH   7  17
ENDBRANCH   1   8
BRANCH   4  19
ATOM     19  S   UNL     1       0.046   2.321  -2.369  0.00  0.00    +0.061 S 
ATOM     20  O   UNL     1      -0.917   3.131  -3.030  0.00  0.00    -0.153 OA
ATOM     21  O   UNL     1       1.228   2.859  -1.794  0.00  0.00    -0.153 OA
BRANCH  19  22
ATOM     22  N   UNL     1      -0.755   1.531  -1.154  0.00  0.00    -0.172 NA
ATOM     23  C   UNL     1      -0.035   1.031   0.028  0.00  0.00    +0.140 C 
ATOM     24  C   UNL     1      -0.767   1.520   1.283  0.00  0.00    +0.131 C 
ATOM     25  O   UNL     1      -2.150   1.169   1.187  0.00  0.00    -0.371 OA
ATOM     26  C   UNL     1      -2.834   1.782   0.091  0.00  0.00    +0.131 C 
ATOM     27  C   UNL     1      -2.208   1.307  -1.225  0.00  0.00    +0.140 C 
ATOM     28  C   UNL     1      -4.312   1.387   0.125  0.00  0.00    +0.039 C 
ATOM     29  C   UNL     1      -0.156   0.859   2.521  0.00  0.00    +0.039 C 
ENDBRANCH  19  22
ENDBRANCH   4  19
TORSDOF 4
