REMARK  Name = ZINC65594241
REMARK  6 active torsions:
REMARK  status: ('A' for Active; 'I' for Inactive)
REMARK    1  A    between atoms: C_1  and  C_2
REMARK    2  A    between atoms: C_4  and  C_30
REMARK    3  A    between atoms: C_6  and  C_29
REMARK    4  A    between atoms: C_10  and  C_11
REMARK    5  A    between atoms: C_16  and  N_19
REMARK    6  A    between atoms: N_22  and  C_23
REMARK                            x       y       z     vdW  Elec       q    Type
REMARK                         _______ _______ _______ _____ _____    ______ ____
ROOT
ATOM      1  C   UNL     1      -2.404   0.545   2.878  0.00  0.00    +0.254 C 
ATOM      2  O   UNL     1      -2.599   0.064   1.778  0.00  0.00    -0.269 OA
ATOM      3  N   UNL     1      -2.909  -0.054   3.975  0.00  0.00    -0.297 N 
ATOM      4  C   UNL     1      -3.743  -1.257   3.854  0.00  0.00    +0.110 C 
ATOM      5  C   UNL     1      -5.062  -1.019   4.596  0.00  0.00    +0.041 C 
ATOM      6  C   UNL     1      -4.765  -0.603   6.038  0.00  0.00    +0.077 C 
ATOM      7  C   UNL     1      -3.967   0.703   6.040  0.00  0.00    +0.041 C 
ATOM      8  C   UNL     1      -2.631   0.481   5.315  0.00  0.00    +0.110 C 
ENDROOT
BRANCH   1  18
ATOM      9  C   UNL     1      -2.832   3.093   1.289  0.00  0.00    +0.046 C 
ATOM     10  C   UNL     1      -1.755   2.949   2.333  0.00  0.00    -0.020 A 
ATOM     11  C   UNL     1      -0.897   4.025   2.613  0.00  0.00    +0.032 A 
ATOM     12  C   UNL     1      -0.865   5.320   2.040  0.00  0.00    +0.050 A 
ATOM     13  N   UNL     1       0.034   6.186   2.454  0.00  0.00    -0.237 NA
ATOM     14  C   UNL     1       0.919   5.895   3.392  0.00  0.00    +0.128 A 
ATOM     15  N   UNL     1       0.945   4.708   3.967  0.00  0.00    -0.225 NA
ATOM     16  C   UNL     1       0.081   3.782   3.613  0.00  0.00    +0.113 A 
ATOM     17  S   UNL     1      -0.240   2.107   4.100  0.00  0.00    -0.064 S 
ATOM     18  C   UNL     1      -1.616   1.778   3.011  0.00  0.00    +0.080 A 
ATOM     19  C   UNL     1       1.919   6.941   3.813  0.00  0.00    +0.088 C 
ATOM     20  C   UNL     1      -1.852   5.702   0.967  0.00  0.00    +0.066 C 
ENDBRANCH   1  18
BRANCH   6  21
ATOM     21  N   UNL     1      -6.024  -0.406   6.759  0.00  0.00    -0.296 N 
ATOM     22  C   UNL     1      -6.060  -0.535   8.100  0.00  0.00    +0.300 C 
ATOM     23  O   UNL     1      -5.047  -0.815   8.711  0.00  0.00    -0.253 OA
ATOM     24  N   UNL     1      -7.219  -0.354   8.764  0.00  0.00    -0.297 N 
ATOM     25  H   UNL     1      -6.833  -0.183   6.272  0.00  0.00    +0.151 HD
ATOM     26  H   UNL     1      -8.028  -0.131   8.276  0.00  0.00    +0.151 HD
BRANCH  24  27
ATOM     27  C   UNL     1      -7.258  -0.494  10.222  0.00  0.00    +0.074 C 
ATOM     28  C   UNL     1      -7.449  -1.968  10.587  0.00  0.00    +0.022 C 
ATOM     29  C   UNL     1      -7.490  -2.114  12.110  0.00  0.00    +0.002 C 
ATOM     30  C   UNL     1      -8.654  -1.295  12.670  0.00  0.00    +0.000 C 
ATOM     31  C   UNL     1      -8.464   0.178  12.304  0.00  0.00    +0.002 C 
ATOM     32  C   UNL     1      -8.423   0.325  10.782  0.00  0.00    +0.022 C 
ENDBRANCH  24  27
ENDBRANCH   6  21
TORSDOF 3
