REMARK  Name = ZINC22681508
REMARK  7 active torsions:
REMARK  status: ('A' for Active; 'I' for Inactive)
REMARK    1  A    between atoms: C_1  and  C_2
REMARK    2  A    between atoms: N_5  and  C_8
REMARK    3  A    between atoms: C_8  and  C_10
REMARK    4  A    between atoms: C_8  and  C_30
REMARK    5  A    between atoms: C_10  and  N_11
REMARK    6  A    between atoms: C_12  and  C_14
REMARK    7  A    between atoms: C_20  and  C_22
REMARK                            x       y       z     vdW  Elec       q    Type
REMARK                         _______ _______ _______ _____ _____    ______ ____
ROOT
ATOM      1  N   UNL     1       4.102   4.368   0.289  0.00  0.00    -0.316 N 
ATOM      2  C   UNL     1       2.833   3.968   0.073  0.00  0.00    +0.216 C 
ATOM      3  O   UNL     1       1.936   4.784   0.051  0.00  0.00    -0.276 OA
ATOM      4  H   UNL     1       4.916   3.628   0.308  0.00  0.00    +0.149 HD
ENDROOT
BRANCH   2   5
ATOM      5  C   UNL     1       2.530   2.508  -0.141  0.00  0.00    +0.078 C 
ATOM      6  C   UNL     1       1.026   2.327  -0.362  0.00  0.00    +0.032 C 
ATOM      7  C   UNL     1       0.716   0.838  -0.544  0.00  0.00    +0.109 C 
ATOM      8  N   UNL     1       1.553   0.311  -1.631  0.00  0.00    -0.297 N 
ATOM      9  C   UNL     1       3.007   0.510  -1.562  0.00  0.00    +0.109 C 
ATOM     10  C   UNL     1       3.291   2.003  -1.369  0.00  0.00    +0.032 C 
ATOM     11  C   UNL     1       0.998  -0.344  -2.670  0.00  0.00    +0.249 C 
ATOM     12  O   UNL     1      -0.197  -0.571  -2.677  0.00  0.00    -0.270 OA
BRANCH  11  13
ATOM     13  C   UNL     1       1.840  -0.785  -3.799  0.00  0.00    +0.072 A 
ATOM     14  C   UNL     1       2.958  -1.590  -3.568  0.00  0.00    +0.019 A 
ATOM     15  C   UNL     1       3.740  -1.999  -4.625  0.00  0.00    +0.039 A 
ATOM     16  C   UNL     1       3.420  -1.615  -5.919  0.00  0.00    +0.126 A 
ATOM     17  C   UNL     1       2.313  -0.816  -6.158  0.00  0.00    +0.077 A 
ATOM     18  C   UNL     1       1.518  -0.403  -5.106  0.00  0.00    +0.138 A 
ATOM     19  F   UNL     1       0.435   0.371  -5.339  0.00  0.00    -0.205 F 
ATOM     20  F   UNL     1       4.192  -2.020  -6.952  0.00  0.00    -0.205 F 
ENDBRANCH  11  13
ENDBRANCH   2   5
BRANCH   1  21
ATOM     21  C   UNL     1       4.398   5.788   0.497  0.00  0.00    +0.094 C 
BRANCH  21  22
ATOM     22  C   UNL     1       5.901   5.969   0.717  0.00  0.00    -0.013 C 
BRANCH  22  27
ATOM     23  C   UNL     1       8.939   4.566  -3.917  0.00  0.00    +0.007 C 
ATOM     24  C   UNL     1       8.225   5.358  -2.820  0.00  0.00    -0.018 C 
ATOM     25  C   UNL     1       8.817   4.991  -1.456  0.00  0.00    -0.015 C 
ATOM     26  C   UNL     1       8.058   5.740  -0.358  0.00  0.00    -0.078 C 
ATOM     27  N   UNL     1       6.636   5.376  -0.408  0.00  0.00    +0.386 N 
ATOM     28  C   UNL     1       6.034   5.762  -1.691  0.00  0.00    -0.078 C 
ATOM     29  C   UNL     1       6.733   5.013  -2.829  0.00  0.00    -0.015 C 
ATOM     30  H   UNL     1       6.567   4.282  -0.320  0.00  0.00    -0.081 HD
ENDBRANCH  22  27
BRANCH  22  31
ATOM     31  C   UNL     1       6.222   7.439   0.809  0.00  0.00    -0.022 A 
ATOM     32  C   UNL     1       6.586   8.167   1.893  0.00  0.00    +0.009 A 
ATOM     33  C   UNL     1       6.838   9.517   1.739  0.00  0.00    +0.008 A 
ATOM     34  C   UNL     1       6.703  10.075   0.511  0.00  0.00    +0.045 A 
ATOM     35  S   UNL     1       6.214   8.673  -0.480  0.00  0.00    -0.103 S 
ENDBRANCH  22  31
ENDBRANCH  21  22
ENDBRANCH   1  21
TORSDOF 6
