REMARK  Name = ZINC20751735
REMARK  7 active torsions:
REMARK  status: ('A' for Active; 'I' for Inactive)
REMARK    1  A    between atoms: C_1  and  C_2
REMARK    2  A    between atoms: C_5  and  N_9
REMARK    3  A    between atoms: C_6  and  C_8
REMARK    4  A    between atoms: N_9  and  S_10
REMARK    5  A    between atoms: S_10  and  C_13
REMARK    6  A    between atoms: C_26  and  C_29
REMARK    7  A    between atoms: C_38  and  O_39
REMARK                            x       y       z     vdW  Elec       q    Type
REMARK                         _______ _______ _______ _____ _____    ______ ____
ROOT
ATOM      1  C   UNL     1       8.143   0.636  -0.963  0.00  0.00    +0.109 A 
ATOM      2  C   UNL     1       7.709   0.260  -2.221  0.00  0.00    +0.030 A 
ATOM      3  C   UNL     1       6.362   0.062  -2.448  0.00  0.00    +0.025 A 
ATOM      4  C   UNL     1       5.449   0.241  -1.417  0.00  0.00    +0.031 A 
ATOM      5  C   UNL     1       5.880   0.617  -0.154  0.00  0.00    -0.018 A 
ATOM      6  C   UNL     1       7.237   0.813   0.062  0.00  0.00    +0.034 A 
ATOM      7  C   UNL     1       4.935   0.818   0.988  0.00  0.00    +0.049 C 
ATOM      8  C   UNL     1       4.733   2.285   1.285  0.00  0.00    -0.023 C 
ATOM      9  C   UNL     1       3.493   2.509   1.644  0.00  0.00    -0.030 C 
ATOM     10  C   UNL     1       2.697   1.218   1.641  0.00  0.00    +0.033 C 
ATOM     11  C   UNL     1       3.516   0.292   0.695  0.00  0.00    +0.029 C 
ATOM     12  C   UNL     1       3.116   0.640  -0.742  0.00  0.00    +0.109 C 
ATOM     13  N   UNL     1       4.086   0.040  -1.664  0.00  0.00    -0.336 N 
ATOM     14  H   UNL     1       3.736  -0.551  -2.523  0.00  0.00    +0.147 HD
ENDROOT
BRANCH  12  15
ATOM     15  C   UNL     1       3.114   2.137  -0.916  0.00  0.00    +0.022 A 
ATOM     16  C   UNL     1       1.965   2.883  -0.604  0.00  0.00    -0.009 A 
ATOM     17  C   UNL     1       0.800   2.260  -0.124  0.00  0.00    +0.009 A 
ATOM     18  C   UNL     1      -0.297   3.013   0.163  0.00  0.00    +0.001 A 
ATOM     19  C   UNL     1      -0.280   4.397   0.000  0.00  0.00    +0.001 A 
ATOM     20  C   UNL     1       0.831   5.034  -0.461  0.00  0.00    +0.008 A 
ATOM     21  C   UNL     1       1.981   4.290  -0.774  0.00  0.00    -0.017 A 
ATOM     22  C   UNL     1       3.145   4.915  -1.254  0.00  0.00    +0.012 A 
ATOM     23  C   UNL     1       4.241   4.165  -1.548  0.00  0.00    +0.046 A 
ATOM     24  C   UNL     1       4.228   2.776  -1.380  0.00  0.00    +0.122 A 
BRANCH  24  25
ATOM     25  O   UNL     1       5.338   2.054  -1.682  0.00  0.00    -0.506 OA
ATOM     26  H   UNL     1       6.240   2.562  -2.056  0.00  0.00    +0.292 HD
ENDBRANCH  24  25
ENDBRANCH  12  15
BRANCH   1  27
ATOM     27  S   UNL     1       9.862   0.890  -0.668  0.00  0.00    +0.072 S 
ATOM     28  O   UNL     1      10.450   1.191  -1.927  0.00  0.00    -0.150 OA
ATOM     29  O   UNL     1       9.958   1.766   0.446  0.00  0.00    -0.150 OA
BRANCH  27  30
ATOM     30  N   UNL     1      10.496  -0.561  -0.185  0.00  0.00    -0.216 N 
ATOM     31  H   UNL     1      10.962  -0.655   0.807  0.00  0.00    +0.174 HD
BRANCH  30  36
ATOM     32  C   UNL     1      10.260  -5.050  -3.643  0.00  0.00    +0.044 C 
ATOM     33  C   UNL     1      10.323  -3.857  -2.724  0.00  0.00    -0.050 A 
ATOM     34  C   UNL     1      10.522  -2.592  -3.247  0.00  0.00    +0.005 A 
ATOM     35  C   UNL     1      10.575  -1.497  -2.409  0.00  0.00    +0.025 A 
ATOM     36  C   UNL     1      10.438  -1.667  -1.036  0.00  0.00    +0.051 A 
ATOM     37  C   UNL     1      10.239  -2.938  -0.514  0.00  0.00    -0.028 A 
ATOM     38  C   UNL     1      10.182  -4.029  -1.359  0.00  0.00    +0.008 A 
ATOM     39  C   UNL     1      10.084  -3.127   0.973  0.00  0.00    +0.046 C 
ENDBRANCH  30  36
ENDBRANCH  27  30
ENDBRANCH   1  27
TORSDOF 5
