REMARK  Name = ZINC11751801
REMARK  6 active torsions:
REMARK  status: ('A' for Active; 'I' for Inactive)
REMARK    1  A    between atoms: C_1  and  C_2
REMARK    2  A    between atoms: C_2  and  C_3
REMARK    3  A    between atoms: C_2  and  C_4
REMARK    4  A    between atoms: C_4  and  C_6
REMARK    5  A    between atoms: C_4  and  N_22
REMARK    6  A    between atoms: C_23  and  C_25
REMARK                            x       y       z     vdW  Elec       q    Type
REMARK                         _______ _______ _______ _____ _____    ______ ____
ROOT
ATOM      1  C   UNL     1       7.517  -0.103  -0.613  0.00  0.00    +0.239 C 
ATOM      2  O   UNL     1       7.272   0.956  -1.149  0.00  0.00    -0.273 OA
ATOM      3  N   UNL     1       8.752  -0.635  -0.703  0.00  0.00    -0.263 N 
ATOM      4  C   UNL     1       9.712  -0.027  -1.496  0.00  0.00    +0.165 A 
ATOM      5  N   UNL     1      10.955  -0.390  -1.708  0.00  0.00    -0.224 NA
ATOM      6  C   UNL     1      11.788   0.305  -2.515  0.00  0.00    +0.084 A 
ATOM      7  C   UNL     1      13.139   0.023  -2.823  0.00  0.00    +0.078 A 
ATOM      8  C   UNL     1      13.858   0.836  -3.670  0.00  0.00    +0.164 A 
ATOM      9  C   UNL     1      13.273   1.961  -4.250  0.00  0.00    +0.163 A 
ATOM     10  C   UNL     1      11.950   2.264  -3.966  0.00  0.00    +0.066 A 
ATOM     11  C   UNL     1      11.234   1.454  -3.121  0.00  0.00    +0.044 A 
ATOM     12  S   UNL     1       9.571   1.447  -2.496  0.00  0.00    -0.052 S 
ATOM     13  O   UNL     1      13.977   2.765  -5.093  0.00  0.00    -0.485 OA
ATOM     14  C   UNL     1      15.403   2.639  -5.059  0.00  0.00    +0.270 C 
ATOM     15  C   UNL     1      15.751   1.144  -5.080  0.00  0.00    +0.270 C 
ATOM     16  O   UNL     1      15.161   0.528  -3.931  0.00  0.00    -0.485 OA
ATOM     17  H   UNL     1       8.969  -1.443  -0.212  0.00  0.00    +0.157 HD
ENDROOT
BRANCH   1  18
ATOM     18  C   UNL     1       6.439  -0.826   0.154  0.00  0.00    +0.162 C 
BRANCH  18  19
ATOM     19  N   UNL     1       5.125  -0.355  -0.289  0.00  0.00    -0.300 N 
ATOM     20  C   UNL     1       4.044  -1.149  -0.154  0.00  0.00    +0.245 C 
ATOM     21  O   UNL     1       4.160  -2.255   0.336  0.00  0.00    -0.270 OA
ATOM     22  H   UNL     1       5.032   0.527  -0.681  0.00  0.00    +0.150 HD
BRANCH  20  23
ATOM     23  C   UNL     1       2.718  -0.675  -0.602  0.00  0.00    +0.037 A 
ATOM     24  C   UNL     1       1.597  -1.494  -0.464  0.00  0.00    +0.013 A 
ATOM     25  C   UNL     1       0.361  -1.045  -0.883  0.00  0.00    +0.001 A 
ATOM     26  C   UNL     1       0.233   0.215  -1.441  0.00  0.00    +0.000 A 
ATOM     27  C   UNL     1       1.340   1.032  -1.581  0.00  0.00    +0.001 A 
ATOM     28  C   UNL     1       2.581   0.595  -1.165  0.00  0.00    +0.013 A 
ENDBRANCH  20  23
ENDBRANCH  18  19
BRANCH  18  30
ATOM     29  C   UNL     1       6.348   0.939   1.921  0.00  0.00    +0.009 C 
ATOM     30  C   UNL     1       6.603  -0.545   1.650  0.00  0.00    +0.012 C 
ATOM     31  C   UNL     1       5.600  -1.388   2.439  0.00  0.00    +0.009 C 
ENDBRANCH  18  30
ENDBRANCH   1  18
TORSDOF 4
