REMARK  Name = ZINC56607791
REMARK  4 active torsions:
REMARK  status: ('A' for Active; 'I' for Inactive)
REMARK    1  A    between atoms: C_3  and  N_24
REMARK    2  A    between atoms: C_6  and  N_7
REMARK    3  A    between atoms: C_13  and  N_16
REMARK    4  A    between atoms: C_17  and  C_19
REMARK                            x       y       z     vdW  Elec       q    Type
REMARK                         _______ _______ _______ _____ _____    ______ ____
ROOT
ATOM      1  N   UNL     1      -1.202  -0.727   0.073  0.00  0.00    -0.269 N 
ATOM      2  C   UNL     1      -1.186  -2.064  -0.099  0.00  0.00    +0.306 C 
ATOM      3  O   UNL     1      -0.126  -2.655  -0.170  0.00  0.00    -0.252 OA
ATOM      4  N   UNL     1      -2.345  -2.745  -0.193  0.00  0.00    -0.285 N 
ATOM      5  C   UNL     1      -3.626  -2.033  -0.293  0.00  0.00    +0.111 C 
ATOM      6  C   UNL     1      -4.379  -2.545  -1.526  0.00  0.00    +0.041 C 
ATOM      7  C   UNL     1      -4.511  -4.067  -1.442  0.00  0.00    +0.076 C 
ATOM      8  C   UNL     1      -3.118  -4.702  -1.429  0.00  0.00    +0.041 C 
ATOM      9  C   UNL     1      -2.350  -4.215  -0.202  0.00  0.00    +0.111 C 
ATOM     10  H   UNL     1      -2.038  -0.272   0.258  0.00  0.00    +0.156 HD
ENDROOT
BRANCH   1  16
ATOM     11  C   UNL     1      -0.050   1.357  -0.331  0.00  0.00    +0.025 A 
ATOM     12  C   UNL     1       1.124   2.078  -0.418  0.00  0.00    +0.029 A 
ATOM     13  C   UNL     1       2.342   1.452  -0.191  0.00  0.00    +0.067 A 
ATOM     14  C   UNL     1       2.381   0.100   0.123  0.00  0.00    +0.029 A 
ATOM     15  C   UNL     1       1.207  -0.622   0.210  0.00  0.00    +0.025 A 
ATOM     16  C   UNL     1      -0.012   0.005  -0.016  0.00  0.00    +0.035 A 
BRANCH  13  17
ATOM     17  N   UNL     1       3.535   2.185  -0.279  0.00  0.00    -0.220 N 
ATOM     18  C   UNL     1       4.785   1.720  -0.093  0.00  0.00    +0.225 A 
ATOM     19  N   UNL     1       5.618   2.715  -0.265  0.00  0.00    -0.222 NA
ATOM     20  C   UNL     1       4.942   3.824  -0.560  0.00  0.00    +0.245 A 
ATOM     21  N   UNL     1       3.664   3.550  -0.586  0.00  0.00    -0.154 NA
ENDBRANCH  13  17
ENDBRANCH   1  16
BRANCH   7  22
ATOM     22  N   UNL     1      -5.259  -4.556  -2.603  0.00  0.00    -0.308 N 
ATOM     23  C   UNL     1      -5.931  -5.723  -2.529  0.00  0.00    +0.245 C 
ATOM     24  O   UNL     1      -5.916  -6.369  -1.498  0.00  0.00    -0.270 OA
ATOM     25  H   UNL     1      -5.271  -4.041  -3.425  0.00  0.00    +0.149 HD
BRANCH  23  26
ATOM     26  C   UNL     1      -6.683  -6.214  -3.695  0.00  0.00    +0.044 A 
ATOM     27  C   UNL     1      -7.418  -7.455  -3.651  0.00  0.00    +0.020 A 
ATOM     28  C   UNL     1      -8.065  -7.793  -4.784  0.00  0.00    +0.046 A 
ATOM     29  S   UNL     1      -7.679  -6.448  -5.885  0.00  0.00    -0.104 S 
ATOM     30  C   UNL     1      -6.722  -5.509  -4.876  0.00  0.00    +0.058 A 
ENDBRANCH  23  26
ENDBRANCH   7  22
TORSDOF 4
