REMARK  Name = ZINC33025069
REMARK  6 active torsions:
REMARK  status: ('A' for Active; 'I' for Inactive)
REMARK    1  A    between atoms: C_4  and  N_8
REMARK    2  A    between atoms: C_9  and  C_11
REMARK    3  A    between atoms: C_11  and  C_12
REMARK    4  A    between atoms: C_18  and  C_20
REMARK    5  A    between atoms: C_23  and  C_25
REMARK    6  A    between atoms: N_27  and  C_28
REMARK                            x       y       z     vdW  Elec       q    Type
REMARK                         _______ _______ _______ _____ _____    ______ ____
ROOT
ATOM      1  C   UNL     1       0.419 -10.264  -1.520  0.00  0.00    +0.001 C 
ATOM      2  C   UNL     1       1.898 -10.402  -1.888  0.00  0.00    +0.023 C 
ATOM      3  C   UNL     1       2.627  -9.097  -1.553  0.00  0.00    +0.108 C 
ATOM      4  N   UNL     1       1.940  -7.985  -2.224  0.00  0.00    -0.296 N 
ATOM      5  C   UNL     1       0.497  -7.812  -2.006  0.00  0.00    +0.108 C 
ATOM      6  C   UNL     1      -0.209  -9.135  -2.340  0.00  0.00    +0.023 C 
ATOM      7  C   UNL     1       2.620  -7.136  -3.019  0.00  0.00    +0.274 C 
ATOM      8  O   UNL     1       2.025  -6.282  -3.647  0.00  0.00    -0.268 OA
ENDROOT
BRANCH   7   9
ATOM      9  C   UNL     1       4.089  -7.244  -3.128  0.00  0.00    +0.187 A 
ATOM     10  N   UNL     1       4.912  -8.143  -2.595  0.00  0.00    -0.136 NA
ATOM     11  N   UNL     1       6.156  -8.072  -2.807  0.00  0.00    -0.136 NA
ATOM     12  C   UNL     1       6.654  -7.093  -3.556  0.00  0.00    +0.187 A 
ATOM     13  S   UNL     1       5.209  -6.230  -3.986  0.00  0.00    -0.036 S 
BRANCH  12  14
ATOM     14  C   UNL     1       8.056  -6.818  -3.928  0.00  0.00    +0.275 C 
ATOM     15  O   UNL     1       8.322  -5.866  -4.636  0.00  0.00    -0.268 OA
ATOM     16  N   UNL     1       9.042  -7.622  -3.482  0.00  0.00    -0.280 N 
ATOM     17  H   UNL     1       8.795  -8.531  -2.914  0.00  0.00    +0.155 HD
BRANCH  16  18
ATOM     18  C   UNL     1      10.378  -7.300  -3.742  0.00  0.00    +0.034 A 
ATOM     19  C   UNL     1      10.752  -5.975  -3.925  0.00  0.00    +0.025 A 
ATOM     20  C   UNL     1      12.072  -5.660  -4.181  0.00  0.00    +0.022 A 
ATOM     21  C   UNL     1      13.022  -6.663  -4.255  0.00  0.00    +0.041 A 
ATOM     22  C   UNL     1      12.652  -7.985  -4.073  0.00  0.00    +0.022 A 
ATOM     23  C   UNL     1      11.334  -8.305  -3.817  0.00  0.00    +0.025 A 
ATOM     24 CL   UNL     1      14.680  -6.264  -4.577  0.00  0.00    -0.084 Cl
ENDBRANCH  16  18
ENDBRANCH  12  14
ENDBRANCH   7   9
BRANCH   1  25
ATOM     25  C   UNL     1      -0.306 -11.577  -1.821  0.00  0.00    +0.099 C 
BRANCH  25  27
ATOM     26  N   UNL     1      -2.566 -12.530  -1.508  0.00  0.00    -0.281 N 
ATOM     27  C   UNL     1      -1.733 -11.484  -1.346  0.00  0.00    +0.218 C 
ATOM     28  O   UNL     1      -2.131 -10.467  -0.819  0.00  0.00    -0.275 OA
ATOM     29  H   UNL     1      -2.183 -13.483  -1.901  0.00  0.00    +0.155 HD
BRANCH  26  33
ATOM     30  C   UNL     1      -6.601 -12.156  -0.515  0.00  0.00    +0.006 A 
ATOM     31  C   UNL     1      -6.237 -12.724  -1.722  0.00  0.00    +0.040 A 
ATOM     32  C   UNL     1      -4.901 -12.850  -2.055  0.00  0.00    +0.147 A 
ATOM     33  C   UNL     1      -3.922 -12.405  -1.174  0.00  0.00    +0.105 A 
ATOM     34  C   UNL     1      -4.291 -11.839   0.041  0.00  0.00    +0.147 A 
ATOM     35  C   UNL     1      -5.630 -11.712   0.364  0.00  0.00    +0.040 A 
ATOM     36  F   UNL     1      -3.343 -11.410   0.902  0.00  0.00    -0.203 F 
ATOM     37  F   UNL     1      -4.547 -13.405  -3.235  0.00  0.00    -0.203 F 
ENDBRANCH  26  33
ENDBRANCH  25  27
ENDBRANCH   1  25
TORSDOF 6
