REMARK  Name = ZINC02458746
REMARK  6 active torsions:
REMARK  status: ('A' for Active; 'I' for Inactive)
REMARK    1  A    between atoms: C_1  and  C_2
REMARK    2  A    between atoms: C_3  and  C_28
REMARK    3  A    between atoms: C_4  and  C_21
REMARK    4  A    between atoms: C_9  and  S_11
REMARK    5  A    between atoms: S_11  and  C_12
REMARK    6  A    between atoms: C_12  and  C_13
REMARK                            x       y       z     vdW  Elec       q    Type
REMARK                         _______ _______ _______ _____ _____    ______ ____
ROOT
ATOM      1  C   UNL     1      -0.013   1.086   0.008  0.00  0.00    +0.062 C 
ATOM      2  C   UNL     1      -0.742   1.585  -1.213  0.00  0.00    +0.034 C 
ATOM      3  C   UNL     1      -0.877   3.067  -1.413  0.00  0.00    +0.148 C 
ATOM      4  C   UNL     1      -0.879   3.429  -2.902  0.00  0.00    +0.158 C 
ATOM      5  N   UNL     1      -1.708   2.449  -3.605  0.00  0.00    -0.220 N 
ATOM      6  C   UNL     1      -1.856   1.169  -3.168  0.00  0.00    +0.250 A 
ATOM      7  N   UNL     1      -2.656   0.553  -4.000  0.00  0.00    -0.184 NA
ATOM      8  C   UNL     1      -3.031   1.396  -4.970  0.00  0.00    +0.211 A 
ATOM      9  N   UNL     1      -2.468   2.570  -4.763  0.00  0.00    -0.141 NA
ATOM     10  N   UNL     1      -1.219   0.718  -2.047  0.00  0.00    -0.220 NA
ENDROOT
BRANCH   4  11
ATOM     11  C   UNL     1       0.528   3.385  -3.439  0.00  0.00    -0.021 A 
ATOM     12  C   UNL     1       1.250   2.206  -3.392  0.00  0.00    +0.006 A 
ATOM     13  C   UNL     1       2.541   2.165  -3.883  0.00  0.00    +0.001 A 
ATOM     14  C   UNL     1       3.111   3.303  -4.423  0.00  0.00    +0.015 A 
ATOM     15  C   UNL     1       2.390   4.482  -4.471  0.00  0.00    +0.018 A 
ATOM     16  C   UNL     1       1.096   4.521  -3.984  0.00  0.00    +0.021 A 
ATOM     17 BR   UNL     1       3.170   6.038  -5.209  0.00  0.00    -0.050 Br
ENDBRANCH   4  11
BRANCH   3  18
ATOM     18  C   UNL     1      -2.168   3.533  -0.790  0.00  0.00    +0.221 C 
ATOM     19  O   UNL     1      -3.014   4.067  -1.476  0.00  0.00    -0.275 OA
ATOM     20  N   UNL     1      -2.382   3.357   0.529  0.00  0.00    -0.329 N 
ATOM     21  H   UNL     1      -1.706   2.929   1.077  0.00  0.00    +0.145 HD
ATOM     22  H   UNL     1      -3.213   3.656   0.930  0.00  0.00    +0.145 HD
ENDBRANCH   3  18
BRANCH   8  23
ATOM     23  S   UNL     1      -4.104   1.000  -6.310  0.00  0.00    -0.080 S 
BRANCH  23  24
ATOM     24  C   UNL     1      -4.531  -0.741  -6.030  0.00  0.00    +0.115 C 
BRANCH  24  25
ATOM     25  C   UNL     1      -5.458  -1.212  -7.121  0.00  0.00    -0.002 A 
ATOM     26  C   UNL     1      -6.826  -1.087  -6.967  0.00  0.00    +0.007 A 
ATOM     27  C   UNL     1      -7.677  -1.519  -7.967  0.00  0.00    +0.000 A 
ATOM     28  C   UNL     1      -7.161  -2.077  -9.122  0.00  0.00    +0.003 A 
ATOM     29  C   UNL     1      -5.794  -2.204  -9.278  0.00  0.00    +0.038 A 
ATOM     30  C   UNL     1      -4.940  -1.766  -8.279  0.00  0.00    +0.127 A 
ATOM     31  F   UNL     1      -3.603  -1.885  -8.432  0.00  0.00    -0.205 F 
ENDBRANCH  24  25
ENDBRANCH  23  24
ENDBRANCH   8  23
TORSDOF 5
