REMARK  Name = ZINC13389883
REMARK  12 active torsions:
REMARK  status: ('A' for Active; 'I' for Inactive)
REMARK    1  A    between atoms: C_1  and  C_2
REMARK    2  A    between atoms: C_5  and  C_30
REMARK    3  A    between atoms: C_7  and  S_8
REMARK    4  A    between atoms: S_8  and  N_11
REMARK    5  A    between atoms: C_14  and  C_17
REMARK    6  A    between atoms: N_19  and  C_20
REMARK    7  A    between atoms: C_20  and  C_22
REMARK    8  A    between atoms: C_20  and  C_25
REMARK    9  A    between atoms: C_22  and  C_23
REMARK   10  A    between atoms: C_30  and  C_31
REMARK   11  A    between atoms: C_30  and  C_32
REMARK   12  A    between atoms: C_30  and  C_33
REMARK                            x       y       z     vdW  Elec       q    Type
REMARK                         _______ _______ _______ _____ _____    ______ ____
ROOT
ATOM      1  N   UNL     1       6.426   7.420  -2.768  0.00  0.00    -0.177 NA
ATOM      2  C   UNL     1       5.294   7.842  -3.604  0.00  0.00    +0.110 C 
ATOM      3  C   UNL     1       3.996   7.632  -2.818  0.00  0.00    +0.030 C 
ATOM      4  C   UNL     1       3.920   6.178  -2.345  0.00  0.00    +0.077 C 
ATOM      5  C   UNL     1       5.100   5.880  -1.417  0.00  0.00    +0.030 C 
ATOM      6  C   UNL     1       6.411   6.071  -2.186  0.00  0.00    +0.110 C 
ENDROOT
BRANCH   4   7
ATOM      7  C   UNL     1       2.628   5.959  -1.601  0.00  0.00    +0.217 C 
ATOM      8  O   UNL     1       1.845   6.875  -1.463  0.00  0.00    -0.275 OA
ATOM      9  N   UNL     1       2.343   4.745  -1.089  0.00  0.00    -0.307 N 
ATOM     10  H   UNL     1       2.934   3.995  -1.261  0.00  0.00    +0.149 HD
BRANCH   9  11
ATOM     11  C   UNL     1       1.141   4.559  -0.273  0.00  0.00    +0.121 C 
BRANCH  11  12
ATOM     12  C   UNL     1       0.761   3.100  -0.264  0.00  0.00    +0.010 A 
ATOM     13  C   UNL     1      -0.470   2.538  -0.331  0.00  0.00    +0.013 A 
ATOM     14  C   UNL     1      -0.580   1.161  -0.311  0.00  0.00    +0.008 A 
ATOM     15  C   UNL     1       0.546   0.412  -0.215  0.00  0.00    +0.045 A 
ATOM     16  S   UNL     1       1.817   1.664  -0.162  0.00  0.00    -0.100 S 
ENDBRANCH  11  12
BRANCH  11  17
ATOM     17  C   UNL     1       1.419   5.022   1.159  0.00  0.00    +0.152 C 
BRANCH  17  18
ATOM     18  C   UNL     1       0.141   4.984   1.956  0.00  0.00    +0.358 C 
ATOM     19  O   UNL     1      -0.874   4.567   1.451  0.00  0.00    -0.246 OA
ATOM     20  O   UNL     1       0.131   5.415   3.228  0.00  0.00    -0.246 OA
ENDBRANCH  17  18
ENDBRANCH  11  17
ENDBRANCH   9  11
ENDBRANCH   4   7
BRANCH   1  21
ATOM     21  S   UNL     1       7.696   8.446  -2.487  0.00  0.00    +0.061 S 
ATOM     22  O   UNL     1       8.846   7.630  -2.313  0.00  0.00    -0.153 OA
ATOM     23  O   UNL     1       7.624   9.462  -3.478  0.00  0.00    -0.153 OA
BRANCH  21  30
ATOM     24  C   UNL     1       5.497  10.466  -2.002  0.00  0.00    +0.046 C 
ATOM     25  C   UNL     1       6.366  10.144  -0.813  0.00  0.00    -0.024 A 
ATOM     26  C   UNL     1       6.128  10.756   0.403  0.00  0.00    +0.005 A 
ATOM     27  C   UNL     1       6.929  10.466   1.492  0.00  0.00    +0.004 A 
ATOM     28  C   UNL     1       7.964   9.557   1.365  0.00  0.00    -0.040 A 
ATOM     29  C   UNL     1       8.198   8.941   0.151  0.00  0.00    +0.033 A 
ATOM     30  C   UNL     1       7.397   9.232  -0.938  0.00  0.00    +0.109 A 
BRANCH  28  31
ATOM     31  C   UNL     1       8.838   9.240   2.552  0.00  0.00    -0.013 C 
ATOM     32  C   UNL     1      10.289   9.601   2.228  0.00  0.00    +0.015 C 
ATOM     33  C   UNL     1       8.369  10.052   3.761  0.00  0.00    +0.015 C 
ATOM     34  C   UNL     1       8.742   7.747   2.871  0.00  0.00    +0.015 C 
ENDBRANCH  28  31
ENDBRANCH  21  30
ENDBRANCH   1  21
TORSDOF 8
