REMARK  Name = ZINC13084773
REMARK  7 active torsions:
REMARK  status: ('A' for Active; 'I' for Inactive)
REMARK    1  A    between atoms: C_1  and  C_2
REMARK    2  A    between atoms: C_7  and  N_8
REMARK    3  A    between atoms: C_17  and  C_19
REMARK    4  A    between atoms: C_19  and  C_21
REMARK    5  A    between atoms: C_19  and  N_32
REMARK    6  A    between atoms: C_21  and  C_22
REMARK    7  A    between atoms: C_33  and  C_35
REMARK                            x       y       z     vdW  Elec       q    Type
REMARK                         _______ _______ _______ _____ _____    ______ ____
ROOT
ATOM      1  N   UNL     1       6.144   2.975   0.636  0.00  0.00    -0.269 N 
ATOM      2  C   UNL     1       4.984   3.607   0.369  0.00  0.00    +0.307 C 
ATOM      3  O   UNL     1       4.993   4.769   0.012  0.00  0.00    -0.252 OA
ATOM      4  N   UNL     1       3.814   2.950   0.497  0.00  0.00    -0.282 N 
ATOM      5  C   UNL     1       3.793   1.518   0.823  0.00  0.00    +0.128 C 
ATOM      6  C   UNL     1       2.977   0.784  -0.249  0.00  0.00    +0.127 C 
ATOM      7  N   UNL     1       1.700   1.488  -0.431  0.00  0.00    -0.297 N 
ATOM      8  C   UNL     1       1.722   2.920  -0.762  0.00  0.00    +0.127 C 
ATOM      9  C   UNL     1       2.537   3.655   0.316  0.00  0.00    +0.128 C 
ATOM     10  C   UNL     1       0.530   0.832  -0.302  0.00  0.00    +0.236 C 
ATOM     11  O   UNL     1       0.524  -0.351  -0.034  0.00  0.00    -0.274 OA
ATOM     12  H   UNL     1       6.144   2.027   0.840  0.00  0.00    +0.156 HD
ENDROOT
BRANCH   1  19
ATOM     13  C   UNL     1       8.571   1.507   0.412  0.00  0.00    +0.045 C 
ATOM     14  C   UNL     1       8.556   3.010   0.511  0.00  0.00    -0.029 A 
ATOM     15  C   UNL     1       9.743   3.716   0.495  0.00  0.00    +0.005 A 
ATOM     16  C   UNL     1       9.730   5.096   0.586  0.00  0.00    +0.000 A 
ATOM     17  C   UNL     1       8.529   5.774   0.693  0.00  0.00    +0.002 A 
ATOM     18  C   UNL     1       7.339   5.074   0.705  0.00  0.00    +0.023 A 
ATOM     19  C   UNL     1       7.349   3.688   0.620  0.00  0.00    +0.038 A 
ENDBRANCH   1  19
BRANCH  10  20
ATOM     20  C   UNL     1      -0.772   1.566  -0.498  0.00  0.00    +0.163 C 
BRANCH  20  21
ATOM     21  N   UNL     1      -1.837   0.603  -0.788  0.00  0.00    -0.304 N 
ATOM     22  C   UNL     1      -2.189  -0.311   0.138  0.00  0.00    +0.211 C 
ATOM     23  O   UNL     1      -1.682  -0.285   1.240  0.00  0.00    -0.276 OA
ATOM     24  C   UNL     1      -3.213  -1.366  -0.196  0.00  0.00    +0.109 C 
ATOM     25  H   UNL     1      -2.289   0.623  -1.646  0.00  0.00    +0.149 HD
ENDBRANCH  20  21
BRANCH  20  26
ATOM     26  C   UNL     1      -1.117   2.340   0.776  0.00  0.00    +0.067 C 
BRANCH  26  27
ATOM     27  C   UNL     1      -2.398   3.106   0.567  0.00  0.00    -0.037 A 
ATOM     28  C   UNL     1      -3.032   3.063  -0.637  0.00  0.00    +0.004 A 
ATOM     29  C   UNL     1      -4.220   3.759  -0.847  0.00  0.00    +0.001 A 
ATOM     30  C   UNL     1      -4.776   4.513   0.142  0.00  0.00    +0.008 A 
ATOM     31  C   UNL     1      -4.147   4.586   1.396  0.00  0.00    -0.018 A 
ATOM     32  C   UNL     1      -2.941   3.873   1.611  0.00  0.00    -0.015 A 
ATOM     33  C   UNL     1      -2.312   3.947   2.866  0.00  0.00    +0.009 A 
ATOM     34  C   UNL     1      -2.867   4.700   3.854  0.00  0.00    +0.001 A 
ATOM     35  C   UNL     1      -4.052   5.402   3.642  0.00  0.00    +0.001 A 
ATOM     36  C   UNL     1      -4.689   5.354   2.440  0.00  0.00    +0.008 A 
ENDBRANCH  26  27
ENDBRANCH  20  26
ENDBRANCH  10  20
TORSDOF 5
