REMARK  Name = ZINC49185047
REMARK  4 active torsions:
REMARK  status: ('A' for Active; 'I' for Inactive)
REMARK    1  A    between atoms: C_1  and  C_2
REMARK    2  A    between atoms: C_5  and  C_7
REMARK    3  A    between atoms: C_7  and  C_9
REMARK    4  A    between atoms: C_7  and  N_10
REMARK                            x       y       z     vdW  Elec       q    Type
REMARK                         _______ _______ _______ _____ _____    ______ ____
ROOT
ATOM      1  N   UNL     1       1.758  -4.305  -1.283  0.00  0.00    -0.304 N 
ATOM      2  C   UNL     1       2.922  -3.681  -1.699  0.00  0.00    +0.071 A 
ATOM      3  C   UNL     1       3.746  -2.713  -1.145  0.00  0.00    +0.029 A 
ATOM      4  C   UNL     1       4.865  -2.288  -1.830  0.00  0.00    +0.017 A 
ATOM      5  C   UNL     1       5.174  -2.824  -3.072  0.00  0.00    +0.020 A 
ATOM      6  C   UNL     1       4.367  -3.787  -3.638  0.00  0.00    +0.045 A 
ATOM      7  C   UNL     1       3.230  -4.227  -2.956  0.00  0.00    +0.092 A 
ATOM      8  N   UNL     1       2.263  -5.138  -3.244  0.00  0.00    -0.215 NA
ATOM      9  C   UNL     1       1.400  -5.189  -2.260  0.00  0.00    +0.195 A 
ATOM     10  N   UNL     1       0.293  -6.010  -2.218  0.00  0.00    -0.329 N 
ATOM     11 BR   UNL     1       6.713  -2.229  -3.996  0.00  0.00    -0.050 Br
ATOM     12  H   UNL     1      -0.340  -5.934  -1.488  0.00  0.00    +0.145 HD
ATOM     13  H   UNL     1       0.148  -6.664  -2.920  0.00  0.00    +0.145 HD
ENDROOT
BRANCH   1  14
ATOM     14  C   UNL     1       1.046  -4.065  -0.025  0.00  0.00    +0.124 C 
ATOM     15  C   UNL     1       2.015  -4.224   1.148  0.00  0.00    +0.036 C 
BRANCH  14  20
ATOM     16  C   UNL     1      -0.125   1.478  -0.009  0.00  0.00    +0.051 C 
ATOM     17  C   UNL     1      -0.075  -0.029  -0.017  0.00  0.00    -0.013 A 
ATOM     18  C   UNL     1      -1.099  -0.916  -0.039  0.00  0.00    +0.011 A 
ATOM     19  C   UNL     1      -0.813  -2.269  -0.043  0.00  0.00    +0.013 A 
ATOM     20  C   UNL     1       0.482  -2.667  -0.025  0.00  0.00    +0.013 A 
ATOM     21  S   UNL     1       1.348  -1.106  -0.008  0.00  0.00    -0.096 S 
ENDBRANCH  14  20
ENDBRANCH   1  14
TORSDOF 2
