REMARK  Name = ZINC36386968
REMARK  7 active torsions:
REMARK  status: ('A' for Active; 'I' for Inactive)
REMARK    1  A    between atoms: C_1  and  C_2
REMARK    2  A    between atoms: C_5  and  C_8
REMARK    3  A    between atoms: C_10  and  C_13
REMARK    4  A    between atoms: C_13  and  C_14
REMARK    5  A    between atoms: N_16  and  C_17
REMARK    6  A    between atoms: C_21  and  S_23
REMARK    7  A    between atoms: S_23  and  N_26
REMARK                            x       y       z     vdW  Elec       q    Type
REMARK                         _______ _______ _______ _____ _____    ______ ____
ROOT
ATOM      1  C   UNL     1       1.262  -6.994   2.885  0.00  0.00    +0.223 C 
ATOM      2  O   UNL     1       2.010  -6.084   2.593  0.00  0.00    -0.275 OA
ATOM      3  N   UNL     1       1.473  -7.704   4.011  0.00  0.00    -0.285 N 
ATOM      4  H   UNL     1       0.839  -8.386   4.280  0.00  0.00    +0.155 HD
ENDROOT
BRANCH   3   5
ATOM      5  C   UNL     1       2.607  -7.456   4.793  0.00  0.00    +0.035 A 
ATOM      6  C   UNL     1       3.244  -8.503   5.446  0.00  0.00    +0.023 A 
ATOM      7  C   UNL     1       4.363  -8.255   6.216  0.00  0.00    +0.004 A 
ATOM      8  C   UNL     1       4.849  -6.966   6.338  0.00  0.00    +0.029 A 
ATOM      9  C   UNL     1       4.217  -5.922   5.690  0.00  0.00    +0.114 A 
ATOM     10  C   UNL     1       3.101  -6.164   4.912  0.00  0.00    +0.052 A 
BRANCH   9  11
ATOM     11  S   UNL     1       4.840  -4.281   5.849  0.00  0.00    +0.100 S 
ATOM     12  O   UNL     1       3.751  -3.406   5.587  0.00  0.00    -0.146 OA
ATOM     13  O   UNL     1       5.573  -4.241   7.065  0.00  0.00    -0.146 OA
BRANCH  11  14
ATOM     14  N   UNL     1       5.935  -4.053   4.628  0.00  0.00    -0.118 NA
ATOM     15  C   UNL     1       6.548  -2.920   4.512  0.00  0.00    +0.117 C 
ATOM     16  C   UNL     1       7.562  -2.584   3.441  0.00  0.00    +0.074 C 
ATOM     17  C   UNL     1       7.662  -1.042   3.479  0.00  0.00    +0.026 C 
ATOM     18  C   UNL     1       7.233  -0.726   4.929  0.00  0.00    +0.103 C 
ATOM     19  N   UNL     1       6.372  -1.843   5.336  0.00  0.00    -0.331 N 
ATOM     20  H   UNL     1       5.762  -1.820   6.090  0.00  0.00    +0.147 HD
ENDBRANCH  11  14
ENDBRANCH   9  11
ENDBRANCH   3   5
BRANCH   1  21
ATOM     21  C   UNL     1       0.098  -7.330   1.989  0.00  0.00    +0.152 C 
BRANCH  21  24
ATOM     22  C   UNL     1       0.070  -4.252  -0.025  0.00  0.00    +0.109 A 
ATOM     23  N   UNL     1       0.079  -5.096   0.997  0.00  0.00    -0.243 NA
ATOM     24  C   UNL     1       0.087  -6.395   0.807  0.00  0.00    +0.058 A 
ATOM     25  C   UNL     1       0.087  -6.895  -0.457  0.00  0.00    +0.071 A 
ATOM     26  S   UNL     1       0.066  -5.382  -1.410  0.00  0.00    -0.075 S 
BRANCH  22  31
ATOM     27  C   UNL     1       0.027   1.503  -0.006  0.00  0.00    +0.044 C 
ATOM     28  C   UNL     1       0.038  -0.004  -0.011  0.00  0.00    -0.050 A 
ATOM     29  C   UNL     1       0.034  -0.689  -1.213  0.00  0.00    +0.004 A 
ATOM     30  C   UNL     1       0.044  -2.068  -1.224  0.00  0.00    +0.011 A 
ATOM     31  C   UNL     1       0.059  -2.773  -0.020  0.00  0.00    +0.007 A 
ATOM     32  C   UNL     1       0.063  -2.076   1.189  0.00  0.00    +0.011 A 
ATOM     33  C   UNL     1       0.058  -0.697   1.187  0.00  0.00    +0.004 A 
ENDBRANCH  22  31
ENDBRANCH  21  24
ENDBRANCH   1  21
TORSDOF 6
