REMARK  Name = ZINC40723052
REMARK  4 active torsions:
REMARK  status: ('A' for Active; 'I' for Inactive)
REMARK    1  A    between atoms: C_1  and  C_2
REMARK    2  A    between atoms: C_13  and  N_26
REMARK    3  A    between atoms: C_14  and  S_18
REMARK    4  A    between atoms: S_18  and  C_19
REMARK                            x       y       z     vdW  Elec       q    Type
REMARK                         _______ _______ _______ _____ _____    ______ ____
ROOT
ATOM      1  C   UNL     1      -0.000   1.503   0.008  0.00  0.00    +0.044 C 
ATOM      2  C   UNL     1       0.018  -0.004   0.000  0.00  0.00    -0.049 A 
ATOM      3  C   UNL     1       0.025  -0.698  -1.201  0.00  0.00    +0.005 A 
ATOM      4  C   UNL     1       0.041  -2.068  -1.236  0.00  0.00    +0.029 A 
ATOM      5  C   UNL     1       0.052  -2.821  -0.039  0.00  0.00    +0.080 A 
ATOM      6  C   UNL     1       0.046  -2.081   1.164  0.00  0.00    +0.041 A 
ATOM      7  C   UNL     1       0.034  -0.709   1.190  0.00  0.00    +0.020 A 
ATOM      8  S   UNL     1       0.064  -3.361   2.397  0.00  0.00    -0.052 S 
ATOM      9  C   UNL     1       0.078  -4.752   1.275  0.00  0.00    +0.165 A 
ATOM     10  N   UNL     1       0.069  -4.165   0.100  0.00  0.00    -0.225 NA
ATOM     11  N   UNL     1       0.096  -6.102   1.569  0.00  0.00    -0.277 N 
ATOM     12  C   UNL     1       0.105  -7.039   0.540  0.00  0.00    +0.150 A 
ATOM     13  C   UNL     1       0.117  -8.405   0.825  0.00  0.00    +0.098 A 
ATOM     14  C   UNL     1       0.126  -9.302  -0.246  0.00  0.00    +0.127 A 
ATOM     15  N   UNL     1       0.122  -8.822  -1.488  0.00  0.00    -0.227 NA
ATOM     16  C   UNL     1       0.110  -7.524  -1.713  0.00  0.00    +0.224 A 
ATOM     17  N   UNL     1       0.097  -6.645  -0.732  0.00  0.00    -0.219 NA
ATOM     18  H   UNL     1       0.102  -6.397   2.493  0.00  0.00    +0.156 HD
ENDROOT
BRANCH  13  19
ATOM     19  N   UNL     1       0.121  -8.865   2.151  0.00  0.00    -0.353 N 
ATOM     20  H   UNL     1       0.115  -8.230   2.884  0.00  0.00    +0.142 HD
ATOM     21  H   UNL     1       0.129  -9.818   2.333  0.00  0.00    +0.142 HD
ENDBRANCH  13  19
BRANCH  14  22
ATOM     22  S   UNL     1       0.141 -11.040   0.043  0.00  0.00    -0.068 S 
BRANCH  22  23
ATOM     23  C   UNL     1      -0.005 -11.741  -1.568  0.00  0.00    +0.014 A 
ATOM     24  C   UNL     1       1.133 -12.123  -2.266  0.00  0.00    +0.016 A 
ATOM     25  C   UNL     1       1.016 -12.673  -3.527  0.00  0.00    +0.021 A 
ATOM     26  C   UNL     1      -0.235 -12.842  -4.096  0.00  0.00    +0.041 A 
ATOM     27  C   UNL     1      -1.370 -12.462  -3.403  0.00  0.00    +0.021 A 
ATOM     28  C   UNL     1      -1.259 -11.917  -2.139  0.00  0.00    +0.016 A 
ATOM     29 CL   UNL     1      -0.379 -13.533  -5.682  0.00  0.00    -0.084 Cl
ENDBRANCH  22  23
ENDBRANCH  14  22
TORSDOF 3
