REMARK  Name = ZINC08883081
REMARK  4 active torsions:
REMARK  status: ('A' for Active; 'I' for Inactive)
REMARK    1  A    between atoms: N_15  and  S_17
REMARK    2  A    between atoms: S_17  and  C_20
REMARK    3  A    between atoms: C_23  and  N_26
REMARK    4  A    between atoms: N_29  and  C_30
REMARK                            x       y       z     vdW  Elec       q    Type
REMARK                         _______ _______ _______ _____ _____    ______ ____
ROOT
ATOM      1  C   UNL     1      -1.250   6.098  -0.289  0.00  0.00    +0.106 A 
ATOM      2  C   UNL     1      -1.368   6.758   0.921  0.00  0.00    +0.030 A 
ATOM      3  C   UNL     1      -0.940   8.066   1.040  0.00  0.00    +0.025 A 
ATOM      4  C   UNL     1      -0.401   8.722  -0.059  0.00  0.00    +0.035 A 
ATOM      5  C   UNL     1      -0.289   8.059  -1.273  0.00  0.00    +0.025 A 
ATOM      6  C   UNL     1      -0.714   6.749  -1.385  0.00  0.00    +0.030 A 
ENDROOT
BRANCH   4   7
ATOM      7  N   UNL     1       0.028  10.049   0.058  0.00  0.00    -0.269 N 
ATOM      8  C   UNL     1      -0.083  10.887  -0.991  0.00  0.00    +0.308 C 
ATOM      9  O   UNL     1      -0.639  10.519  -2.008  0.00  0.00    -0.252 OA
ATOM     10  N   UNL     1       0.424  12.133  -0.914  0.00  0.00    -0.269 N 
ATOM     11  H   UNL     1       0.405  10.365   0.894  0.00  0.00    +0.156 HD
ATOM     12  H   UNL     1       0.934  12.402  -0.134  0.00  0.00    +0.156 HD
BRANCH  10  13
ATOM     13  C   UNL     1       0.215  13.040  -1.960  0.00  0.00    +0.035 A 
ATOM     14  C   UNL     1       1.185  13.987  -2.264  0.00  0.00    +0.025 A 
ATOM     15  C   UNL     1       0.979  14.876  -3.301  0.00  0.00    +0.022 A 
ATOM     16  C   UNL     1      -0.198  14.832  -4.028  0.00  0.00    +0.041 A 
ATOM     17  C   UNL     1      -1.168  13.893  -3.723  0.00  0.00    +0.022 A 
ATOM     18  C   UNL     1      -0.964  12.998  -2.692  0.00  0.00    +0.025 A 
ATOM     19 CL   UNL     1      -0.457  15.957  -5.325  0.00  0.00    -0.084 Cl
ENDBRANCH  10  13
ENDBRANCH   4   7
BRANCH   1  20
ATOM     20  S   UNL     1      -1.792   4.428  -0.436  0.00  0.00    +0.061 S 
ATOM     21  O   UNL     1      -2.082   4.215  -1.811  0.00  0.00    -0.153 OA
ATOM     22  O   UNL     1      -2.756   4.222   0.587  0.00  0.00    -0.153 OA
BRANCH  20  35
ATOM     23  C   UNL     1      -2.604   0.296  -2.839  0.00  0.00    +0.007 A 
ATOM     24  C   UNL     1      -1.300   0.719  -2.558  0.00  0.00    +0.022 A 
ATOM     25  C   UNL     1      -0.911   0.959  -1.278  0.00  0.00    +0.026 A 
ATOM     26  N   UNL     1      -1.761   0.732  -0.250  0.00  0.00    -0.312 N 
ATOM     27  C   UNL     1      -3.055   0.412  -0.500  0.00  0.00    +0.251 A 
ATOM     28  O   UNL     1      -3.851   0.349   0.423  0.00  0.00    -0.268 OA
ATOM     29  C   UNL     1      -3.486   0.153  -1.808  0.00  0.00    +0.070 A 
ATOM     30  C   UNL     1      -1.344   0.757   1.153  0.00  0.00    +0.130 C 
ATOM     31  C   UNL     1      -0.047   1.518   1.360  0.00  0.00    +0.025 C 
ATOM     32  C   UNL     1       0.987   1.072   0.326  0.00  0.00    +0.017 C 
ATOM     33  C   UNL     1       0.490   1.481  -1.063  0.00  0.00    +0.052 C 
ATOM     34  C   UNL     1       0.431   3.017  -1.122  0.00  0.00    +0.119 C 
ATOM     35  N   UNL     1      -0.499   3.460  -0.070  0.00  0.00    -0.176 NA
ATOM     36  C   UNL     1      -0.255   3.026   1.310  0.00  0.00    +0.114 C 
ENDBRANCH  20  35
ENDBRANCH   1  20
TORSDOF 4
