REMARK  Name = ZINC30826958
REMARK  6 active torsions:
REMARK  status: ('A' for Active; 'I' for Inactive)
REMARK    1  A    between atoms: C_3  and  N_21
REMARK    2  A    between atoms: C_6  and  N_7
REMARK    3  A    between atoms: N_7  and  C_8
REMARK    4  A    between atoms: C_8  and  N_10
REMARK    5  A    between atoms: C_11  and  C_13
REMARK    6  A    between atoms: C_27  and  C_29
REMARK                            x       y       z     vdW  Elec       q    Type
REMARK                         _______ _______ _______ _____ _____    ______ ____
ROOT
ATOM      1  C   UNL     1      -1.957   5.482  -3.707  0.00  0.00    +0.025 A 
ATOM      2  C   UNL     1      -1.437   4.972  -2.534  0.00  0.00    +0.025 A 
ATOM      3  C   UNL     1      -1.462   3.603  -2.300  0.00  0.00    +0.030 A 
ATOM      4  C   UNL     1      -2.005   2.747  -3.249  0.00  0.00    +0.025 A 
ATOM      5  C   UNL     1      -2.529   3.257  -4.420  0.00  0.00    +0.025 A 
ATOM      6  C   UNL     1      -2.504   4.626  -4.654  0.00  0.00    +0.033 A 
ENDROOT
BRANCH   3   7
ATOM      7  N   UNL     1      -0.936   3.087  -1.111  0.00  0.00    -0.327 N 
ATOM      8  C   UNL     1      -1.064   1.624  -1.071  0.00  0.00    +0.124 C 
ATOM      9  C   UNL     1      -0.318   1.083   0.154  0.00  0.00    +0.127 C 
ATOM     10  N   UNL     1      -0.808   1.784   1.351  0.00  0.00    -0.291 N 
ATOM     11  C   UNL     1      -0.843   3.255   1.330  0.00  0.00    +0.127 C 
ATOM     12  C   UNL     1      -1.568   3.710   0.059  0.00  0.00    +0.124 C 
ATOM     13  C   UNL     1      -1.218   1.097   2.436  0.00  0.00    +0.320 C 
ATOM     14  O   UNL     1      -1.186  -0.116   2.433  0.00  0.00    -0.266 OA
BRANCH  13  15
ATOM     15  C   UNL     1      -1.716   1.835   3.651  0.00  0.00    +0.470 C 
ATOM     16  F   UNL     1      -2.082   0.913   4.639  0.00  0.00    -0.162 F 
ATOM     17  F   UNL     1      -0.702   2.665   4.141  0.00  0.00    -0.162 F 
ATOM     18  F   UNL     1      -2.826   2.611   3.303  0.00  0.00    -0.162 F 
ENDBRANCH  13  15
ENDBRANCH   3   7
BRANCH   6  19
ATOM     19  N   UNL     1      -3.032   5.144  -5.844  0.00  0.00    -0.297 N 
ATOM     20  H   UNL     1      -3.978   4.748  -6.244  0.00  0.00    +0.154 HD
BRANCH  19  21
ATOM     21  C   UNL     1      -2.381   6.125  -6.499  0.00  0.00    +0.141 C 
ATOM     22  S   UNL     1      -0.842   6.643  -5.956  0.00  0.00    -0.018 S 
BRANCH  21  23
ATOM     23  N   UNL     1      -2.942   6.700  -7.581  0.00  0.00    -0.264 N 
ATOM     24  C   UNL     1      -2.292   7.682  -8.236  0.00  0.00    +0.250 C 
ATOM     25  O   UNL     1      -1.199   8.049  -7.851  0.00  0.00    -0.270 OA
ATOM     26  H   UNL     1      -3.931   6.368  -7.930  0.00  0.00    +0.157 HD
BRANCH  24  27
ATOM     27  C   UNL     1      -2.907   8.312  -9.422  0.00  0.00    +0.039 A 
ATOM     28  C   UNL     1      -4.160   7.888  -9.871  0.00  0.00    +0.014 A 
ATOM     29  C   UNL     1      -4.732   8.484 -10.975  0.00  0.00    +0.022 A 
ATOM     30  C   UNL     1      -4.061   9.493 -11.646  0.00  0.00    +0.059 A 
ATOM     31  C   UNL     1      -2.815   9.914 -11.210  0.00  0.00    +0.060 A 
ATOM     32  C   UNL     1      -2.235   9.330 -10.103  0.00  0.00    +0.034 A 
ATOM     33 CL   UNL     1      -1.982  11.180 -12.058  0.00  0.00    -0.082 Cl
ATOM     34 CL   UNL     1      -4.785  10.233 -13.040  0.00  0.00    -0.082 Cl
ENDBRANCH  24  27
ENDBRANCH  21  23
ENDBRANCH  19  21
ENDBRANCH   6  19
TORSDOF 6
