REMARK  Name = ZINC66175197
REMARK  8 active torsions:
REMARK  status: ('A' for Active; 'I' for Inactive)
REMARK    1  A    between atoms: C_1  and  C_2
REMARK    2  A    between atoms: C_2  and  C_3
REMARK    3  A    between atoms: C_3  and  C_4
REMARK    4  A    between atoms: C_4  and  C_6
REMARK    5  A    between atoms: C_4  and  N_17
REMARK    6  A    between atoms: N_20  and  C_21
REMARK    7  A    between atoms: N_24  and  C_27
REMARK    8  A    between atoms: C_27  and  C_28
REMARK                            x       y       z     vdW  Elec       q    Type
REMARK                         _______ _______ _______ _____ _____    ______ ____
ROOT
ATOM      1  C   UNL     1       0.739  -2.031  -1.264  0.00  0.00    +0.161 C 
ENDROOT
BRANCH   1   2
ATOM      2  C   UNL     1       1.444  -2.513  -2.505  0.00  0.00    +0.236 C 
ATOM      3  O   UNL     1       0.803  -2.802  -3.493  0.00  0.00    -0.274 OA
ATOM      4  N   UNL     1       2.788  -2.624  -2.517  0.00  0.00    -0.295 N 
ATOM      5  C   UNL     1       3.495  -2.985  -3.754  0.00  0.00    +0.113 C 
ATOM      6  C   UNL     1       4.372  -1.796  -4.173  0.00  0.00    +0.061 C 
ATOM      7  C   UNL     1       5.050  -1.249  -2.959  0.00  0.00    -0.004 A 
ATOM      8  C   UNL     1       4.734  -1.469  -1.654  0.00  0.00    -0.020 A 
ATOM      9  C   UNL     1       5.525  -0.829  -0.702  0.00  0.00    +0.013 A 
ATOM     10  C   UNL     1       6.551  -0.040  -1.095  0.00  0.00    +0.046 A 
ATOM     11  S   UNL     1       6.450  -0.163  -2.874  0.00  0.00    -0.101 S 
ATOM     12  C   UNL     1       3.566  -2.379  -1.295  0.00  0.00    +0.143 C 
ENDBRANCH   1   2
BRANCH   1  13
ATOM     13  N   UNL     1      -0.640  -2.526  -1.262  0.00  0.00    -0.288 N 
ATOM     14  C   UNL     1      -1.302  -2.674  -0.097  0.00  0.00    +0.300 C 
ATOM     15  O   UNL     1      -0.754  -2.395   0.952  0.00  0.00    -0.253 OA
ATOM     16  N   UNL     1      -2.570  -3.130  -0.096  0.00  0.00    -0.297 N 
ATOM     17  H   UNL     1      -1.077  -2.748  -2.099  0.00  0.00    +0.151 HD
ATOM     18  H   UNL     1      -3.006  -3.352  -0.933  0.00  0.00    +0.151 HD
BRANCH  16  19
ATOM     19  C   UNL     1      -3.289  -3.290   1.171  0.00  0.00    +0.071 C 
ATOM     20  C   UNL     1      -2.962  -4.658   1.776  0.00  0.00    +0.004 C 
ATOM     21  C   UNL     1      -3.777  -4.851   3.057  0.00  0.00    -0.077 C 
ATOM     22  N   UNL     1      -5.209  -4.782   2.744  0.00  0.00    +0.380 N 
ATOM     23  C   UNL     1      -5.544  -3.449   2.231  0.00  0.00    -0.077 C 
ATOM     24  C   UNL     1      -4.797  -3.202   0.918  0.00  0.00    +0.004 C 
ATOM     25  H   UNL     1      -5.434  -5.476   2.047  0.00  0.00    -0.082 HD
BRANCH  22  26
ATOM     26  C   UNL     1      -5.987  -5.045   3.962  0.00  0.00    -0.082 C 
ATOM     27  C   UNL     1      -7.476  -5.098   3.615  0.00  0.00    -0.017 C 
ENDBRANCH  22  26
ENDBRANCH  16  19
ENDBRANCH   1  13
BRANCH   1  28
ATOM     28  C   UNL     1       0.731  -0.501  -1.244  0.00  0.00    +0.031 C 
BRANCH  28  30
ATOM     29  C   UNL     1       0.138   1.519   0.102  0.00  0.00    +0.004 C 
ATOM     30  C   UNL     1       0.146  -0.011   0.082  0.00  0.00    -0.001 C 
ENDBRANCH  28  30
ENDBRANCH   1  28
TORSDOF 6
