REMARK  Name = ZINC39978786
REMARK  6 active torsions:
REMARK  status: ('A' for Active; 'I' for Inactive)
REMARK    1  A    between atoms: C_4  and  S_7
REMARK    2  A    between atoms: S_7  and  N_10
REMARK    3  A    between atoms: N_10  and  C_11
REMARK    4  A    between atoms: C_13  and  C_16
REMARK    5  A    between atoms: C_16  and  C_17
REMARK    6  A    between atoms: N_19  and  C_20
REMARK                            x       y       z     vdW  Elec       q    Type
REMARK                         _______ _______ _______ _____ _____    ______ ____
ROOT
ATOM      1  C   UNL     1       5.101  -1.849   2.140  0.00  0.00    +0.202 A 
ATOM      2  N   UNL     1       5.741  -2.123   3.257  0.00  0.00    -0.227 NA
ATOM      3  C   UNL     1       6.933  -2.693   3.238  0.00  0.00    +0.059 A 
ATOM      4  C   UNL     1       7.460  -2.979   2.023  0.00  0.00    +0.072 A 
ATOM      5  S   UNL     1       6.158  -2.395   0.950  0.00  0.00    -0.057 S 
ENDROOT
BRANCH   1   6
ATOM      6  N   UNL     1       3.857  -1.259   1.983  0.00  0.00    -0.070 NA
BRANCH   6   7
ATOM      7  S   UNL     1       3.242  -1.016   0.465  0.00  0.00    +0.093 S 
ATOM      8  O   UNL     1       3.007  -2.304  -0.089  0.00  0.00    -0.148 OA
ATOM      9  O   UNL     1       4.081  -0.058  -0.165  0.00  0.00    -0.148 OA
BRANCH   7  13
ATOM     10  C   UNL     1      -0.811   0.939   0.958  0.00  0.00    +0.000 A 
ATOM     11  C   UNL     1       0.324   1.720   0.847  0.00  0.00    +0.002 A 
ATOM     12  C   UNL     1       1.561   1.123   0.697  0.00  0.00    +0.029 A 
ATOM     13  C   UNL     1       1.664  -0.255   0.658  0.00  0.00    +0.110 A 
ATOM     14  C   UNL     1       0.529  -1.036   0.769  0.00  0.00    +0.029 A 
ATOM     15  C   UNL     1      -0.709  -0.440   0.918  0.00  0.00    +0.002 A 
ENDBRANCH   7  13
ENDBRANCH   6   7
ENDBRANCH   1   6
BRANCH   3  16
ATOM     16  C   UNL     1       7.674  -3.010   4.511  0.00  0.00    +0.152 C 
BRANCH  16  17
ATOM     17  C   UNL     1       7.806  -1.760   5.341  0.00  0.00    +0.223 C 
ATOM     18  O   UNL     1       7.343  -0.713   4.939  0.00  0.00    -0.275 OA
ATOM     19  N   UNL     1       8.437  -1.804   6.531  0.00  0.00    -0.285 N 
ATOM     20  H   UNL     1       8.742  -2.653   6.887  0.00  0.00    +0.155 HD
BRANCH  19  21
ATOM     21  C   UNL     1       8.650  -0.635   7.247  0.00  0.00    +0.034 C 
ATOM     22  C   UNL     1       8.175  -0.516   8.535  0.00  0.00    +0.029 C 
ATOM     23  C   UNL     1       8.398   0.726   9.139  0.00  0.00    -0.016 C 
ATOM     24  C   UNL     1       8.595   1.099  10.419  0.00  0.00    +0.025 C 
ATOM     25  C   UNL     1       9.055   2.430  10.452  0.00  0.00    +0.106 C 
ATOM     26  N   UNL     1       9.074   2.974   9.266  0.00  0.00    -0.279 NA
ATOM     27  C   UNL     1       8.512   2.009   8.332  0.00  0.00    +0.158 C 
ATOM     28  C   UNL     1       9.360   1.718   7.131  0.00  0.00    +0.006 C 
ATOM     29  C   UNL     1       9.388   0.476   6.637  0.00  0.00    +0.021 C 
ENDBRANCH  19  21
ENDBRANCH  16  17
ENDBRANCH   3  16
TORSDOF 6
