REMARK  Name = ZINC50633927
REMARK  6 active torsions:
REMARK  status: ('A' for Active; 'I' for Inactive)
REMARK    1  A    between atoms: C_1  and  C_2
REMARK    2  A    between atoms: C_2  and  C_3
REMARK    3  A    between atoms: C_2  and  C_4
REMARK    4  A    between atoms: C_7  and  N_10
REMARK    5  A    between atoms: N_10  and  S_11
REMARK    6  A    between atoms: S_11  and  C_14
REMARK                            x       y       z     vdW  Elec       q    Type
REMARK                         _______ _______ _______ _____ _____    ______ ____
ROOT
ATOM      1  S   UNL     1       1.966  -2.857   5.685  0.00  0.00    +0.094 S 
ATOM      2  O   UNL     1       0.945  -2.067   6.279  0.00  0.00    -0.148 OA
ATOM      3  O   UNL     1       1.689  -4.078   5.012  0.00  0.00    -0.148 OA
ENDROOT
BRANCH   1   4
ATOM      4  C   UNL     1       3.118  -3.236   6.963  0.00  0.00    +0.146 A 
ATOM      5  C   UNL     1       3.941  -4.348   6.867  0.00  0.00    +0.144 A 
ATOM      6  N   UNL     1       4.795  -4.604   7.844  0.00  0.00    -0.221 NA
ATOM      7  C   UNL     1       4.869  -3.812   8.904  0.00  0.00    +0.213 A 
ATOM      8  N   UNL     1       4.096  -2.743   9.026  0.00  0.00    -0.221 NA
ATOM      9  C   UNL     1       3.225  -2.427   8.082  0.00  0.00    +0.144 A 
ATOM     10  N   UNL     1       5.774  -4.110   9.908  0.00  0.00    -0.327 N 
ATOM     11  H   UNL     1       6.345  -4.891   9.830  0.00  0.00    +0.145 HD
ATOM     12  H   UNL     1       5.838  -3.539  10.689  0.00  0.00    +0.145 HD
ENDBRANCH   1   4
BRANCH   1  13
ATOM     13  N   UNL     1       2.745  -1.883   4.596  0.00  0.00    -0.098 NA
BRANCH  13  17
ATOM     14  C   UNL     1       0.731  -0.503   1.223  0.00  0.00    -0.045 A 
ATOM     15  C   UNL     1       2.050  -0.147   1.432  0.00  0.00    +0.006 A 
ATOM     16  C   UNL     1       2.721  -0.603   2.550  0.00  0.00    +0.027 A 
ATOM     17  C   UNL     1       2.069  -1.420   3.465  0.00  0.00    +0.074 A 
ATOM     18  C   UNL     1       0.744  -1.776   3.251  0.00  0.00    +0.027 A 
ATOM     19  C   UNL     1       0.077  -1.312   2.134  0.00  0.00    +0.006 A 
BRANCH  14  21
ATOM     20  C   UNL     1      -0.019   1.526   0.010  0.00  0.00    +0.012 C 
ATOM     21  C   UNL     1       0.002  -0.004   0.002  0.00  0.00    +0.013 C 
ATOM     22  C   UNL     1       0.718  -0.497  -1.257  0.00  0.00    +0.012 C 
ENDBRANCH  14  21
ENDBRANCH  13  17
ENDBRANCH   1  13
TORSDOF 4
