REMARK  Name = ZINC13101844
REMARK  14 active torsions:
REMARK  status: ('A' for Active; 'I' for Inactive)
REMARK    1  A    between atoms: C_1  and  C_2
REMARK    2  A    between atoms: C_4  and  C_35
REMARK    3  A    between atoms: C_5  and  N_9
REMARK    4  A    between atoms: C_6  and  C_8
REMARK    5  A    between atoms: C_10  and  C_12
REMARK    6  A    between atoms: C_12  and  O_13
REMARK    7  A    between atoms: O_13  and  C_14
REMARK    8  A    between atoms: C_17  and  C_22
REMARK    9  A    between atoms: C_19  and  O_20
REMARK   10  A    between atoms: O_20  and  C_21
REMARK   11  A    between atoms: N_23  and  N_24
REMARK   12  A    between atoms: N_24  and  C_25
REMARK   13  A    between atoms: C_25  and  N_27
REMARK   14  A    between atoms: N_27  and  C_28
REMARK                            x       y       z     vdW  Elec       q    Type
REMARK                         _______ _______ _______ _____ _____    ______ ____
ROOT
ATOM      1  C   UNL     1       5.124   8.191  -1.873  0.00  0.00    +0.163 A 
ATOM      2  C   UNL     1       6.377   7.715  -1.515  0.00  0.00    +0.050 A 
ATOM      3  C   UNL     1       7.394   8.597  -1.219  0.00  0.00    +0.013 A 
ATOM      4  C   UNL     1       7.162   9.974  -1.270  0.00  0.00    -0.002 A 
ATOM      5  C   UNL     1       5.898  10.453  -1.625  0.00  0.00    +0.059 A 
ATOM      6  C   UNL     1       4.884   9.562  -1.925  0.00  0.00    +0.162 A 
ENDROOT
BRANCH   6   7
ATOM      7  O   UNL     1       3.653  10.025  -2.272  0.00  0.00    -0.491 OA
ATOM      8  C   UNL     1       3.479  11.443  -2.305  0.00  0.00    +0.277 C 
ENDBRANCH   6   7
BRANCH   4   9
ATOM      9  C   UNL     1       8.246  10.919  -0.948  0.00  0.00    +0.138 C 
ATOM     10  N   UNL     1       9.420  10.473  -0.618  0.00  0.00    -0.188 NA
BRANCH  10  11
ATOM     11  N   UNL     1      10.451  11.371  -0.313  0.00  0.00    -0.218 N 
ATOM     12  H   UNL     1      10.288  12.326  -0.348  0.00  0.00    +0.176 HD
BRANCH  11  13
ATOM     13  C   UNL     1      11.669  10.907   0.030  0.00  0.00    +0.154 C 
ATOM     14  S   UNL     1      12.929  12.004   0.403  0.00  0.00    -0.017 S 
BRANCH  13  15
ATOM     15  N   UNL     1      11.895   9.579   0.079  0.00  0.00    -0.296 N 
ATOM     16  H   UNL     1      11.166   8.957  -0.072  0.00  0.00    +0.154 HD
BRANCH  15  17
ATOM     17  C   UNL     1      13.181   9.098   0.347  0.00  0.00    +0.034 A 
ATOM     18  C   UNL     1      13.711   8.066  -0.416  0.00  0.00    +0.023 A 
ATOM     19  C   UNL     1      14.983   7.596  -0.153  0.00  0.00    +0.003 A 
ATOM     20  C   UNL     1      15.725   8.146   0.876  0.00  0.00    +0.020 A 
ATOM     21  C   UNL     1      15.198   9.171   1.642  0.00  0.00    +0.043 A 
ATOM     22  C   UNL     1      13.928   9.649   1.380  0.00  0.00    +0.043 A 
ATOM     23 CL   UNL     1      16.134   9.857   2.934  0.00  0.00    -0.083 Cl
ENDBRANCH  15  17
ENDBRANCH  13  15
ENDBRANCH  11  13
ENDBRANCH  10  11
ENDBRANCH   4   9
BRANCH   1  24
ATOM     24  O   UNL     1       4.125   7.316  -2.168  0.00  0.00    -0.479 OA
BRANCH  24  25
ATOM     25  C   UNL     1       4.439   5.924  -2.094  0.00  0.00    +0.325 C 
BRANCH  25  27
ATOM     26  N   UNL     1       3.280   3.768  -2.450  0.00  0.00    -0.282 N 
ATOM     27  C   UNL     1       3.219   5.115  -2.452  0.00  0.00    +0.255 C 
ATOM     28  O   UNL     1       2.183   5.675  -2.741  0.00  0.00    -0.272 OA
ATOM     29  H   UNL     1       4.081   3.319  -2.139  0.00  0.00    +0.155 HD
BRANCH  26  34
ATOM     30  C   UNL     1      -1.156   0.734  -4.268  0.00  0.00    +0.044 C 
ATOM     31  C   UNL     1       0.023   1.538  -3.783  0.00  0.00    -0.050 A 
ATOM     32  C   UNL     1       1.263   1.368  -4.371  0.00  0.00    +0.008 A 
ATOM     33  C   UNL     1       2.344   2.107  -3.933  0.00  0.00    -0.029 A 
ATOM     34  C   UNL     1       2.186   3.018  -2.897  0.00  0.00    +0.039 A 
ATOM     35  C   UNL     1       0.941   3.183  -2.305  0.00  0.00    -0.029 A 
ATOM     36  C   UNL     1      -0.136   2.441  -2.748  0.00  0.00    +0.008 A 
ATOM     37  C   UNL     1       0.765   4.171  -1.180  0.00  0.00    +0.045 C 
ATOM     38  C   UNL     1       3.693   1.926  -4.579  0.00  0.00    +0.045 C 
ENDBRANCH  26  34
ENDBRANCH  25  27
ENDBRANCH  24  25
ENDBRANCH   1  24
TORSDOF 10
