REMARK  Name = ZINC30974518
REMARK  6 active torsions:
REMARK  status: ('A' for Active; 'I' for Inactive)
REMARK    1  A    between atoms: C_1  and  C_2
REMARK    2  A    between atoms: C_6  and  C_8
REMARK    3  A    between atoms: C_10  and  C_13
REMARK    4  A    between atoms: C_13  and  N_14
REMARK    5  A    between atoms: C_17  and  C_20
REMARK    6  A    between atoms: N_22  and  C_23
REMARK                            x       y       z     vdW  Elec       q    Type
REMARK                         _______ _______ _______ _____ _____    ______ ____
ROOT
ATOM      1  N   UNL     1       6.505   4.379  -1.399  0.00  0.00    +0.386 N 
ATOM      2  C   UNL     1       6.101   3.147  -2.087  0.00  0.00    -0.077 C 
ATOM      3  C   UNL     1       6.475   3.241  -3.568  0.00  0.00    -0.006 C 
ATOM      4  C   UNL     1       7.987   3.446  -3.695  0.00  0.00    +0.072 C 
ATOM      5  C   UNL     1       8.389   4.710  -2.930  0.00  0.00    -0.006 C 
ATOM      6  C   UNL     1       7.959   4.573  -1.467  0.00  0.00    -0.077 C 
ATOM      7  H   UNL     1       6.030   5.225  -1.919  0.00  0.00    -0.081 HD
ENDROOT
BRANCH   4   8
ATOM      8  C   UNL     1       8.354   3.600  -5.149  0.00  0.00    +0.220 C 
ATOM      9  O   UNL     1       8.884   4.619  -5.536  0.00  0.00    -0.275 OA
ATOM     10  N   UNL     1       8.092   2.604  -6.019  0.00  0.00    -0.283 N 
ATOM     11  H   UNL     1       7.678   1.652  -5.656  0.00  0.00    +0.155 HD
BRANCH  10  12
ATOM     12  C   UNL     1       8.346   2.783  -7.385  0.00  0.00    +0.069 A 
ATOM     13  C   UNL     1       9.431   3.545  -7.796  0.00  0.00    +0.027 A 
ATOM     14  C   UNL     1       9.682   3.716  -9.144  0.00  0.00    +0.017 A 
ATOM     15  C   UNL     1       8.849   3.136 -10.084  0.00  0.00    +0.021 A 
ATOM     16  C   UNL     1       7.765   2.380  -9.679  0.00  0.00    +0.055 A 
ATOM     17  C   UNL     1       7.510   2.201  -8.331  0.00  0.00    +0.146 A 
ATOM     18  F   UNL     1       6.451   1.462  -7.935  0.00  0.00    -0.204 F 
ATOM     19 BR   UNL     1       9.194   3.379 -11.927  0.00  0.00    -0.050 Br
ENDBRANCH  10  12
ENDBRANCH   4   8
BRANCH   1  20
ATOM     20  C   UNL     1       6.038   4.382  -0.006  0.00  0.00    +0.022 C 
BRANCH  20  23
ATOM     21  C   UNL     1       2.474   3.921   0.048  0.00  0.00    +0.202 A 
ATOM     22  N   UNL     1       3.722   3.400   0.029  0.00  0.00    -0.193 NA
ATOM     23  C   UNL     1       4.532   4.429   0.019  0.00  0.00    +0.211 A 
ATOM     24  O   UNL     1       3.772   5.529   0.041  0.00  0.00    -0.340 OA
ATOM     25  N   UNL     1       2.599   5.222   0.057  0.00  0.00    -0.056 NA
BRANCH  21  31
ATOM     26  C   UNL     1      -2.518   3.844   0.133  0.00  0.00    +0.044 C 
ATOM     27  C   UNL     1      -1.198   3.117   0.105  0.00  0.00    -0.050 A 
ATOM     28  C   UNL     1      -1.173   1.734   0.088  0.00  0.00    +0.003 A 
ATOM     29  C   UNL     1       0.035   1.059   0.067  0.00  0.00    +0.001 A 
ATOM     30  C   UNL     1       1.222   1.764   0.052  0.00  0.00    +0.012 A 
ATOM     31  C   UNL     1       1.202   3.157   0.064  0.00  0.00    +0.023 A 
ATOM     32  C   UNL     1      -0.018   3.831   0.090  0.00  0.00    +0.015 A 
ENDBRANCH  21  31
ENDBRANCH  20  23
ENDBRANCH   1  20
TORSDOF 5
