REMARK  Name = ZINC10891557
REMARK  9 active torsions:
REMARK  status: ('A' for Active; 'I' for Inactive)
REMARK    1  A    between atoms: C_1  and  C_2
REMARK    2  A    between atoms: C_2  and  C_3
REMARK    3  A    between atoms: C_2  and  C_4
REMARK    4  A    between atoms: C_2  and  C_5
REMARK    5  A    between atoms: C_8  and  C_11
REMARK    6  A    between atoms: N_13  and  N_14
REMARK    7  A    between atoms: C_15  and  C_17
REMARK    8  A    between atoms: N_22  and  S_23
REMARK    9  A    between atoms: S_23  and  C_26
REMARK                            x       y       z     vdW  Elec       q    Type
REMARK                         _______ _______ _______ _____ _____    ______ ____
ROOT
ATOM      1  N   UNL     1      -4.902   3.873   0.070  0.00  0.00    -0.233 N 
ATOM      2  C   UNL     1      -6.063   3.188   0.078  0.00  0.00    +0.248 C 
ATOM      3  O   UNL     1      -6.051   1.975   0.072  0.00  0.00    -0.273 OA
ATOM      4  H   UNL     1      -4.912   4.843   0.075  0.00  0.00    +0.173 HD
ENDROOT
BRANCH   2   5
ATOM      5  C   UNL     1      -7.375   3.929   0.095  0.00  0.00    +0.167 C 
ATOM      6  C   UNL     1      -7.507   4.792  -1.178  0.00  0.00    +0.031 C 
ATOM      7  C   UNL     1      -9.008   4.648  -1.542  0.00  0.00    +0.019 C 
ATOM      8  C   UNL     1      -9.288   3.180  -1.133  0.00  0.00    +0.110 C 
ATOM      9  N   UNL     1      -8.490   2.970   0.093  0.00  0.00    -0.165 NA
BRANCH   9  10
ATOM     10  S   UNL     1      -8.797   1.845   1.268  0.00  0.00    +0.062 S 
ATOM     11  O   UNL     1      -9.555   0.812   0.653  0.00  0.00    -0.153 OA
ATOM     12  O   UNL     1      -7.561   1.595   1.924  0.00  0.00    -0.153 OA
BRANCH  10  13
ATOM     13  C   UNL     1      -9.853   2.605   2.456  0.00  0.00    +0.109 A 
ATOM     14  C   UNL     1     -11.225   2.527   2.310  0.00  0.00    +0.032 A 
ATOM     15  C   UNL     1     -12.057   3.123   3.239  0.00  0.00    +0.051 A 
ATOM     16  C   UNL     1     -11.516   3.802   4.321  0.00  0.00    +0.162 A 
ATOM     17  C   UNL     1     -10.136   3.879   4.469  0.00  0.00    +0.164 A 
ATOM     18  C   UNL     1      -9.308   3.275   3.535  0.00  0.00    +0.078 A 
ATOM     19  O   UNL     1      -9.585   4.536   5.525  0.00  0.00    -0.485 OA
ATOM     20  C   UNL     1     -10.437   5.441   6.236  0.00  0.00    +0.270 C 
ATOM     21  C   UNL     1     -11.777   4.739   6.490  0.00  0.00    +0.270 C 
ATOM     22  O   UNL     1     -12.347   4.388   5.225  0.00  0.00    -0.485 OA
ENDBRANCH  10  13
ENDBRANCH   9  10
ENDBRANCH   2   5
BRANCH   1  25
ATOM     23  C   UNL     1      -2.522   3.870   0.047  0.00  0.00    +0.260 C 
ATOM     24  O   UNL     1      -2.534   5.085   0.053  0.00  0.00    -0.269 OA
ATOM     25  N   UNL     1      -3.682   3.185   0.055  0.00  0.00    -0.230 N 
ATOM     26  H   UNL     1      -3.673   2.215   0.050  0.00  0.00    +0.173 HD
BRANCH  23  30
ATOM     27  C   UNL     1       1.177   1.782   0.000  0.00  0.00    -0.042 A 
ATOM     28  C   UNL     1      -0.013   1.076   0.008  0.00  0.00    +0.005 A 
ATOM     29  C   UNL     1      -1.217   1.748   0.017  0.00  0.00    +0.013 A 
ATOM     30  C   UNL     1      -1.234   3.143   0.031  0.00  0.00    +0.038 A 
ATOM     31  C   UNL     1      -0.031   3.850   0.023  0.00  0.00    +0.013 A 
ATOM     32  C   UNL     1       1.167   3.166   0.007  0.00  0.00    +0.005 A 
BRANCH  27  34
ATOM     33  C   UNL     1       2.567   0.170  -1.271  0.00  0.00    +0.015 C 
ATOM     34  C   UNL     1       2.489   1.042  -0.016  0.00  0.00    -0.013 C 
ATOM     35  C   UNL     1       3.643   2.047  -0.022  0.00  0.00    +0.015 C 
ATOM     36  C   UNL     1       2.591   0.156   1.228  0.00  0.00    +0.015 C 
ENDBRANCH  27  34
ENDBRANCH  23  30
ENDBRANCH   1  25
TORSDOF 6
