REMARK  Name = ZINC44460423
REMARK  7 active torsions:
REMARK  status: ('A' for Active; 'I' for Inactive)
REMARK    1  A    between atoms: C_1  and  C_2
REMARK    2  A    between atoms: C_4  and  O_30
REMARK    3  A    between atoms: C_14  and  C_15
REMARK    4  A    between atoms: C_14  and  O_19
REMARK    5  A    between atoms: C_15  and  C_17
REMARK    6  A    between atoms: C_17  and  O_18
REMARK    7  A    between atoms: C_28  and  C_29
REMARK                            x       y       z     vdW  Elec       q    Type
REMARK                         _______ _______ _______ _____ _____    ______ ____
ROOT
ATOM      1  C   UNL     1      -0.019   1.532   0.011  0.00  0.00    +0.015 C 
ATOM      2  C   UNL     1       0.002  -0.004   0.002  0.00  0.00    +0.009 C 
ATOM      3  C   UNL     1      -1.395  -0.552   0.015  0.00  0.00    +0.041 C 
ATOM      4  C   UNL     1      -1.983  -0.598   1.437  0.00  0.00    +0.120 C 
ATOM      5  C   UNL     1      -1.170   0.204   2.428  0.00  0.00    +0.035 C 
ATOM      6  C   UNL     1       0.281  -0.256   2.516  0.00  0.00    -0.000 C 
ATOM      7  C   UNL     1       0.839  -0.581   1.159  0.00  0.00    +0.002 C 
ATOM      8  C   UNL     1       2.242  -0.039   0.845  0.00  0.00    +0.008 C 
ATOM      9  C   UNL     1       2.324  -0.129  -0.703  0.00  0.00    +0.043 C 
ATOM     10  C   UNL     1       0.880  -0.386  -1.208  0.00  0.00    +0.131 C 
ATOM     11  C   UNL     1       1.109   0.792   3.262  0.00  0.00    +0.008 C 
ATOM     12  C   UNL     1       0.575   0.914   4.697  0.00  0.00    +0.032 C 
ATOM     13  C   UNL     1      -0.912   1.209   4.635  0.00  0.00    -0.056 C 
ATOM     14  C   UNL     1      -1.382   2.264   5.282  0.00  0.00    +0.051 C 
ATOM     15  C   UNL     1      -2.812   2.604   5.231  0.00  0.00    +0.179 C 
ATOM     16  O   UNL     1      -3.252   3.546   5.862  0.00  0.00    -0.288 OA
ATOM     17  C   UNL     1      -3.696   1.779   4.389  0.00  0.00    +0.047 C 
ATOM     18  C   UNL     1      -3.208   0.727   3.753  0.00  0.00    -0.012 C 
ATOM     19  C   UNL     1      -1.785   0.282   3.826  0.00  0.00    +0.013 C 
ATOM     20  C   UNL     1      -1.766  -1.082   4.506  0.00  0.00    +0.020 C 
ENDROOT
BRANCH  10  21
ATOM     21  C   UNL     1       0.716  -1.823  -1.601  0.00  0.00    +0.190 C 
ATOM     22  O   UNL     1       0.352  -2.634  -0.784  0.00  0.00    -0.292 OA
BRANCH  21  23
ATOM     23  C   UNL     1       1.004  -2.254  -3.016  0.00  0.00    +0.233 C 
BRANCH  23  24
ATOM     24  O   UNL     1       0.776  -3.659  -3.141  0.00  0.00    -0.387 OA
ATOM     25  H   UNL     1       0.943  -4.008  -4.028  0.00  0.00    +0.210 HD
ENDBRANCH  23  24
ENDBRANCH  21  23
ENDBRANCH  10  21
BRANCH  10  26
ATOM     26  O   UNL     1       0.580   0.478  -2.305  0.00  0.00    -0.380 OA
ATOM     27  H   UNL     1       1.096   0.295  -3.102  0.00  0.00    +0.211 HD
ENDBRANCH  10  26
BRANCH   4  28
ATOM     28  O   UNL     1      -2.067  -1.974   1.833  0.00  0.00    -0.391 OA
ATOM     29  H   UNL     1      -2.627  -2.515   1.259  0.00  0.00    +0.210 HD
ENDBRANCH   4  28
TORSDOF 5
