REMARK  Name = ZINC36612696
REMARK  9 active torsions:
REMARK  status: ('A' for Active; 'I' for Inactive)
REMARK    1  A    between atoms: C_1  and  C_2
REMARK    2  A    between atoms: C_2  and  C_32
REMARK    3  A    between atoms: C_6  and  C_14
REMARK    4  A    between atoms: C_8  and  C_12
REMARK    5  A    between atoms: C_9  and  N_11
REMARK    6  A    between atoms: C_16  and  O_27
REMARK    7  A    between atoms: C_17  and  O_21
REMARK    8  A    between atoms: O_21  and  C_22
REMARK    9  A    between atoms: O_27  and  C_28
REMARK                            x       y       z     vdW  Elec       q    Type
REMARK                         _______ _______ _______ _____ _____    ______ ____
ROOT
ATOM      1  C   UNL     1      -0.019   1.526   0.010  0.00  0.00    +0.012 C 
ATOM      2  C   UNL     1       0.002  -0.004   0.002  0.00  0.00    -0.021 C 
ATOM      3  C   UNL     1       0.740  -0.501  -1.243  0.00  0.00    +0.081 C 
ATOM      4  C   UNL     1       2.166  -0.006  -1.220  0.00  0.00    +0.115 C 
ATOM      5  C   UNL     1       2.809   0.187  -0.053  0.00  0.00    +0.046 C 
ATOM      6  C   UNL     1       4.237   0.676  -0.034  0.00  0.00    +0.101 C 
ATOM      7  C   UNL     1       4.593   1.295  -1.356  0.00  0.00    +0.098 C 
ATOM      8  C   UNL     1       3.845   1.041  -2.458  0.00  0.00    +0.198 C 
ATOM      9  O   UNL     1       2.773   0.233  -2.398  0.00  0.00    -0.445 OA
ATOM     10  C   UNL     1       2.173  -0.054   1.180  0.00  0.00    +0.164 C 
ATOM     11  O   UNL     1       2.791   0.114   2.212  0.00  0.00    -0.292 OA
ATOM     12  C   UNL     1       0.743  -0.516   1.242  0.00  0.00    +0.086 C 
ATOM     13  C   UNL     1      -1.432  -0.538   0.003  0.00  0.00    +0.012 C 
ENDROOT
BRANCH   6  14
ATOM     14  C   UNL     1       5.158  -0.486   0.234  0.00  0.00    -0.030 A 
ATOM     15  C   UNL     1       5.974  -0.476   1.351  0.00  0.00    +0.054 A 
ATOM     16  C   UNL     1       6.822  -1.544   1.599  0.00  0.00    +0.163 A 
ATOM     17  C   UNL     1       6.850  -2.624   0.723  0.00  0.00    +0.176 A 
ATOM     18  C   UNL     1       6.030  -2.628  -0.394  0.00  0.00    +0.063 A 
ATOM     19  C   UNL     1       5.182  -1.562  -0.633  0.00  0.00    +0.023 A 
ATOM     20 BR   UNL     1       6.064  -4.095  -1.587  0.00  0.00    -0.046 Br
BRANCH  16  21
ATOM     21  O   UNL     1       7.625  -1.535   2.696  0.00  0.00    -0.491 OA
ATOM     22  C   UNL     1       7.543  -0.392   3.551  0.00  0.00    +0.277 C 
ENDBRANCH  16  21
BRANCH  17  23
ATOM     23  O   UNL     1       7.681  -3.674   0.962  0.00  0.00    -0.484 OA
BRANCH  23  24
ATOM     24  C   UNL     1       7.161  -4.746   1.752  0.00  0.00    +0.174 C 
ATOM     25  C   UNL     1       7.510  -4.525   3.238  0.00  0.00    +0.044 C 
ATOM     26  C   UNL     1       7.807  -5.947   3.774  0.00  0.00    +0.004 C 
ATOM     27  C   UNL     1       8.548  -6.612   2.588  0.00  0.00    +0.004 C 
ATOM     28  C   UNL     1       7.822  -6.073   1.338  0.00  0.00    +0.044 C 
ENDBRANCH  23  24
ENDBRANCH  17  23
ENDBRANCH   6  14
BRANCH   8  29
ATOM     29  N   UNL     1       4.189   1.619  -3.655  0.00  0.00    -0.328 N 
ATOM     30  H   UNL     1       4.961   2.204  -3.707  0.00  0.00    +0.145 HD
ATOM     31  H   UNL     1       3.659   1.443  -4.448  0.00  0.00    +0.145 HD
ENDBRANCH   8  29
BRANCH   7  32
ATOM     32  C   UNL     1       5.731   2.158  -1.453  0.00  0.00    +0.101 C 
ATOM     33  N   UNL     1       6.634   2.844  -1.530  0.00  0.00    -0.191 NA
ENDBRANCH   7  32
TORSDOF 6
