REMARK  Name = ZINC39773080
REMARK  14 active torsions:
REMARK  status: ('A' for Active; 'I' for Inactive)
REMARK    1  A    between atoms: C_1  and  C_2
REMARK    2  A    between atoms: C_2  and  C_4
REMARK    3  A    between atoms: C_2  and  S_12
REMARK    4  A    between atoms: C_4  and  N_6
REMARK    5  A    between atoms: S_12  and  C_13
REMARK    6  A    between atoms: C_16  and  CA_22
REMARK    7  A    between atoms: N_17  and  C_18
REMARK    8  A    between atoms: C_18  and  C_19
REMARK    9  A    between atoms: C_19  and  C_20
REMARK   10  A    between atoms: C_19  and  C_21
REMARK   11  A    between atoms: CA_22  and  C_24
REMARK   12  A    between atoms: CA_22  and  N_26
REMARK   13  A    between atoms: C_24  and  O_25
REMARK   14  A    between atoms: C_27  and  C_29
REMARK                            x       y       z     vdW  Elec       q    Type
REMARK                         _______ _______ _______ _____ _____    ______ ____
ROOT
ATOM      1  C   UNL     1      -0.069   0.310   2.812  0.00  0.00    +0.192 A 
ATOM      2  N   UNL     1      -1.159   1.034   2.700  0.00  0.00    -0.122 NA
ATOM      3  N   UNL     1      -1.787   1.053   3.821  0.00  0.00    -0.131 NA
ATOM      4  C   UNL     1      -1.142   0.350   4.707  0.00  0.00    +0.157 A 
ATOM      5  N   UNL     1      -0.027  -0.154   4.095  0.00  0.00    -0.304 N 
ENDROOT
BRANCH   1   6
ATOM      6  S   UNL     1       1.112  -0.009   1.543  0.00  0.00    -0.073 S 
BRANCH   6   8
ATOM      7  C   UNL     1       0.484   2.394   0.396  0.00  0.00    +0.029 C 
ATOM      8  C   UNL     1       0.466   0.891   0.106  0.00  0.00    +0.139 C 
BRANCH   8   9
ATOM      9  C   UNL     1       1.327   0.601  -1.096  0.00  0.00    +0.251 C 
ATOM     10  O   UNL     1       2.457   0.178  -0.947  0.00  0.00    -0.272 OA
BRANCH   9  11
ATOM     11  N   UNL     1       0.850   0.809  -2.321  0.00  0.00    -0.158 NA
ATOM     12  C   UNL     1       1.609   0.553  -3.381  0.00  0.00    +0.146 C 
ATOM     13  N   UNL     1       1.254   0.723  -4.675  0.00  0.00    -0.325 N 
ATOM     14  C   UNL     1       2.191   0.400  -5.731  0.00  0.00    +0.114 C 
ATOM     15  C   UNL     1       3.525  -0.117  -5.154  0.00  0.00    +0.095 C 
ATOM     16  S   UNL     1       3.179  -0.031  -3.354  0.00  0.00    -0.092 S 
ATOM     17  H   UNL     1       0.372   1.061  -4.895  0.00  0.00    +0.148 HD
ENDBRANCH   9  11
ENDBRANCH   8   9
ENDBRANCH   6   8
ENDBRANCH   1   6
BRANCH   5  18
ATOM     18  C   UNL     1       1.000  -1.011   4.693  0.00  0.00    +0.128 C 
BRANCH  18  19
ATOM     19  C   UNL     1       0.546  -2.470   4.630  0.00  0.00    +0.003 C 
ATOM     20  C   UNL     1       0.464  -2.916   3.168  0.00  0.00    +0.009 C 
ATOM     21  C   UNL     1       1.552  -3.350   5.375  0.00  0.00    +0.009 C 
ENDBRANCH  18  19
ENDBRANCH   5  18
BRANCH   4  22
ATOM     22  CA  UNL     1      -1.551   0.127   6.141  0.00  0.00    +0.167 C 
BRANCH  22  23
ATOM     23  N   UNL     1      -2.995  -0.107   6.205  0.00  0.00    -0.299 N 
ATOM     24  C   UNL     1      -3.520  -0.805   7.232  0.00  0.00    +0.245 C 
ATOM     25  O   UNL     1      -2.794  -1.241   8.104  0.00  0.00    -0.270 OA
ATOM     26  H   UNL     1      -3.575   0.241   5.509  0.00  0.00    +0.150 HD
BRANCH  24  27
ATOM     27  C   UNL     1      -4.977  -1.041   7.298  0.00  0.00    +0.037 A 
ATOM     28  C   UNL     1      -5.813  -0.547   6.294  0.00  0.00    +0.014 A 
ATOM     29  C   UNL     1      -7.172  -0.771   6.360  0.00  0.00    +0.021 A 
ATOM     30  C   UNL     1      -7.708  -1.484   7.420  0.00  0.00    +0.041 A 
ATOM     31  C   UNL     1      -6.884  -1.976   8.418  0.00  0.00    +0.021 A 
ATOM     32  C   UNL     1      -5.523  -1.764   8.360  0.00  0.00    +0.014 A 
ATOM     33 CL   UNL     1      -9.420  -1.760   7.497  0.00  0.00    -0.084 Cl
ENDBRANCH  24  27
ENDBRANCH  22  23
BRANCH  22  34
ATOM     34  C   UNL     1      -1.196   1.363   6.970  0.00  0.00    +0.186 C 
BRANCH  34  35
ATOM     35  O   UNL     1      -1.789   2.520   6.377  0.00  0.00    -0.393 OA
ATOM     36  H   UNL     1      -1.605   3.343   6.852  0.00  0.00    +0.209 HD
ENDBRANCH  34  35
ENDBRANCH  22  34
ENDBRANCH   4  22
TORSDOF 11
