REMARK  Name = ZINC43460825
REMARK  2 active torsions:
REMARK  status: ('A' for Active; 'I' for Inactive)
REMARK    1  A    between atoms: C_8  and  C_11
REMARK    2  A    between atoms: C_11  and  C_12
REMARK                            x       y       z     vdW  Elec       q    Type
REMARK                         _______ _______ _______ _____ _____    ______ ____
ROOT
ATOM      1  C   UNL     1      -0.017   1.381   0.010  0.00  0.00    +0.046 A 
ATOM      2  C   UNL     1       0.002  -0.004   0.002  0.00  0.00    +0.038 A 
ATOM      3  C   UNL     1      -1.196  -0.702   0.010  0.00  0.00    +0.128 A 
ATOM      4  N   UNL     1      -2.353  -0.077   0.024  0.00  0.00    -0.233 NA
ATOM      5  C   UNL     1      -2.427   1.252   0.031  0.00  0.00    +0.178 A 
ATOM      6  C   UNL     1      -1.250   2.020   0.031  0.00  0.00    +0.086 A 
ATOM      7  N   UNL     1      -1.651   3.340   0.044  0.00  0.00    -0.340 N 
ATOM      8  C   UNL     1      -3.010   3.347   0.064  0.00  0.00    +0.116 A 
ATOM      9  N   UNL     1      -3.464   2.126   0.046  0.00  0.00    -0.213 NA
ATOM     10  H   UNL     1      -1.072   4.118   0.040  0.00  0.00    +0.167 HD
ATOM     11 BR   UNL     1       1.648  -0.935  -0.019  0.00  0.00    -0.049 Br
ENDROOT
BRANCH   8  12
ATOM     12  C   UNL     1      -3.867   4.586   0.084  0.00  0.00    +0.130 C 
BRANCH  12  13
ATOM     13  C   UNL     1      -4.840   4.543  -1.067  0.00  0.00    +0.058 A 
ATOM     14  C   UNL     1      -6.174   4.668  -0.870  0.00  0.00    +0.072 A 
ATOM     15  S   UNL     1      -6.773   4.542  -2.547  0.00  0.00    -0.061 S 
ATOM     16  C   UNL     1      -5.286   4.346  -3.311  0.00  0.00    +0.156 A 
ATOM     17  N   UNL     1      -4.429   4.387  -2.313  0.00  0.00    -0.230 NA
ATOM     18  N   UNL     1      -5.026   4.185  -4.663  0.00  0.00    -0.338 N 
ATOM     19  H   UNL     1      -5.758   4.177  -5.299  0.00  0.00    +0.144 HD
ATOM     20  H   UNL     1      -4.113   4.081  -4.972  0.00  0.00    +0.144 HD
ENDBRANCH  12  13
ENDBRANCH   8  12
TORSDOF 2
