REMARK  Name = ZINC33343660
REMARK  8 active torsions:
REMARK  status: ('A' for Active; 'I' for Inactive)
REMARK    1  A    between atoms: C_1  and  C_2
REMARK    2  A    between atoms: C_4  and  C_17
REMARK    3  A    between atoms: C_5  and  C_16
REMARK    4  A    between atoms: N_6  and  C_7
REMARK    5  A    between atoms: C_10  and  N_13
REMARK    6  A    between atoms: N_13  and  C_14
REMARK    7  A    between atoms: N_13  and  C_15
REMARK    8  A    between atoms: N_24  and  C_27
REMARK                            x       y       z     vdW  Elec       q    Type
REMARK                         _______ _______ _______ _____ _____    ______ ____
ROOT
ATOM      1  C   UNL     1       1.261  -4.697  -1.507  0.00  0.00    +0.028 C 
ATOM      2  C   UNL     1       0.707  -4.820  -2.775  0.00  0.00    +0.102 C 
ATOM      3  C   UNL     1       0.939  -6.013  -3.602  0.00  0.00    +0.276 C 
ATOM      4  O   UNL     1       1.703  -7.030  -3.148  0.00  0.00    -0.268 OA
ATOM      5  N   UNL     1       0.383  -6.068  -4.800  0.00  0.00    -0.123 NA
ATOM      6  C   UNL     1      -0.374  -5.082  -5.273  0.00  0.00    +0.340 C 
ATOM      7  O   UNL     1      -0.853  -5.206  -6.387  0.00  0.00    -0.250 OA
ATOM      8  N   UNL     1      -0.640  -3.958  -4.591  0.00  0.00    -0.188 N 
ATOM      9  C   UNL     1      -0.145  -3.763  -3.350  0.00  0.00    +0.264 C 
ATOM     10  O   UNL     1      -0.390  -2.746  -2.728  0.00  0.00    -0.269 OA
ENDROOT
BRANCH   1  14
ATOM     11  C   UNL     1       1.354   0.233  -0.431  0.00  0.00    +0.064 C 
ATOM     12  C   UNL     1       1.217  -1.265  -0.343  0.00  0.00    +0.022 A 
ATOM     13  C   UNL     1       1.418  -2.124  -1.355  0.00  0.00    +0.031 A 
ATOM     14  C   UNL     1       1.172  -3.470  -0.813  0.00  0.00    -0.003 A 
ATOM     15  C   UNL     1       0.835  -3.284   0.522  0.00  0.00    +0.028 A 
ATOM     16  N   UNL     1       0.873  -1.964   0.781  0.00  0.00    -0.317 N 
ATOM     17  C   UNL     1       0.492  -4.371   1.508  0.00  0.00    +0.064 C 
BRANCH  16  18
ATOM     18  C   UNL     1       0.596  -1.387   2.029  0.00  0.00    +0.047 A 
ATOM     19  C   UNL     1       1.429  -1.638   3.111  0.00  0.00    +0.028 A 
ATOM     20  C   UNL     1       1.157  -1.069   4.339  0.00  0.00    +0.025 A 
ATOM     21  C   UNL     1       0.048  -0.246   4.492  0.00  0.00    +0.029 A 
ATOM     22  C   UNL     1      -0.785   0.005   3.409  0.00  0.00    +0.025 A 
ATOM     23  C   UNL     1      -0.509  -0.559   2.180  0.00  0.00    +0.028 A 
BRANCH  21  24
ATOM     24  N   UNL     1      -0.228   0.330   5.736  0.00  0.00    -0.336 N 
ATOM     25  C   UNL     1       0.717   0.170   6.843  0.00  0.00    +0.129 C 
ATOM     26  C   UNL     1      -1.464   1.093   5.931  0.00  0.00    +0.129 C 
ENDBRANCH  21  24
ENDBRANCH  16  18
ENDBRANCH   1  14
BRANCH   8  27
ATOM     27  C   UNL     1      -1.450  -2.973  -5.172  0.00  0.00    +0.046 A 
ATOM     28  C   UNL     1      -0.910  -1.739  -5.509  0.00  0.00    +0.025 A 
ATOM     29  C   UNL     1      -1.710  -0.770  -6.083  0.00  0.00    +0.017 A 
ATOM     30  C   UNL     1      -3.048  -1.029  -6.322  0.00  0.00    +0.018 A 
ATOM     31  C   UNL     1      -3.588  -2.257  -5.987  0.00  0.00    +0.017 A 
ATOM     32  C   UNL     1      -2.791  -3.232  -5.418  0.00  0.00    +0.025 A 
ATOM     33 BR   UNL     1      -4.141   0.300  -7.107  0.00  0.00    -0.050 Br
ENDBRANCH   8  27
TORSDOF 4
