REMARK  Name = ZINC51088571
REMARK  4 active torsions:
REMARK  status: ('A' for Active; 'I' for Inactive)
REMARK    1  A    between atoms: C_6  and  N_7
REMARK    2  A    between atoms: C_8  and  C_10
REMARK    3  A    between atoms: C_15  and  N_16
REMARK    4  A    between atoms: N_16  and  N_17
REMARK                            x       y       z     vdW  Elec       q    Type
REMARK                         _______ _______ _______ _____ _____    ______ ____
ROOT
ATOM      1  N   UNL     1      -1.203  -0.722  -0.018  0.00  0.00    -0.281 N 
ATOM      2  C   UNL     1      -2.375  -0.068   0.114  0.00  0.00    +0.250 C 
ATOM      3  O   UNL     1      -2.394   1.148   0.130  0.00  0.00    -0.270 OA
ATOM      4  H   UNL     1      -1.194  -1.689  -0.095  0.00  0.00    +0.155 HD
ENDROOT
BRANCH   1  10
ATOM      5  C   UNL     1       1.142  -0.545   0.531  0.00  0.00    +0.027 A 
ATOM      6  C   UNL     1       2.329   0.161   0.506  0.00  0.00    +0.051 A 
ATOM      7  C   UNL     1       2.384   1.409  -0.092  0.00  0.00    +0.166 A 
ATOM      8  C   UNL     1       1.239   1.954  -0.670  0.00  0.00    +0.168 A 
ATOM      9  C   UNL     1       0.050   1.246  -0.645  0.00  0.00    +0.072 A 
ATOM     10  C   UNL     1      -0.001  -0.005  -0.044  0.00  0.00    +0.037 A 
ATOM     11  O   UNL     1       1.552   3.178  -1.186  0.00  0.00    -0.453 OA
ATOM     12  C   UNL     1       2.793   3.554  -0.560  0.00  0.00    +0.466 C 
ATOM     13  O   UNL     1       3.413   2.293  -0.246  0.00  0.00    -0.453 OA
ENDBRANCH   1  10
BRANCH   2  14
ATOM     14  C   UNL     1      -3.632  -0.827   0.239  0.00  0.00    +0.060 A 
ATOM     15  C   UNL     1      -3.606  -2.221   0.337  0.00  0.00    +0.035 A 
ATOM     16  C   UNL     1      -4.785  -2.924   0.453  0.00  0.00    +0.042 A 
ATOM     17  C   UNL     1      -6.000  -2.256   0.474  0.00  0.00    +0.022 A 
ATOM     18  C   UNL     1      -6.042  -0.880   0.379  0.00  0.00    +0.026 A 
ATOM     19  C   UNL     1      -4.863  -0.153   0.267  0.00  0.00    +0.053 A 
ATOM     20 CL   UNL     1      -4.750  -4.656   0.574  0.00  0.00    -0.084 Cl
BRANCH  19  21
ATOM     21  N   UNL     1      -4.903   1.232   0.177  0.00  0.00    -0.282 N 
ATOM     22  H   UNL     1      -4.078   1.742   0.172  0.00  0.00    +0.166 HD
BRANCH  21  23
ATOM     23  N   UNL     1      -6.104   1.877   0.095  0.00  0.00    -0.256 NA
ATOM     24  H   UNL     1      -6.698   1.635   0.874  0.00  0.00    +0.140 HD
ATOM     25  H   UNL     1      -5.975   2.876   0.035  0.00  0.00    +0.140 HD
ENDBRANCH  21  23
ENDBRANCH  19  21
ENDBRANCH   2  14
TORSDOF 4
