REMARK  Name = ZINC31854400
REMARK  7 active torsions:
REMARK  status: ('A' for Active; 'I' for Inactive)
REMARK    1  A    between atoms: C_1  and  C_2
REMARK    2  A    between atoms: C_3  and  C_8
REMARK    3  A    between atoms: N_10  and  N_11
REMARK    4  A    between atoms: C_12  and  C_13
REMARK    5  A    between atoms: C_18  and  O_19
REMARK    6  A    between atoms: O_19  and  C_20
REMARK    7  A    between atoms: C_20  and  C_21
REMARK                            x       y       z     vdW  Elec       q    Type
REMARK                         _______ _______ _______ _____ _____    ______ ____
ROOT
ATOM      1  N   UNL     1       6.021  -1.091  -4.987  0.00  0.00    -0.187 NA
ATOM      2  C   UNL     1       5.712  -0.796  -3.761  0.00  0.00    +0.142 C 
ENDROOT
BRANCH   2   3
ATOM      3  C   UNL     1       6.682  -1.040  -2.678  0.00  0.00    +0.036 A 
ATOM      4  C   UNL     1       8.038  -1.197  -2.972  0.00  0.00    +0.013 A 
ATOM      5  C   UNL     1       8.939  -1.431  -1.955  0.00  0.00    +0.001 A 
ATOM      6  C   UNL     1       8.506  -1.505  -0.642  0.00  0.00    +0.004 A 
ATOM      7  C   UNL     1       7.167  -1.345  -0.338  0.00  0.00    +0.046 A 
ATOM      8  C   UNL     1       6.248  -1.110  -1.347  0.00  0.00    +0.130 A 
BRANCH   8   9
ATOM      9  O   UNL     1       4.933  -0.953  -1.049  0.00  0.00    -0.487 OA
BRANCH   9  10
ATOM     10  C   UNL     1       4.580  -0.929   0.335  0.00  0.00    +0.264 C 
BRANCH  10  11
ATOM     11  C   UNL     1       3.091  -0.739   0.471  0.00  0.00    -0.010 A 
ATOM     12  C   UNL     1       2.247  -1.833   0.418  0.00  0.00    +0.007 A 
ATOM     13  C   UNL     1       0.881  -1.659   0.542  0.00  0.00    +0.000 A 
ATOM     14  C   UNL     1       0.359  -0.391   0.718  0.00  0.00    +0.000 A 
ATOM     15  C   UNL     1       1.203   0.703   0.771  0.00  0.00    +0.000 A 
ATOM     16  C   UNL     1       2.569   0.529   0.647  0.00  0.00    +0.007 A 
ENDBRANCH  10  11
ENDBRANCH   9  10
ENDBRANCH   8   9
ENDBRANCH   2   3
BRANCH   1  19
ATOM     17  C   UNL     1       7.427  -2.257  -6.513  0.00  0.00    +0.272 C 
ATOM     18  O   UNL     1       7.020  -1.547  -7.414  0.00  0.00    -0.268 OA
ATOM     19  N   UNL     1       7.005  -2.053  -5.250  0.00  0.00    -0.202 N 
ATOM     20  H   UNL     1       7.434  -2.640  -4.424  0.00  0.00    +0.178 HD
BRANCH  17  23
ATOM     21  C   UNL     1       8.719  -2.901  -9.262  0.00  0.00    +0.067 C 
ATOM     22  C   UNL     1       8.988  -3.676  -7.998  0.00  0.00    +0.060 A 
ATOM     23  C   UNL     1       8.374  -3.333  -6.802  0.00  0.00    +0.100 A 
ATOM     24  S   UNL     1       9.058  -4.575  -5.714  0.00  0.00    -0.048 S 
ATOM     25  C   UNL     1      10.047  -5.386  -6.888  0.00  0.00    +0.156 A 
ATOM     26  N   UNL     1       9.810  -4.694  -7.992  0.00  0.00    -0.230 NA
ATOM     27  N   UNL     1      10.872  -6.477  -6.715  0.00  0.00    -0.337 N 
ATOM     28  H   UNL     1      11.440  -6.878  -7.567  0.00  0.00    +0.144 HD
ATOM     29  H   UNL     1      10.963  -6.946  -5.724  0.00  0.00    +0.144 HD
ENDBRANCH  17  23
ENDBRANCH   1  19
TORSDOF 6
