REMARK  Name = ZINC12367081
REMARK  9 active torsions:
REMARK  status: ('A' for Active; 'I' for Inactive)
REMARK    1  A    between atoms: C_1  and  O_2
REMARK    2  A    between atoms: O_2  and  N_3
REMARK    3  A    between atoms: C_10  and  S_31
REMARK    4  A    between atoms: C_12  and  C_13
REMARK    5  A    between atoms: N_15  and  N_16
REMARK    6  A    between atoms: N_19  and  C_20
REMARK    7  A    between atoms: C_23  and  O_26
REMARK    8  A    between atoms: O_26  and  C_27
REMARK    9  A    between atoms: S_31  and  C_32
REMARK                            x       y       z     vdW  Elec       q    Type
REMARK                         _______ _______ _______ _____ _____    ______ ____
ROOT
ATOM      1  C   UNL     1       3.579   1.900  -0.253  0.00  0.00    +0.267 C 
ATOM      2  O   UNL     1       3.493   3.114  -0.217  0.00  0.00    -0.268 OA
ATOM      3  N   UNL     1       2.465   1.147  -0.342  0.00  0.00    -0.229 N 
ATOM      4  H   UNL     1       2.533   0.180  -0.370  0.00  0.00    +0.173 HD
ENDROOT
BRANCH   1  14
ATOM      5  N   UNL     1       9.657   0.789   0.275  0.00  0.00    -0.089 NA
ATOM      6  C   UNL     1       8.634   1.544   0.022  0.00  0.00    +0.089 C 
ATOM      7  C   UNL     1       8.769   3.038  -0.194  0.00  0.00    +0.060 C 
ATOM      8  C   UNL     1       7.638   3.733   0.570  0.00  0.00    +0.011 C 
ATOM      9  C   UNL     1       6.288   3.374  -0.049  0.00  0.00    +0.037 C 
ATOM     10  C   UNL     1       6.139   1.859  -0.108  0.00  0.00    -0.018 A 
ATOM     11  C   UNL     1       7.246   0.996  -0.073  0.00  0.00    +0.024 A 
ATOM     12  C   UNL     1       6.996  -0.381  -0.133  0.00  0.00    +0.055 A 
ATOM     13  S   UNL     1       5.272  -0.479  -0.228  0.00  0.00    -0.076 S 
ATOM     14  C   UNL     1       4.891   1.259  -0.199  0.00  0.00    +0.080 A 
BRANCH   5  16
ATOM     15  C   UNL     1      10.709  -1.111   1.263  0.00  0.00    +0.313 C 
ATOM     16  O   UNL     1       9.500  -0.375   1.066  0.00  0.00    -0.397 OA
ENDBRANCH   5  16
BRANCH  12  17
ATOM     17  S   UNL     1       8.163  -1.701  -0.109  0.00  0.00    -0.121 S 
ATOM     18  C   UNL     1       7.038  -3.115  -0.220  0.00  0.00    +0.090 C 
ENDBRANCH  12  17
ENDBRANCH   1  14
BRANCH   3  19
ATOM     19  N   UNL     1       1.206   1.762  -0.393  0.00  0.00    -0.218 N 
ATOM     20  C   UNL     1       0.092   1.009  -0.481  0.00  0.00    +0.320 C 
ATOM     21  O   UNL     1      -1.000   1.543  -0.531  0.00  0.00    -0.251 OA
ATOM     22  N   UNL     1       0.188  -0.334  -0.521  0.00  0.00    -0.268 N 
ATOM     23  H   UNL     1       1.138   2.729  -0.364  0.00  0.00    +0.174 HD
ATOM     24  H   UNL     1       1.060  -0.758  -0.553  0.00  0.00    +0.156 HD
BRANCH  22  25
ATOM     25  C   UNL     1      -0.973  -1.120  -0.515  0.00  0.00    +0.035 A 
ATOM     26  C   UNL     1      -2.131  -0.644   0.084  0.00  0.00    +0.027 A 
ATOM     27  C   UNL     1      -3.276  -1.416   0.086  0.00  0.00    +0.048 A 
ATOM     28  C   UNL     1      -3.265  -2.672  -0.503  0.00  0.00    +0.130 A 
ATOM     29  C   UNL     1      -2.107  -3.151  -1.098  0.00  0.00    +0.048 A 
ATOM     30  C   UNL     1      -0.964  -2.377  -1.105  0.00  0.00    +0.027 A 
BRANCH  28  31
ATOM     31  O   UNL     1      -4.392  -3.435  -0.498  0.00  0.00    -0.406 OA
BRANCH  31  32
ATOM     32  C   UNL     1      -5.548  -2.879   0.132  0.00  0.00    +0.575 C 
ATOM     33  F   UNL     1      -5.903  -1.689  -0.511  0.00  0.00    -0.133 F 
ATOM     34  F   UNL     1      -6.607  -3.789   0.048  0.00  0.00    -0.133 F 
ATOM     35  F   UNL     1      -5.265  -2.616   1.477  0.00  0.00    -0.133 F 
ENDBRANCH  31  32
ENDBRANCH  28  31
ENDBRANCH  22  25
ENDBRANCH   3  19
TORSDOF 7
