REMARK  Name = ZINC40312465
REMARK  13 active torsions:
REMARK  status: ('A' for Active; 'I' for Inactive)
REMARK    1  A    between atoms: C_1  and  C_2
REMARK    2  A    between atoms: C_2  and  C_3
REMARK    3  A    between atoms: C_2  and  C_4
REMARK    4  A    between atoms: C_2  and  C_5
REMARK    5  A    between atoms: C_12  and  N_25
REMARK    6  A    between atoms: C_13  and  C_14
REMARK    7  A    between atoms: N_16  and  C_17
REMARK    8  A    between atoms: N_25  and  C_26
REMARK    9  A    between atoms: C_26  and  C_27
REMARK   10  A    between atoms: C_27  and  C_29
REMARK   11  A    between atoms: C_27  and  O_37
REMARK   12  A    between atoms: C_29  and  O_30
REMARK   13  A    between atoms: O_30  and  C_31
REMARK                            x       y       z     vdW  Elec       q    Type
REMARK                         _______ _______ _______ _____ _____    ______ ____
ROOT
ATOM      1  C   UNL     1       0.718  -0.497  -1.257  0.00  0.00    -0.000 C 
ATOM      2  C   UNL     1       0.746  -2.029  -1.264  0.00  0.00    +0.009 C 
ATOM      3  C   UNL     1       1.235  -2.534  -2.624  0.00  0.00    +0.037 C 
ATOM      4  C   UNL     1       2.547  -1.839  -2.958  0.00  0.00    -0.023 A 
ATOM      5  C   UNL     1       2.921  -0.705  -2.330  0.00  0.00    -0.004 A 
ATOM      6  S   UNL     1       4.484  -0.289  -3.046  0.00  0.00    -0.078 S 
ATOM      7  C   UNL     1       4.648  -1.556  -4.135  0.00  0.00    +0.078 A 
ATOM      8  C   UNL     1       3.497  -2.310  -3.953  0.00  0.00    +0.068 A 
ATOM      9  C   UNL     1       2.161   0.028  -1.267  0.00  0.00    +0.046 C 
ENDROOT
BRANCH   1  11
ATOM     10  C   UNL     1      -0.019   1.526   0.010  0.00  0.00    +0.011 C 
ATOM     11  C   UNL     1       0.002  -0.004   0.002  0.00  0.00    -0.035 C 
ATOM     12  C   UNL     1       0.742  -0.511   1.242  0.00  0.00    +0.011 C 
ATOM     13  C   UNL     1      -1.433  -0.534   0.013  0.00  0.00    +0.011 C 
ENDBRANCH   1  11
BRANCH   8  14
ATOM     14  C   UNL     1       3.251  -3.527  -4.729  0.00  0.00    +0.247 C 
ATOM     15  O   UNL     1       2.658  -3.462  -5.790  0.00  0.00    -0.270 OA
ATOM     16  N   UNL     1       3.680  -4.718  -4.269  0.00  0.00    -0.307 N 
ATOM     17  H   UNL     1       4.153  -4.770  -3.423  0.00  0.00    +0.149 HD
BRANCH  16  18
ATOM     18  C   UNL     1       3.433  -5.936  -5.046  0.00  0.00    +0.096 C 
ATOM     19  C   UNL     1       4.551  -6.112  -6.087  0.00  0.00    +0.046 C 
ATOM     20  C   UNL     1       4.443  -7.549  -6.674  0.00  0.00    +0.168 C 
ATOM     21  S   UNL     1       4.063  -8.509  -5.148  0.00  0.00    -0.029 S 
ATOM     22  O   UNL     1       5.279  -8.983  -4.585  0.00  0.00    -0.174 OA
ATOM     23  O   UNL     1       3.018  -9.429  -5.430  0.00  0.00    -0.174 OA
ATOM     24  C   UNL     1       3.404  -7.156  -4.093  0.00  0.00    +0.188 C 
ENDBRANCH  16  18
ENDBRANCH   8  14
BRANCH   7  25
ATOM     25  N   UNL     1       5.690  -1.794  -5.011  0.00  0.00    -0.335 N 
ATOM     26  H   UNL     1       5.665  -2.569  -5.595  0.00  0.00    +0.147 HD
BRANCH  25  27
ATOM     27  C   UNL     1       6.830  -0.876  -5.060  0.00  0.00    +0.136 C 
BRANCH  27  28
ATOM     28  C   UNL     1       7.835  -1.365  -6.106  0.00  0.00    +0.169 C 
BRANCH  28  29
ATOM     29  O   UNL     1       8.290  -2.673  -5.753  0.00  0.00    -0.387 OA
ATOM     30  H   UNL     1       8.729  -2.718  -4.893  0.00  0.00    +0.210 HD
ENDBRANCH  28  29
BRANCH  28  31
ATOM     31  C   UNL     1       9.026  -0.407  -6.156  0.00  0.00    +0.261 C 
BRANCH  31  32
ATOM     32  O   UNL     1       9.907  -0.797  -7.211  0.00  0.00    -0.489 OA
BRANCH  32  33
ATOM     33  C   UNL     1      11.023  -0.044  -7.393  0.00  0.00    +0.121 A 
ATOM     34  C   UNL     1      11.269   1.045  -6.569  0.00  0.00    +0.045 A 
ATOM     35  C   UNL     1      12.405   1.809  -6.756  0.00  0.00    +0.004 A 
ATOM     36  C   UNL     1      13.296   1.489  -7.763  0.00  0.00    +0.000 A 
ATOM     37  C   UNL     1      13.054   0.405  -8.586  0.00  0.00    +0.004 A 
ATOM     38  C   UNL     1      11.922  -0.366  -8.399  0.00  0.00    +0.045 A 
ENDBRANCH  32  33
ENDBRANCH  31  32
ENDBRANCH  28  31
ENDBRANCH  27  28
ENDBRANCH  25  27
ENDBRANCH   7  25
TORSDOF 10
