REMARK  Name = ZINC14944236
REMARK  4 active torsions:
REMARK  status: ('A' for Active; 'I' for Inactive)
REMARK    1  A    between atoms: C_3  and  C_9
REMARK    2  A    between atoms: C_5  and  C_7
REMARK    3  A    between atoms: C_20  and  S_25
REMARK    4  A    between atoms: S_25  and  N_28
REMARK                            x       y       z     vdW  Elec       q    Type
REMARK                         _______ _______ _______ _____ _____    ______ ____
ROOT
ATOM      1  C   UNL     1      -2.394   4.173  -6.317  0.00  0.00    +0.105 C 
ATOM      2  C   UNL     1      -2.078   2.725  -6.649  0.00  0.00    +0.029 C 
ATOM      3  C   UNL     1      -2.691   2.151  -7.934  0.00  0.00    +0.033 C 
ATOM      4  C   UNL     1      -2.827   0.670  -7.574  0.00  0.00    -0.030 C 
ATOM      5  C   UNL     1      -2.927   0.529  -6.258  0.00  0.00    -0.023 C 
ATOM      6  C   UNL     1      -2.901   1.877  -5.633  0.00  0.00    +0.049 C 
ATOM      7  C   UNL     1      -2.331   2.104  -4.288  0.00  0.00    -0.018 A 
ATOM      8  C   UNL     1      -2.288   1.117  -3.327  0.00  0.00    +0.034 A 
ATOM      9  C   UNL     1      -1.760   1.383  -2.077  0.00  0.00    +0.109 A 
ATOM     10  C   UNL     1      -1.282   2.648  -1.783  0.00  0.00    +0.030 A 
ATOM     11  C   UNL     1      -1.315   3.640  -2.741  0.00  0.00    +0.025 A 
ATOM     12  C   UNL     1      -1.836   3.381  -4.003  0.00  0.00    +0.031 A 
ATOM     13  N   UNL     1      -1.842   4.400  -4.964  0.00  0.00    -0.336 N 
ATOM     14  H   UNL     1      -1.478   5.270  -4.738  0.00  0.00    +0.147 HD
ENDROOT
BRANCH   1  17
ATOM     15  C   UNL     1      -5.896   4.954  -7.502  0.00  0.00    +0.001 A 
ATOM     16  C   UNL     1      -4.527   4.754  -7.490  0.00  0.00    +0.005 A 
ATOM     17  C   UNL     1      -3.884   4.394  -6.319  0.00  0.00    -0.026 A 
ATOM     18  C   UNL     1      -4.604   4.244  -5.152  0.00  0.00    +0.020 A 
ATOM     19  C   UNL     1      -5.984   4.450  -5.155  0.00  0.00    +0.063 A 
ATOM     20  C   UNL     1      -6.628   4.807  -6.342  0.00  0.00    +0.015 A 
BRANCH  19  21
ATOM     21  C   UNL     1      -6.762   4.290  -3.909  0.00  0.00    +0.387 C 
ATOM     22  O   UNL     1      -6.199   3.979  -2.878  0.00  0.00    -0.241 OA
ATOM     23  O   UNL     1      -8.094   4.489  -3.916  0.00  0.00    -0.241 OA
ENDBRANCH  19  21
ENDBRANCH   1  17
BRANCH   9  24
ATOM     24  S   UNL     1      -1.702   0.114  -0.856  0.00  0.00    +0.075 S 
ATOM     25  O   UNL     1      -2.713  -0.824  -1.198  0.00  0.00    -0.150 OA
ATOM     26  O   UNL     1      -1.663   0.766   0.406  0.00  0.00    -0.150 OA
BRANCH  24  27
ATOM     27  N   UNL     1      -0.253  -0.668  -1.031  0.00  0.00    -0.184 N 
ATOM     28  C   UNL     1       0.931   0.009  -0.794  0.00  0.00    +0.235 A 
ATOM     29  N   UNL     1       0.917   1.332  -0.724  0.00  0.00    -0.222 NA
ATOM     30  C   UNL     1       2.030   2.008  -0.493  0.00  0.00    +0.116 A 
ATOM     31  C   UNL     1       3.221   1.317  -0.335  0.00  0.00    +0.039 A 
ATOM     32  C   UNL     1       3.201  -0.067  -0.420  0.00  0.00    +0.116 A 
ATOM     33  N   UNL     1       2.052  -0.682  -0.647  0.00  0.00    -0.222 NA
ATOM     34  H   UNL     1      -0.234  -1.599  -1.303  0.00  0.00    +0.177 HD
ENDBRANCH  24  27
ENDBRANCH   9  24
TORSDOF 4
