REMARK  Name = ZINC32535448
REMARK  9 active torsions:
REMARK  status: ('A' for Active; 'I' for Inactive)
REMARK    1  A    between atoms: C_1  and  C_2
REMARK    2  A    between atoms: C_2  and  C_3
REMARK    3  A    between atoms: C_3  and  C_5
REMARK    4  A    between atoms: C_3  and  S_21
REMARK    5  A    between atoms: C_13  and  S_17
REMARK    6  A    between atoms: S_17  and  N_20
REMARK    7  A    between atoms: S_21  and  C_22
REMARK    8  A    between atoms: C_24  and  C_29
REMARK    9  A    between atoms: C_26  and  C_28
REMARK                            x       y       z     vdW  Elec       q    Type
REMARK                         _______ _______ _______ _____ _____    ______ ____
ROOT
ATOM      1  C   UNL     1       3.966  -1.165  -0.277  0.00  0.00    +0.232 C 
ATOM      2  O   UNL     1       4.665  -0.182  -0.402  0.00  0.00    -0.274 OA
ATOM      3  N   UNL     1       2.623  -1.045  -0.304  0.00  0.00    -0.264 N 
ATOM      4  C   UNL     1       2.042   0.201  -0.474  0.00  0.00    +0.165 A 
ATOM      5  N   UNL     1       2.625   1.367  -0.623  0.00  0.00    -0.225 NA
ATOM      6  C   UNL     1       1.927   2.513  -0.780  0.00  0.00    +0.080 A 
ATOM      7  C   UNL     1       2.428   3.825  -0.949  0.00  0.00    +0.031 A 
ATOM      8  C   UNL     1       1.574   4.887  -1.095  0.00  0.00    +0.030 A 
ATOM      9  C   UNL     1       0.197   4.717  -1.084  0.00  0.00    +0.106 A 
ATOM     10  C   UNL     1      -0.327   3.449  -0.917  0.00  0.00    +0.045 A 
ATOM     11  C   UNL     1       0.520   2.378  -0.774  0.00  0.00    +0.043 A 
ATOM     12  S   UNL     1       0.309   0.629  -0.545  0.00  0.00    -0.052 S 
ATOM     13  H   UNL     1       1.989  -1.937  -0.191  0.00  0.00    +0.157 HD
ENDROOT
BRANCH   9  14
ATOM     14  S   UNL     1      -0.872   6.104  -1.274  0.00  0.00    +0.056 S 
ATOM     15  O   UNL     1      -2.112   5.746  -0.682  0.00  0.00    -0.153 OA
ATOM     16  O   UNL     1      -0.133   7.246  -0.863  0.00  0.00    -0.153 OA
BRANCH  14  17
ATOM     17  N   UNL     1      -1.157   6.284  -2.896  0.00  0.00    -0.204 NA
ATOM     18  H   UNL     1      -1.823   7.144  -3.058  0.00  0.00    +0.144 HD
ATOM     19  H   UNL     1      -1.632   5.372  -3.288  0.00  0.00    +0.144 HD
ENDBRANCH  14  17
ENDBRANCH   9  14
BRANCH   1  20
ATOM     20  C   UNL     1       4.597  -2.521  -0.092  0.00  0.00    +0.139 C 
BRANCH  20  22
ATOM     21  C   UNL     1       5.212  -4.651  -1.245  0.00  0.00    +0.005 C 
ATOM     22  C   UNL     1       4.709  -3.220  -1.449  0.00  0.00    +0.020 C 
ENDBRANCH  20  22
BRANCH  20  23
ATOM     23  S   UNL     1       6.248  -2.324   0.623  0.00  0.00    -0.093 S 
BRANCH  23  24
ATOM     24  C   UNL     1       5.819  -1.722   2.222  0.00  0.00    +0.102 A 
ATOM     25  C   UNL     1       6.810  -1.290   3.105  0.00  0.00    +0.063 A 
ATOM     26  C   UNL     1       6.417  -0.823   4.356  0.00  0.00    +0.076 A 
ATOM     27  N   UNL     1       5.119  -0.807   4.662  0.00  0.00    -0.232 NA
ATOM     28  C   UNL     1       4.216  -1.224   3.800  0.00  0.00    +0.128 A 
ATOM     29  N   UNL     1       4.546  -1.669   2.604  0.00  0.00    -0.226 NA
ATOM     30  C   UNL     1       2.761  -1.188   4.191  0.00  0.00    +0.088 C 
BRANCH  26  31
ATOM     31  C   UNL     1       7.428  -0.350   5.334  0.00  0.00    +0.000 A 
ATOM     32  C   UNL     1       8.782  -0.375   5.007  0.00  0.00    +0.010 A 
ATOM     33  C   UNL     1       9.717   0.072   5.919  0.00  0.00    +0.001 A 
ATOM     34  C   UNL     1       9.313   0.532   7.159  0.00  0.00    +0.000 A 
ATOM     35  C   UNL     1       7.970   0.555   7.490  0.00  0.00    +0.001 A 
ATOM     36  C   UNL     1       7.026   0.116   6.585  0.00  0.00    +0.010 A 
ENDBRANCH  26  31
ENDBRANCH  23  24
ENDBRANCH  20  23
ENDBRANCH   1  20
TORSDOF 7
