REMARK  Name = ZINC34975277
REMARK  9 active torsions:
REMARK  status: ('A' for Active; 'I' for Inactive)
REMARK    1  A    between atoms: C_1  and  C_2
REMARK    2  A    between atoms: C_5  and  C_8
REMARK    3  A    between atoms: C_15  and  C_17
REMARK    4  A    between atoms: C_18  and  C_20
REMARK    5  A    between atoms: C_20  and  C_22
REMARK    6  A    between atoms: C_20  and  N_25
REMARK    7  A    between atoms: C_22  and  C_23
REMARK    8  A    between atoms: C_22  and  C_24
REMARK    9  A    between atoms: N_28  and  C_29
REMARK                            x       y       z     vdW  Elec       q    Type
REMARK                         _______ _______ _______ _____ _____    ______ ____
ROOT
ATOM      1  C   UNL     1      -3.051  -6.135   2.031  0.00  0.00    +0.247 C 
ATOM      2  O   UNL     1      -3.241  -6.721   0.984  0.00  0.00    -0.270 OA
ATOM      3  N   UNL     1      -2.073  -6.542   2.864  0.00  0.00    -0.292 N 
ATOM      4  C   UNL     1      -1.837  -5.847   4.138  0.00  0.00    +0.127 C 
ATOM      5  C   UNL     1      -0.370  -5.404   4.190  0.00  0.00    +0.127 C 
ATOM      6  N   UNL     1       0.480  -6.551   3.841  0.00  0.00    -0.297 N 
ATOM      7  C   UNL     1       0.244  -7.245   2.568  0.00  0.00    +0.130 C 
ATOM      8  C   UNL     1      -1.226  -7.692   2.518  0.00  0.00    +0.091 C 
ATOM      9  C   UNL     1      -1.571  -8.177   1.108  0.00  0.00    +0.029 C 
ATOM     10  C   UNL     1       1.458  -6.958   4.674  0.00  0.00    +0.236 C 
ATOM     11  O   UNL     1       2.185  -7.875   4.354  0.00  0.00    -0.274 OA
ENDROOT
BRANCH   1  16
ATOM     12  C   UNL     1      -6.329  -1.618   3.434  0.00  0.00    +0.044 C 
ATOM     13  C   UNL     1      -5.471  -2.800   3.067  0.00  0.00    -0.050 A 
ATOM     14  C   UNL     1      -5.184  -3.057   1.738  0.00  0.00    +0.004 A 
ATOM     15  C   UNL     1      -4.399  -4.138   1.395  0.00  0.00    +0.013 A 
ATOM     16  C   UNL     1      -3.893  -4.974   2.392  0.00  0.00    +0.037 A 
ATOM     17  C   UNL     1      -4.186  -4.709   3.731  0.00  0.00    +0.013 A 
ATOM     18  C   UNL     1      -4.968  -3.622   4.060  0.00  0.00    +0.004 A 
ENDBRANCH   1  16
BRANCH  10  19
ATOM     19  C   UNL     1       1.649  -6.274   6.003  0.00  0.00    +0.163 C 
BRANCH  19  20
ATOM     20  N   UNL     1       3.075  -6.248   6.338  0.00  0.00    -0.288 N 
ATOM     21  C   UNL     1       3.556  -5.299   7.166  0.00  0.00    +0.304 C 
ATOM     22  O   UNL     1       2.805  -4.465   7.636  0.00  0.00    -0.252 OA
ATOM     23  N   UNL     1       4.867  -5.274   7.474  0.00  0.00    -0.268 N 
ATOM     24  H   UNL     1       3.674  -6.913   5.963  0.00  0.00    +0.151 HD
ATOM     25  H   UNL     1       5.473  -5.916   7.071  0.00  0.00    +0.156 HD
BRANCH  23  26
ATOM     26  C   UNL     1       5.357  -4.323   8.377  0.00  0.00    +0.049 A 
ATOM     27  C   UNL     1       4.772  -3.065   8.446  0.00  0.00    +0.024 A 
ATOM     28  C   UNL     1       5.257  -2.128   9.338  0.00  0.00    +0.002 A 
ATOM     29  C   UNL     1       6.324  -2.441  10.161  0.00  0.00    +0.001 A 
ATOM     30  C   UNL     1       6.909  -3.692  10.094  0.00  0.00    +0.017 A 
ATOM     31  C   UNL     1       6.425  -4.636   9.208  0.00  0.00    +0.039 A 
ATOM     32 BR   UNL     1       7.220  -6.350   9.122  0.00  0.00    -0.048 Br
ENDBRANCH  23  26
ENDBRANCH  19  20
BRANCH  19  33
ATOM     33  C   UNL     1       0.886  -7.040   7.085  0.00  0.00    +0.012 C 
ATOM     34  C   UNL     1       0.995  -6.290   8.414  0.00  0.00    +0.009 C 
ATOM     35  C   UNL     1      -0.586  -7.156   6.685  0.00  0.00    +0.009 C 
ENDBRANCH  19  33
ENDBRANCH  10  19
TORSDOF 5
