REMARK  Name = ZINC13979376
REMARK  6 active torsions:
REMARK  status: ('A' for Active; 'I' for Inactive)
REMARK    1  A    between atoms: C_5  and  C_7
REMARK    2  A    between atoms: N_9  and  N_10
REMARK    3  A    between atoms: N_10  and  C_11
REMARK    4  A    between atoms: C_11  and  N_13
REMARK    5  A    between atoms: C_14  and  C_16
REMARK    6  A    between atoms: C_17  and  C_18
REMARK                            x       y       z     vdW  Elec       q    Type
REMARK                         _______ _______ _______ _____ _____    ______ ____
ROOT
ATOM      1  N   UNL     1       4.712   1.173  -0.037  0.00  0.00    -0.245 N 
ATOM      2  H   UNL     1       5.545   1.669  -0.042  0.00  0.00    +0.172 HD
ENDROOT
BRANCH   1   5
ATOM      3  C   UNL     1       5.907  -0.886  -0.059  0.00  0.00    +0.261 C 
ATOM      4  O   UNL     1       6.951  -0.264  -0.066  0.00  0.00    -0.269 OA
ATOM      5  N   UNL     1       4.731  -0.228  -0.044  0.00  0.00    -0.231 N 
ATOM      6  H   UNL     1       3.897  -0.724  -0.039  0.00  0.00    +0.173 HD
BRANCH   3  11
ATOM      7  C   UNL     1       4.755  -4.460  -0.067  0.00  0.00    +0.001 A 
ATOM      8  C   UNL     1       5.964  -5.133  -0.083  0.00  0.00    +0.001 A 
ATOM      9  C   UNL     1       7.155  -4.429  -0.090  0.00  0.00    +0.015 A 
ATOM     10  C   UNL     1       7.144  -3.049  -0.083  0.00  0.00    +0.026 A 
ATOM     11  C   UNL     1       5.927  -2.364  -0.067  0.00  0.00    +0.051 A 
ATOM     12  C   UNL     1       4.729  -3.081  -0.054  0.00  0.00    +0.014 A 
ATOM     13  I   UNL     1       8.948  -1.984  -0.093  0.00  0.00    -0.043 I 
ENDBRANCH   3  11
ENDBRANCH   1   5
BRANCH   1  14
ATOM     14  C   UNL     1       3.536   1.831  -0.022  0.00  0.00    +0.153 C 
ATOM     15  S   UNL     1       3.512   3.543  -0.013  0.00  0.00    -0.017 S 
BRANCH  14  16
ATOM     16  N   UNL     1       2.378   1.141  -0.015  0.00  0.00    -0.263 N 
ATOM     17  C   UNL     1       1.202   1.799   0.000  0.00  0.00    +0.242 C 
ATOM     18  O   UNL     1       1.185   3.017   0.007  0.00  0.00    -0.270 OA
ATOM     19  H   UNL     1       2.391   0.171  -0.020  0.00  0.00    +0.157 HD
BRANCH  17  20
ATOM     20  C   UNL     1      -0.013   1.076   0.008  0.00  0.00    +0.069 C 
ATOM     21  C   UNL     1      -1.197   1.738   0.017  0.00  0.00    +0.020 C 
BRANCH  21  22
ATOM     22  C   UNL     1      -2.413   1.014   0.019  0.00  0.00    +0.012 A 
ATOM     23  C   UNL     1      -3.718   1.493   0.028  0.00  0.00    +0.015 A 
ATOM     24  C   UNL     1      -4.724   0.560   0.027  0.00  0.00    +0.008 A 
ATOM     25  C   UNL     1      -4.404  -0.762   0.018  0.00  0.00    +0.046 A 
ATOM     26  S   UNL     1      -2.671  -0.751   0.003  0.00  0.00    -0.097 S 
ENDBRANCH  21  22
ENDBRANCH  17  20
ENDBRANCH  14  16
ENDBRANCH   1  14
TORSDOF 6
