REMARK  Name = ZINC38905308
REMARK  8 active torsions:
REMARK  status: ('A' for Active; 'I' for Inactive)
REMARK    1  A    between atoms: C_1  and  O_2
REMARK    2  A    between atoms: O_2  and  C_3
REMARK    3  A    between atoms: C_6  and  N_32
REMARK    4  A    between atoms: C_8  and  N_9
REMARK    5  A    between atoms: C_10  and  C_12
REMARK    6  A    between atoms: N_17  and  C_19
REMARK    7  A    between atoms: C_19  and  C_20
REMARK    8  A    between atoms: C_22  and  C_25
REMARK                            x       y       z     vdW  Elec       q    Type
REMARK                         _______ _______ _______ _____ _____    ______ ____
ROOT
ATOM      1  C   UNL     1       1.147  -4.923   0.181  0.00  0.00    +0.059 C 
ATOM      2  C   UNL     1       2.002  -4.676  -1.065  0.00  0.00    +0.009 C 
ATOM      3  C   UNL     1       3.257  -5.552  -0.993  0.00  0.00    -0.018 C 
ATOM      4  C   UNL     1       2.841  -7.018  -0.856  0.00  0.00    -0.078 C 
ATOM      5  N   UNL     1       2.049  -7.194   0.367  0.00  0.00    +0.386 N 
ATOM      6  C   UNL     1       0.810  -6.412   0.275  0.00  0.00    -0.065 C 
ATOM      7  H   UNL     1       2.585  -6.879   1.162  0.00  0.00    -0.081 HD
ENDROOT
BRANCH   1   9
ATOM      8  N   UNL     1      -0.074  -2.780  -0.012  0.00  0.00    -0.282 N 
ATOM      9  C   UNL     1      -0.127  -4.124   0.083  0.00  0.00    +0.219 C 
ATOM     10  O   UNL     1      -1.200  -4.689   0.090  0.00  0.00    -0.275 OA
ATOM     11  H   UNL     1       0.783  -2.334  -0.098  0.00  0.00    +0.155 HD
BRANCH   8  17
ATOM     12  C   UNL     1      -1.294  -0.766  -0.572  0.00  0.00    +0.141 A 
ATOM     13  C   UNL     1      -2.468  -0.030  -0.548  0.00  0.00    +0.050 A 
ATOM     14  C   UNL     1      -3.596  -0.546   0.062  0.00  0.00    +0.036 A 
ATOM     15  C   UNL     1      -3.557  -1.798   0.649  0.00  0.00    +0.128 A 
ATOM     16  C   UNL     1      -2.391  -2.538   0.629  0.00  0.00    +0.059 A 
ATOM     17  C   UNL     1      -1.256  -2.029   0.014  0.00  0.00    +0.078 A 
BRANCH  15  18
ATOM     18  N   UNL     1      -4.768  -2.345   1.301  0.00  0.00    +0.056 N 
ATOM     19  O   UNL     1      -5.789  -1.698   1.320  0.00  0.00    -0.126 OA
ATOM     20  O   UNL     1      -4.736  -3.439   1.815  0.00  0.00    -0.126 OA
ENDBRANCH  15  18
BRANCH  12  22
ATOM     21  C   UNL     1      -0.296   1.042  -1.751  0.00  0.00    +0.277 C 
ATOM     22  O   UNL     1      -0.184  -0.259  -1.171  0.00  0.00    -0.493 OA
ENDBRANCH  12  22
ENDBRANCH   8  17
ENDBRANCH   1   9
BRANCH   5  23
ATOM     23  C   UNL     1       1.718  -8.615   0.534  0.00  0.00    +0.022 C 
BRANCH  23  24
ATOM     24  C   UNL     1       2.984  -9.402   0.762  0.00  0.00    +0.211 A 
ATOM     25  N   UNL     1       3.523  -9.658   1.919  0.00  0.00    -0.193 NA
ATOM     26  C   UNL     1       4.644 -10.382   1.755  0.00  0.00    +0.202 A 
ATOM     27  N   UNL     1       4.823 -10.592   0.474  0.00  0.00    -0.056 NA
ATOM     28  O   UNL     1       3.740  -9.960  -0.192  0.00  0.00    -0.340 OA
BRANCH  26  29
ATOM     29  C   UNL     1       5.531 -10.864   2.843  0.00  0.00    +0.023 A 
ATOM     30  C   UNL     1       5.226 -10.577   4.172  0.00  0.00    +0.013 A 
ATOM     31  C   UNL     1       6.054 -11.027   5.180  0.00  0.00    +0.016 A 
ATOM     32  C   UNL     1       7.186 -11.762   4.873  0.00  0.00    +0.018 A 
ATOM     33  C   UNL     1       7.494 -12.049   3.554  0.00  0.00    +0.016 A 
ATOM     34  C   UNL     1       6.669 -11.609   2.539  0.00  0.00    +0.013 A 
ATOM     35 BR   UNL     1       8.316 -12.375   6.259  0.00  0.00    -0.050 Br
ENDBRANCH  26  29
ENDBRANCH  23  24
ENDBRANCH   5  23
TORSDOF 7
