REMARK  Name = ZINC06146821
REMARK  4 active torsions:
REMARK  status: ('A' for Active; 'I' for Inactive)
REMARK    1  A    between atoms: C_3  and  N_15
REMARK    2  A    between atoms: C_6  and  C_7
REMARK    3  A    between atoms: N_15  and  S_16
REMARK    4  A    between atoms: S_16  and  C_19
REMARK                            x       y       z     vdW  Elec       q    Type
REMARK                         _______ _______ _______ _____ _____    ______ ____
ROOT
ATOM      1  C   UNL     1       6.262   1.338  -3.387  0.00  0.00    +0.015 A 
ATOM      2  C   UNL     1       5.916   0.328  -2.518  0.00  0.00    +0.025 A 
ATOM      3  C   UNL     1       4.617  -0.172  -2.512  0.00  0.00    +0.048 A 
ATOM      4  C   UNL     1       3.665   0.342  -3.389  0.00  0.00    +0.025 A 
ATOM      5  C   UNL     1       4.003   1.355  -4.256  0.00  0.00    +0.015 A 
ATOM      6  C   UNL     1       5.307   1.860  -4.265  0.00  0.00    +0.037 A 
ENDROOT
BRANCH   6   7
ATOM      7  C   UNL     1       5.674   2.942  -5.197  0.00  0.00    +0.250 C 
ATOM      8  O   UNL     1       6.809   3.380  -5.204  0.00  0.00    -0.270 OA
ATOM      9  N   UNL     1       4.753   3.445  -6.043  0.00  0.00    -0.261 N 
ATOM     10  C   UNL     1       5.099   4.463  -6.921  0.00  0.00    +0.165 A 
ATOM     11  N   UNL     1       6.262   5.067  -7.073  0.00  0.00    -0.233 NA
ATOM     12  C   UNL     1       6.423   6.023  -7.968  0.00  0.00    +0.120 A 
ATOM     13  C   UNL     1       5.360   6.385  -8.726  0.00  0.00    +0.068 A 
ATOM     14  S   UNL     1       4.110   5.274  -8.097  0.00  0.00    -0.061 S 
ATOM     15  H   UNL     1       3.727   3.049  -6.037  0.00  0.00    +0.157 HD
ENDBRANCH   6   7
BRANCH   3  16
ATOM     16  N   UNL     1       4.270  -1.193  -1.633  0.00  0.00    -0.216 N 
ATOM     17  H   UNL     1       4.128  -2.217  -2.008  0.00  0.00    +0.174 HD
BRANCH  16  18
ATOM     18  S   UNL     1       4.073  -0.866  -0.022  0.00  0.00    +0.072 S 
ATOM     19  O   UNL     1       5.231  -0.155   0.393  0.00  0.00    -0.150 OA
ATOM     20  O   UNL     1       3.664  -2.081   0.592  0.00  0.00    -0.150 OA
BRANCH  18  21
ATOM     21  C   UNL     1       2.717   0.251   0.120  0.00  0.00    +0.112 A 
ATOM     22  C   UNL     1       1.424  -0.235   0.161  0.00  0.00    +0.032 A 
ATOM     23  C   UNL     1       0.358   0.638   0.271  0.00  0.00    +0.051 A 
ATOM     24  C   UNL     1       0.584   2.005   0.341  0.00  0.00    +0.162 A 
ATOM     25  C   UNL     1       1.884   2.493   0.303  0.00  0.00    +0.164 A 
ATOM     26  C   UNL     1       2.949   1.611   0.191  0.00  0.00    +0.078 A 
ATOM     27  O   UNL     1       2.129   3.830   0.378  0.00  0.00    -0.485 OA
ATOM     28  C   UNL     1       1.024   4.702   0.113  0.00  0.00    +0.270 C 
ATOM     29  C   UNL     1      -0.194   4.184   0.889  0.00  0.00    +0.270 C 
ATOM     30  O   UNL     1      -0.476   2.853   0.441  0.00  0.00    -0.485 OA
ENDBRANCH  18  21
ENDBRANCH  16  18
ENDBRANCH   3  16
TORSDOF 4
