REMARK  Name = ZINC33767465
REMARK  11 active torsions:
REMARK  status: ('A' for Active; 'I' for Inactive)
REMARK    1  A    between atoms: C_1  and  C_2
REMARK    2  A    between atoms: C_7  and  N_12
REMARK    3  A    between atoms: C_9  and  C_11
REMARK    4  A    between atoms: C_13  and  C_15
REMARK    5  A    between atoms: C_23  and  C_35
REMARK    6  A    between atoms: N_29  and  C_30
REMARK    7  A    between atoms: C_30  and  C_31
REMARK    8  A    between atoms: C_31  and  C_32
REMARK    9  A    between atoms: C_32  and  C_33
REMARK   10  A    between atoms: C_32  and  C_34
REMARK   11  A    between atoms: N_37  and  C_38
REMARK                            x       y       z     vdW  Elec       q    Type
REMARK                         _______ _______ _______ _____ _____    ______ ____
ROOT
ATOM      1  C   UNL     1      -2.507   7.272  -0.725  0.00  0.00    +0.198 C 
ATOM      2  C   UNL     1      -3.161   7.802   0.514  0.00  0.00    +0.127 C 
ATOM      3  C   UNL     1      -4.468   7.101   0.837  0.00  0.00    +0.009 C 
ATOM      4  C   UNL     1      -4.914   7.667   1.949  0.00  0.00    +0.004 C 
ATOM      5  C   UNL     1      -3.895   8.768   2.270  0.00  0.00    +0.155 C 
ATOM      6  O   UNL     1      -2.635   8.153   1.772  0.00  0.00    -0.358 OA
ATOM      7  C   UNL     1      -4.202   9.841   1.155  0.00  0.00    +0.123 C 
ATOM      8  C   UNL     1      -3.486   9.250  -0.032  0.00  0.00    +0.128 C 
ATOM      9  C   UNL     1      -4.068   8.912  -1.343  0.00  0.00    +0.223 C 
ATOM     10  O   UNL     1      -4.959   9.507  -1.913  0.00  0.00    -0.275 OA
ATOM     11  N   UNL     1      -3.409   7.795  -1.798  0.00  0.00    -0.287 N 
ENDROOT
BRANCH   1  13
ATOM     12  N   UNL     1      -1.485   5.103  -0.118  0.00  0.00    -0.311 N 
ATOM     13  C   UNL     1      -2.491   5.765  -0.722  0.00  0.00    +0.237 C 
ATOM     14  O   UNL     1      -3.384   5.148  -1.264  0.00  0.00    -0.274 OA
ATOM     15  H   UNL     1      -0.675   5.662   0.374  0.00  0.00    +0.149 HD
BRANCH  12  21
ATOM     16  C   UNL     1       0.166   1.109   2.284  0.00  0.00    +0.008 C 
ATOM     17  C   UNL     1      -0.644   1.608   1.085  0.00  0.00    -0.009 C 
ATOM     18  C   UNL     1      -0.003   1.103  -0.209  0.00  0.00    +0.003 C 
ATOM     19  C   UNL     1      -0.812   1.603  -1.407  0.00  0.00    +0.002 C 
ATOM     20  C   UNL     1      -0.829   3.133  -1.410  0.00  0.00    +0.022 C 
ATOM     21  C   UNL     1      -1.469   3.638  -0.116  0.00  0.00    +0.076 C 
ATOM     22  C   UNL     1      -0.660   3.138   1.083  0.00  0.00    +0.009 C 
ATOM     23  C   UNL     1       0.774   3.663   0.985  0.00  0.00    +0.009 C 
ENDBRANCH  12  21
ENDBRANCH   1  13
BRANCH   7  24
ATOM     24  C   UNL     1      -5.684   9.944   0.897  0.00  0.00    +0.224 C 
ATOM     25  O   UNL     1      -6.222   9.166   0.138  0.00  0.00    -0.275 OA
ATOM     26  N   UNL     1      -6.410  10.900   1.510  0.00  0.00    -0.285 N 
ATOM     27  H   UNL     1      -5.912  11.645   2.148  0.00  0.00    +0.155 HD
BRANCH  26  28
ATOM     28  C   UNL     1      -7.797  10.946   1.334  0.00  0.00    +0.033 A 
ATOM     29  C   UNL     1      -8.355  10.602   0.109  0.00  0.00    +0.025 A 
ATOM     30  C   UNL     1      -9.725  10.643  -0.060  0.00  0.00    +0.022 A 
ATOM     31  C   UNL     1     -10.541  11.036   0.986  0.00  0.00    +0.041 A 
ATOM     32  C   UNL     1      -9.988  11.384   2.205  0.00  0.00    +0.022 A 
ATOM     33  C   UNL     1      -8.619  11.340   2.382  0.00  0.00    +0.025 A 
ATOM     34 CL   UNL     1     -12.263  11.093   0.767  0.00  0.00    -0.084 Cl
ENDBRANCH  26  28
ENDBRANCH   7  24
BRANCH  11  35
ATOM     35  C   UNL     1      -3.566   7.207  -3.131  0.00  0.00    +0.109 C 
BRANCH  35  36
ATOM     36  C   UNL     1      -2.474   7.744  -4.057  0.00  0.00    +0.022 C 
BRANCH  36  37
ATOM     37  C   UNL     1      -2.707   7.223  -5.476  0.00  0.00    -0.016 C 
ATOM     38  C   UNL     1      -4.017   7.794  -6.021  0.00  0.00    +0.007 C 
ATOM     39  C   UNL     1      -1.548   7.657  -6.376  0.00  0.00    +0.007 C 
ENDBRANCH  36  37
ENDBRANCH  35  36
ENDBRANCH  11  35
TORSDOF 7
