REMARK  Name = ZINC09700031
REMARK  5 active torsions:
REMARK  status: ('A' for Active; 'I' for Inactive)
REMARK    1  A    between atoms: C_1  and  C_2
REMARK    2  A    between atoms: C_12  and  C_14
REMARK    3  A    between atoms: C_14  and  C_15
REMARK    4  A    between atoms: C_21  and  C_23
REMARK    5  A    between atoms: N_28  and  C_30
REMARK                            x       y       z     vdW  Elec       q    Type
REMARK                         _______ _______ _______ _____ _____    ______ ____
ROOT
ATOM      1  C   UNL     1       3.400  11.205   1.762  0.00  0.00    +0.059 A 
ATOM      2  C   UNL     1       4.332  10.666   2.586  0.00  0.00    +0.072 A 
ATOM      3  S   UNL     1       4.150   8.931   2.202  0.00  0.00    -0.060 S 
ATOM      4  C   UNL     1       2.897   9.092   1.012  0.00  0.00    +0.165 A 
ATOM      5  N   UNL     1       2.701  10.396   0.990  0.00  0.00    -0.229 NA
ATOM      6  N   UNL     1       2.259   8.101   0.275  0.00  0.00    -0.264 N 
ATOM      7  C   UNL     1       2.605   6.809   0.443  0.00  0.00    +0.224 C 
ATOM      8  O   UNL     1       3.473   6.511   1.236  0.00  0.00    -0.275 OA
ATOM      9  H   UNL     1       1.565   8.338  -0.359  0.00  0.00    +0.157 HD
ENDROOT
BRANCH   7  10
ATOM     10  C   UNL     1       1.913   5.734  -0.356  0.00  0.00    +0.102 C 
ATOM     11  C   UNL     1       0.399   5.703  -0.046  0.00  0.00    +0.110 C 
ATOM     12  C   UNL     1       0.045   4.232  -0.073  0.00  0.00    +0.221 C 
ATOM     13  O   UNL     1      -1.082   3.790  -0.156  0.00  0.00    -0.275 OA
ATOM     14  N   UNL     1       1.160   3.487   0.009  0.00  0.00    -0.271 N 
ATOM     15  C   UNL     1       2.358   4.329   0.114  0.00  0.00    +0.127 C 
BRANCH  14  16
ATOM     16  C   UNL     1       1.177   2.087   0.002  0.00  0.00    +0.036 A 
ATOM     17  C   UNL     1      -0.016   1.377   0.025  0.00  0.00    +0.026 A 
ATOM     18  C   UNL     1       0.002  -0.004   0.017  0.00  0.00    +0.040 A 
ATOM     19  C   UNL     1       1.210  -0.681  -0.013  0.00  0.00    +0.124 A 
ATOM     20  C   UNL     1       2.401   0.025  -0.036  0.00  0.00    +0.040 A 
ATOM     21  C   UNL     1       2.387   1.406  -0.029  0.00  0.00    +0.026 A 
ATOM     22  F   UNL     1       1.226  -2.032  -0.021  0.00  0.00    -0.205 F 
ENDBRANCH  14  16
ENDBRANCH   7  10
BRANCH   1  23
ATOM     23  C   UNL     1       3.168  12.694   1.728  0.00  0.00    +0.152 C 
BRANCH  23  35
ATOM     24  C   UNL     1       3.890  17.162  -7.219  0.00  0.00    +0.044 C 
ATOM     25  C   UNL     1       3.812  16.370  -5.940  0.00  0.00    -0.049 A 
ATOM     26  C   UNL     1       4.032  15.000  -5.950  0.00  0.00    +0.005 A 
ATOM     27  C   UNL     1       3.965  14.256  -4.801  0.00  0.00    +0.029 A 
ATOM     28  C   UNL     1       3.669  14.867  -3.560  0.00  0.00    +0.080 A 
ATOM     29  C   UNL     1       3.451  16.263  -3.589  0.00  0.00    +0.041 A 
ATOM     30  C   UNL     1       3.519  17.000  -4.745  0.00  0.00    +0.020 A 
ATOM     31  S   UNL     1       3.119  16.629  -1.882  0.00  0.00    -0.052 S 
ATOM     32  C   UNL     1       3.285  14.962  -1.259  0.00  0.00    +0.165 A 
ATOM     33  N   UNL     1       3.572  14.284  -2.346  0.00  0.00    -0.225 NA
ATOM     34  N   UNL     1       3.150  14.503   0.041  0.00  0.00    -0.264 N 
ATOM     35  C   UNL     1       3.315  13.193   0.314  0.00  0.00    +0.224 C 
ATOM     36  O   UNL     1       3.581  12.417  -0.579  0.00  0.00    -0.275 OA
ATOM     37  H   UNL     1       2.937  15.124   0.755  0.00  0.00    +0.157 HD
ENDBRANCH  23  35
ENDBRANCH   1  23
TORSDOF 4
