REMARK  Name = ZINC16044748
REMARK  7 active torsions:
REMARK  status: ('A' for Active; 'I' for Inactive)
REMARK    1  A    between atoms: C_1  and  C_2
REMARK    2  A    between atoms: C_5  and  C_32
REMARK    3  A    between atoms: N_8  and  S_10
REMARK    4  A    between atoms: S_10  and  C_13
REMARK    5  A    between atoms: C_16  and  C_19
REMARK    6  A    between atoms: N_21  and  N_22
REMARK    7  A    between atoms: C_23  and  C_25
REMARK                            x       y       z     vdW  Elec       q    Type
REMARK                         _______ _______ _______ _____ _____    ______ ____
ROOT
ATOM      1  C   UNL     1       7.231  -0.167  -0.067  0.00  0.00    +0.106 A 
ATOM      2  C   UNL     1       7.216   1.217  -0.060  0.00  0.00    +0.029 A 
ATOM      3  C   UNL     1       6.015   1.896  -0.045  0.00  0.00    +0.015 A 
ATOM      4  C   UNL     1       4.814   1.185  -0.037  0.00  0.00    +0.038 A 
ATOM      5  C   UNL     1       4.837  -0.210  -0.039  0.00  0.00    +0.015 A 
ATOM      6  C   UNL     1       6.044  -0.878  -0.060  0.00  0.00    +0.029 A 
ENDROOT
BRANCH   4   7
ATOM      7  C   UNL     1       3.524   1.907  -0.021  0.00  0.00    +0.260 C 
ATOM      8  O   UNL     1       3.507   3.122  -0.015  0.00  0.00    -0.269 OA
ATOM      9  N   UNL     1       2.366   1.217  -0.014  0.00  0.00    -0.230 N 
ATOM     10  H   UNL     1       2.379   0.247  -0.019  0.00  0.00    +0.173 HD
BRANCH   9  11
ATOM     11  N   UNL     1       1.143   1.901   0.001  0.00  0.00    -0.230 N 
ATOM     12  C   UNL     1      -0.014   1.211   0.009  0.00  0.00    +0.260 C 
ATOM     13  O   UNL     1       0.002  -0.004   0.002  0.00  0.00    -0.269 OA
ATOM     14  H   UNL     1       1.130   2.871   0.007  0.00  0.00    +0.173 HD
BRANCH  12  15
ATOM     15  C   UNL     1      -1.304   1.933   0.019  0.00  0.00    +0.038 A 
ATOM     16  C   UNL     1      -1.327   3.329   0.032  0.00  0.00    +0.014 A 
ATOM     17  C   UNL     1      -2.533   3.996   0.035  0.00  0.00    +0.016 A 
ATOM     18  C   UNL     1      -3.721   3.285   0.037  0.00  0.00    +0.018 A 
ATOM     19  C   UNL     1      -3.706   1.900   0.030  0.00  0.00    +0.016 A 
ATOM     20  C   UNL     1      -2.505   1.221   0.021  0.00  0.00    +0.014 A 
ATOM     21 BR   UNL     1      -5.372   4.208   0.050  0.00  0.00    -0.050 Br
ENDBRANCH  12  15
ENDBRANCH   9  11
ENDBRANCH   4   7
BRANCH   1  22
ATOM     22  S   UNL     1       8.769  -1.027  -0.086  0.00  0.00    +0.061 S 
ATOM     23  O   UNL     1       8.510  -2.309  -0.641  0.00  0.00    -0.153 OA
ATOM     24  O   UNL     1       9.726  -0.135  -0.641  0.00  0.00    -0.153 OA
BRANCH  22  30
ATOM     25  C   UNL     1       8.003   0.815   3.178  0.00  0.00    +0.009 C 
ATOM     26  C   UNL     1       9.316   0.099   3.505  0.00  0.00    +0.002 C 
ATOM     27  C   UNL     1       9.020  -1.168   4.311  0.00  0.00    +0.009 C 
ATOM     28  C   UNL     1       8.095  -2.083   3.505  0.00  0.00    +0.002 C 
ATOM     29  C   UNL     1       8.793  -2.490   2.203  0.00  0.00    +0.112 C 
ATOM     30  N   UNL     1       9.210  -1.274   1.491  0.00  0.00    -0.176 NA
ATOM     31  C   UNL     1      10.032  -0.286   2.202  0.00  0.00    +0.112 C 
ATOM     32  C   UNL     1       7.773  -3.334   4.324  0.00  0.00    +0.009 C 
ENDBRANCH  22  30
ENDBRANCH   1  22
TORSDOF 5
