REMARK  Name = ZINC44838634
REMARK  9 active torsions:
REMARK  status: ('A' for Active; 'I' for Inactive)
REMARK    1  A    between atoms: C_1  and  C_2
REMARK    2  A    between atoms: C_5  and  S_8
REMARK    3  A    between atoms: S_8  and  N_11
REMARK    4  A    between atoms: N_11  and  C_12
REMARK    5  A    between atoms: C_15  and  C_19
REMARK    6  A    between atoms: N_21  and  C_22
REMARK    7  A    between atoms: C_25  and  C_28
REMARK    8  A    between atoms: C_28  and  O_30
REMARK    9  A    between atoms: O_30  and  C_31
REMARK                            x       y       z     vdW  Elec       q    Type
REMARK                         _______ _______ _______ _____ _____    ______ ____
ROOT
ATOM      1  C   UNL     1       1.977  -6.351  -0.066  0.00  0.00    +0.093 A 
ATOM      2  C   UNL     1       0.967  -7.309  -0.060  0.00  0.00    +0.029 A 
ATOM      3  C   UNL     1       1.286  -8.648  -0.060  0.00  0.00    +0.015 A 
ATOM      4  C   UNL     1       2.626  -9.046  -0.067  0.00  0.00    +0.039 A 
ATOM      5  C   UNL     1       3.639  -8.083  -0.074  0.00  0.00    +0.035 A 
ATOM      6  C   UNL     1       3.314  -6.745  -0.079  0.00  0.00    +0.066 A 
ATOM      7 CL   UNL     1       4.570  -5.547  -0.095  0.00  0.00    -0.081 Cl
ENDROOT
BRANCH   4   8
ATOM      8  C   UNL     1       2.970 -10.480  -0.067  0.00  0.00    +0.248 C 
ATOM      9  O   UNL     1       2.088 -11.317  -0.060  0.00  0.00    -0.270 OA
ATOM     10  N   UNL     1       4.262 -10.863  -0.074  0.00  0.00    -0.282 N 
ATOM     11  H   UNL     1       4.965 -10.198  -0.146  0.00  0.00    +0.155 HD
BRANCH  10  12
ATOM     12  C   UNL     1       4.589 -12.214   0.023  0.00  0.00    +0.034 A 
ATOM     13  C   UNL     1       5.727 -12.605   0.723  0.00  0.00    +0.024 A 
ATOM     14  C   UNL     1       6.052 -13.938   0.821  0.00  0.00    +0.017 A 
ATOM     15  C   UNL     1       5.239 -14.901   0.217  0.00  0.00    +0.059 A 
ATOM     16  C   UNL     1       4.096 -14.505  -0.485  0.00  0.00    +0.017 A 
ATOM     17  C   UNL     1       3.774 -13.170  -0.575  0.00  0.00    +0.024 A 
BRANCH  15  18
ATOM     18  C   UNL     1       5.585 -16.331   0.319  0.00  0.00    +0.339 C 
ATOM     19  O   UNL     1       6.578 -16.673   0.929  0.00  0.00    -0.245 OA
BRANCH  18  20
ATOM     20  O   UNL     1       4.799 -17.258  -0.264  0.00  0.00    -0.464 OA
ATOM     21  C   UNL     1       5.195 -18.624  -0.125  0.00  0.00    +0.280 C 
ENDBRANCH  18  20
ENDBRANCH  15  18
ENDBRANCH  10  12
ENDBRANCH   4   8
BRANCH   1  22
ATOM     22  N   UNL     1       1.652  -4.999  -0.066  0.00  0.00    -0.096 NA
BRANCH  22  23
ATOM     23  S   UNL     1       0.064  -4.529  -0.050  0.00  0.00    +0.092 S 
ATOM     24  O   UNL     1      -0.469  -4.940   1.201  0.00  0.00    -0.148 OA
ATOM     25  O   UNL     1      -0.494  -4.945  -1.289  0.00  0.00    -0.148 OA
BRANCH  23  30
ATOM     26  C   UNL     1      -0.016   1.504  -0.062  0.00  0.00    +0.044 C 
ATOM     27  C   UNL     1       0.004  -0.003  -0.059  0.00  0.00    -0.050 A 
ATOM     28  C   UNL     1       0.002  -0.697  -1.255  0.00  0.00    +0.005 A 
ATOM     29  C   UNL     1       0.020  -2.079  -1.252  0.00  0.00    +0.029 A 
ATOM     30  C   UNL     1       0.042  -2.767  -0.054  0.00  0.00    +0.110 A 
ATOM     31  C   UNL     1       0.045  -2.074   1.142  0.00  0.00    +0.029 A 
ATOM     32  C   UNL     1       0.030  -0.692   1.139  0.00  0.00    +0.005 A 
ENDBRANCH  23  30
ENDBRANCH  22  23
ENDBRANCH   1  22
TORSDOF 7
