REMARK  Name = ZINC67413689
REMARK  8 active torsions:
REMARK  status: ('A' for Active; 'I' for Inactive)
REMARK    1  A    between atoms: C_1  and  C_2
REMARK    2  A    between atoms: C_5  and  N_8
REMARK    3  A    between atoms: C_12  and  C_14
REMARK    4  A    between atoms: C_14  and  C_16
REMARK    5  A    between atoms: C_14  and  N_17
REMARK    6  A    between atoms: C_21  and  C_24
REMARK    7  A    between atoms: C_24  and  N_25
REMARK    8  A    between atoms: C_26  and  C_28
REMARK                            x       y       z     vdW  Elec       q    Type
REMARK                         _______ _______ _______ _____ _____    ______ ____
ROOT
ATOM      1  N   UNL     1       1.473  -4.088   0.289  0.00  0.00    -0.269 N 
ATOM      2  C   UNL     1       0.932  -4.804   1.294  0.00  0.00    +0.310 C 
ATOM      3  O   UNL     1       0.378  -4.237   2.215  0.00  0.00    -0.252 OA
ATOM      4  N   UNL     1       1.005  -6.150   1.278  0.00  0.00    -0.241 N 
ATOM      5  C   UNL     1       0.463  -6.866   2.283  0.00  0.00    +0.207 C 
ATOM      6  O   UNL     1      -0.089  -6.300   3.202  0.00  0.00    -0.277 OA
ATOM      7  H   UNL     1       1.848  -4.541  -0.482  0.00  0.00    +0.156 HD
ATOM      8  H   UNL     1       1.447  -6.603   0.543  0.00  0.00    +0.159 HD
ENDROOT
BRANCH   1  13
ATOM      9  C   UNL     1       1.563   1.578   0.570  0.00  0.00    +0.044 C 
ATOM     10  C   UNL     1       1.539   0.073   0.495  0.00  0.00    -0.050 A 
ATOM     11  C   UNL     1       1.654  -0.677   1.651  0.00  0.00    +0.005 A 
ATOM     12  C   UNL     1       1.632  -2.057   1.587  0.00  0.00    +0.023 A 
ATOM     13  C   UNL     1       1.495  -2.690   0.358  0.00  0.00    +0.035 A 
ATOM     14  C   UNL     1       1.379  -1.934  -0.801  0.00  0.00    +0.023 A 
ATOM     15  C   UNL     1       1.396  -0.555  -0.728  0.00  0.00    +0.005 A 
ENDBRANCH   1  13
BRANCH   5  16
ATOM     16  C   UNL     1       0.545  -8.371   2.265  0.00  0.00    +0.017 C 
ATOM     17  C   UNL     1      -0.656  -8.938   1.505  0.00  0.00    -0.004 C 
BRANCH  16  18
ATOM     18  N   UNL     1       0.536  -8.878   3.644  0.00  0.00    +0.387 N 
ATOM     19  C   UNL     1       1.721  -8.382   4.354  0.00  0.00    -0.078 C 
ATOM     20  C   UNL     1       1.675  -8.841   5.813  0.00  0.00    -0.018 C 
ATOM     21  C   UNL     1       1.652 -10.372   5.861  0.00  0.00    +0.001 C 
ATOM     22  C   UNL     1       0.454 -10.880   5.054  0.00  0.00    -0.011 C 
ATOM     23  C   UNL     1       0.545 -10.346   3.623  0.00  0.00    -0.073 C 
ATOM     24  H   UNL     1      -0.296  -8.555   4.115  0.00  0.00    -0.081 HD
BRANCH  22  25
ATOM     25  C   UNL     1       0.466 -12.410   5.031  0.00  0.00    +0.105 C 
BRANCH  25  26
ATOM     26  N   UNL     1       0.263 -12.920   6.389  0.00  0.00    -0.315 N 
ATOM     27  C   UNL     1       0.237 -14.249   6.613  0.00  0.00    +0.210 C 
ATOM     28  O   UNL     1       0.380 -15.023   5.689  0.00  0.00    -0.276 OA
ATOM     29  C   UNL     1       0.028 -14.774   8.010  0.00  0.00    +0.109 C 
ATOM     30  H   UNL     1       0.148 -12.302   7.128  0.00  0.00    +0.149 HD
ENDBRANCH  25  26
ENDBRANCH  22  25
ENDBRANCH  16  18
ENDBRANCH   5  16
TORSDOF 5
