REMARK  Name = ZINC59135137
REMARK  6 active torsions:
REMARK  status: ('A' for Active; 'I' for Inactive)
REMARK    1  A    between atoms: C_1  and  C_2
REMARK    2  A    between atoms: C_5  and  C_8
REMARK    3  A    between atoms: C_8  and  O_9
REMARK    4  A    between atoms: O_9  and  C_10
REMARK    5  A    between atoms: C_13  and  C_17
REMARK    6  A    between atoms: N_24  and  C_27
REMARK                            x       y       z     vdW  Elec       q    Type
REMARK                         _______ _______ _______ _____ _____    ______ ____
ROOT
ATOM      1  C   UNL     1       2.456 -10.272  -0.796  0.00  0.00    +0.026 C 
ATOM      2  C   UNL     1       1.356 -11.103  -0.937  0.00  0.00    +0.102 C 
ATOM      3  C   UNL     1       0.006 -10.562  -1.159  0.00  0.00    +0.276 C 
ATOM      4  O   UNL     1      -0.201  -9.230  -1.232  0.00  0.00    -0.268 OA
ATOM      5  N   UNL     1      -1.000 -11.410  -1.287  0.00  0.00    -0.123 NA
ATOM      6  C   UNL     1      -0.826 -12.728  -1.220  0.00  0.00    +0.340 C 
ATOM      7  O   UNL     1      -1.803 -13.444  -1.347  0.00  0.00    -0.250 OA
ATOM      8  N   UNL     1       0.365 -13.310  -1.021  0.00  0.00    -0.188 N 
ATOM      9  C   UNL     1       1.487 -12.573  -0.878  0.00  0.00    +0.264 C 
ATOM     10  O   UNL     1       2.569 -13.101  -0.703  0.00  0.00    -0.269 OA
ENDROOT
BRANCH   1  14
ATOM     11  C   UNL     1       1.905  -6.127  -0.187  0.00  0.00    +0.135 A 
ATOM     12  C   UNL     1       1.115  -7.040   0.504  0.00  0.00    +0.047 A 
ATOM     13  C   UNL     1       1.287  -8.381   0.312  0.00  0.00    +0.011 A 
ATOM     14  C   UNL     1       2.265  -8.838  -0.586  0.00  0.00    -0.023 A 
ATOM     15  C   UNL     1       3.060  -7.912  -1.280  0.00  0.00    +0.027 A 
ATOM     16  C   UNL     1       2.874  -6.574  -1.083  0.00  0.00    +0.060 A 
ATOM     17 BR   UNL     1       3.937  -5.324  -2.023  0.00  0.00    -0.046 Br
BRANCH  11  18
ATOM     18  O   UNL     1       1.729  -4.797   0.009  0.00  0.00    -0.486 OA
BRANCH  18  19
ATOM     19  C   UNL     1       0.719  -4.407   0.941  0.00  0.00    +0.264 C 
BRANCH  19  24
ATOM     20  C   UNL     1       0.520   1.359   1.271  0.00  0.00    +0.044 C 
ATOM     21  C   UNL     1       0.572  -0.145   1.185  0.00  0.00    -0.050 A 
ATOM     22  C   UNL     1      -0.211  -0.811   0.261  0.00  0.00    +0.004 A 
ATOM     23  C   UNL     1      -0.163  -2.191   0.182  0.00  0.00    +0.007 A 
ATOM     24  C   UNL     1       0.668  -2.903   1.027  0.00  0.00    -0.010 A 
ATOM     25  C   UNL     1       1.451  -2.236   1.950  0.00  0.00    +0.007 A 
ATOM     26  C   UNL     1       1.407  -0.857   2.026  0.00  0.00    +0.004 A 
ENDBRANCH  19  24
ENDBRANCH  18  19
ENDBRANCH  11  18
ENDBRANCH   1  14
BRANCH   8  27
ATOM     27  C   UNL     1       0.448 -14.709  -0.966  0.00  0.00    +0.046 A 
ATOM     28  C   UNL     1       0.421 -15.359   0.260  0.00  0.00    +0.027 A 
ATOM     29  C   UNL     1       0.502 -16.737   0.312  0.00  0.00    +0.040 A 
ATOM     30  C   UNL     1       0.611 -17.470  -0.858  0.00  0.00    +0.124 A 
ATOM     31  C   UNL     1       0.638 -16.823  -2.082  0.00  0.00    +0.040 A 
ATOM     32  C   UNL     1       0.552 -15.446  -2.139  0.00  0.00    +0.027 A 
ATOM     33  F   UNL     1       0.692 -18.817  -0.805  0.00  0.00    -0.205 F 
ENDBRANCH   8  27
TORSDOF 5
