REMARK  Name = ZINC03273524
REMARK  11 active torsions:
REMARK  status: ('A' for Active; 'I' for Inactive)
REMARK    1  A    between atoms: C_1  and  C_2
REMARK    2  A    between atoms: C_5  and  C_8
REMARK    3  A    between atoms: C_9  and  C_31
REMARK    4  A    between atoms: C_12  and  S_14
REMARK    5  A    between atoms: S_14  and  C_15
REMARK    6  A    between atoms: C_15  and  C_17
REMARK    7  A    between atoms: C_15  and  C_18
REMARK    8  A    between atoms: N_20  and  C_21
REMARK    9  A    between atoms: C_24  and  N_27
REMARK   10  A    between atoms: C_28  and  C_30
REMARK   11  A    between atoms: C_34  and  C_37
REMARK                            x       y       z     vdW  Elec       q    Type
REMARK                         _______ _______ _______ _____ _____    ______ ____
ROOT
ATOM      1  C   UNL     1      -8.923   9.617  -0.039  0.00  0.00    +0.102 A 
ATOM      2  C   UNL     1      -9.878   8.719   0.479  0.00  0.00    +0.119 A 
ATOM      3  N   UNL     1      -9.479   7.514   0.874  0.00  0.00    -0.145 NA
ATOM      4  N   UNL     1      -8.241   7.175   0.784  0.00  0.00    -0.122 NA
ATOM      5  C   UNL     1      -7.325   8.005   0.299  0.00  0.00    +0.211 A 
ATOM      6  N   UNL     1      -7.653   9.225  -0.108  0.00  0.00    -0.218 NA
ENDROOT
BRANCH   1  11
ATOM      7  C   UNL     1     -10.476  14.876  -1.794  0.00  0.00    +0.044 C 
ATOM      8  C   UNL     1     -10.070  13.500  -1.335  0.00  0.00    -0.050 A 
ATOM      9  C   UNL     1      -8.838  13.310  -0.733  0.00  0.00    +0.004 A 
ATOM     10  C   UNL     1      -8.461  12.052  -0.310  0.00  0.00    +0.010 A 
ATOM     11  C   UNL     1      -9.323  10.971  -0.490  0.00  0.00    +0.003 A 
ATOM     12  C   UNL     1     -10.560  11.167  -1.102  0.00  0.00    +0.010 A 
ATOM     13  C   UNL     1     -10.929  12.431  -1.516  0.00  0.00    +0.004 A 
ENDBRANCH   1  11
BRANCH   2  14
ATOM     14  C   UNL     1     -11.303   9.112   0.582  0.00  0.00    +0.004 A 
ATOM     15  C   UNL     1     -11.645  10.428   0.891  0.00  0.00    +0.010 A 
ATOM     16  C   UNL     1     -12.974  10.789   0.982  0.00  0.00    +0.004 A 
ATOM     17  C   UNL     1     -13.965   9.846   0.775  0.00  0.00    -0.050 A 
ATOM     18  C   UNL     1     -13.631   8.538   0.473  0.00  0.00    +0.004 A 
ATOM     19  C   UNL     1     -12.306   8.166   0.375  0.00  0.00    +0.010 A 
ATOM     20  C   UNL     1     -15.414  10.245   0.881  0.00  0.00    +0.044 C 
ENDBRANCH   2  14
BRANCH   5  21
ATOM     21  S   UNL     1      -5.645   7.481   0.202  0.00  0.00    -0.072 S 
BRANCH  21  22
ATOM     22  C   UNL     1      -5.798   5.808   0.876  0.00  0.00    +0.137 C 
ATOM     23  C   UNL     1      -6.226   5.887   2.343  0.00  0.00    +0.029 C 
BRANCH  22  24
ATOM     24  C   UNL     1      -4.470   5.104   0.777  0.00  0.00    +0.230 C 
ATOM     25  O   UNL     1      -3.443   5.747   0.741  0.00  0.00    -0.274 OA
ATOM     26  N   UNL     1      -4.423   3.757   0.728  0.00  0.00    -0.285 N 
ATOM     27  H   UNL     1      -5.238   3.240   0.824  0.00  0.00    +0.155 HD
BRANCH  26  28
ATOM     28  C   UNL     1      -3.198   3.105   0.539  0.00  0.00    +0.034 A 
ATOM     29  C   UNL     1      -3.143   1.933  -0.204  0.00  0.00    +0.025 A 
ATOM     30  C   UNL     1      -1.936   1.290  -0.390  0.00  0.00    +0.025 A 
ATOM     31  C   UNL     1      -0.776   1.816   0.165  0.00  0.00    +0.033 A 
ATOM     32  C   UNL     1      -0.832   2.985   0.912  0.00  0.00    +0.025 A 
ATOM     33  C   UNL     1      -2.039   3.631   1.094  0.00  0.00    +0.025 A 
BRANCH  31  34
ATOM     34  N   UNL     1       0.449   1.164  -0.025  0.00  0.00    -0.286 N 
ATOM     35  C   UNL     1       0.704   0.534  -1.189  0.00  0.00    +0.214 C 
ATOM     36  O   UNL     1      -0.155   0.465  -2.042  0.00  0.00    -0.276 OA
ATOM     37  C   UNL     1       2.058  -0.083  -1.431  0.00  0.00    +0.109 C 
ATOM     38  H   UNL     1       1.112   1.162   0.683  0.00  0.00    +0.155 HD
ENDBRANCH  31  34
ENDBRANCH  26  28
ENDBRANCH  22  24
ENDBRANCH  21  22
ENDBRANCH   5  21
TORSDOF 7
