REMARK  Name = ZINC56207217
REMARK  9 active torsions:
REMARK  status: ('A' for Active; 'I' for Inactive)
REMARK    1  A    between atoms: C_1  and  C_2
REMARK    2  A    between atoms: C_5  and  N_9
REMARK    3  A    between atoms: C_6  and  C_8
REMARK    4  A    between atoms: C_13  and  C_15
REMARK    5  A    between atoms: C_15  and  C_17
REMARK    6  A    between atoms: C_15  and  N_18
REMARK    7  A    between atoms: N_18  and  C_19
REMARK    8  A    between atoms: C_22  and  O_26
REMARK    9  A    between atoms: O_26  and  C_27
REMARK                            x       y       z     vdW  Elec       q    Type
REMARK                         _______ _______ _______ _____ _____    ______ ____
ROOT
ATOM      1  N   UNL     1       0.059  -4.170  -0.021  0.00  0.00    -0.269 N 
ATOM      2  C   UNL     1      -0.040  -4.839  -1.187  0.00  0.00    +0.310 C 
ATOM      3  O   UNL     1      -0.054  -4.229  -2.238  0.00  0.00    -0.252 OA
ATOM      4  N   UNL     1      -0.124  -6.184  -1.187  0.00  0.00    -0.238 N 
ATOM      5  C   UNL     1      -0.223  -6.853  -2.353  0.00  0.00    +0.240 C 
ATOM      6  O   UNL     1      -0.237  -6.244  -3.401  0.00  0.00    -0.273 OA
ATOM      7  H   UNL     1       0.135  -4.658   0.814  0.00  0.00    +0.156 HD
ATOM      8  H   UNL     1      -0.113  -6.671  -0.348  0.00  0.00    +0.159 HD
ENDROOT
BRANCH   1  13
ATOM      9  C   UNL     1       0.025   1.503   0.005  0.00  0.00    +0.044 C 
ATOM     10  C   UNL     1       0.034  -0.004  -0.002  0.00  0.00    -0.050 A 
ATOM     11  C   UNL     1       0.632  -0.685  -1.046  0.00  0.00    +0.005 A 
ATOM     12  C   UNL     1       0.641  -2.066  -1.055  0.00  0.00    +0.024 A 
ATOM     13  C   UNL     1       0.051  -2.771  -0.014  0.00  0.00    +0.038 A 
ATOM     14  C   UNL     1      -0.548  -2.083   1.033  0.00  0.00    -0.029 A 
ATOM     15  C   UNL     1      -0.551  -0.702   1.039  0.00  0.00    +0.008 A 
ATOM     16  C   UNL     1      -1.191  -2.843   2.165  0.00  0.00    +0.045 C 
ENDBRANCH   1  13
BRANCH   5  17
ATOM     17  C   UNL     1      -0.317  -8.357  -2.353  0.00  0.00    +0.154 C 
ATOM     18  C   UNL     1       0.932  -8.946  -1.694  0.00  0.00    +0.038 C 
BRANCH  17  19
ATOM     19  N   UNL     1      -0.415  -8.840  -3.733  0.00  0.00    -0.333 N 
ATOM     20  H   UNL     1      -0.061  -8.304  -4.460  0.00  0.00    +0.147 HD
BRANCH  19  21
ATOM     21  C   UNL     1      -1.018 -10.073  -4.001  0.00  0.00    +0.033 A 
ATOM     22  C   UNL     1      -1.530 -10.837  -2.960  0.00  0.00    +0.065 A 
ATOM     23  C   UNL     1      -2.127 -12.056  -3.226  0.00  0.00    +0.169 A 
ATOM     24  C   UNL     1      -2.215 -12.516  -4.532  0.00  0.00    +0.190 A 
ATOM     25  C   UNL     1      -1.703 -11.753  -5.573  0.00  0.00    +0.169 A 
ATOM     26  C   UNL     1      -1.111 -10.531  -5.309  0.00  0.00    +0.065 A 
ATOM     27  F   UNL     1      -1.788 -12.201  -6.845  0.00  0.00    -0.201 F 
ATOM     28  F   UNL     1      -2.624 -12.799  -2.213  0.00  0.00    -0.201 F 
BRANCH  24  29
ATOM     29  O   UNL     1      -2.801 -13.716  -4.793  0.00  0.00    -0.490 OA
ATOM     30  C   UNL     1      -4.208 -13.709  -5.046  0.00  0.00    +0.277 C 
ENDBRANCH  24  29
ENDBRANCH  19  21
ENDBRANCH  17  19
ENDBRANCH   5  17
TORSDOF 5
