REMARK  Name = ZINC13261371
REMARK  5 active torsions:
REMARK  status: ('A' for Active; 'I' for Inactive)
REMARK    1  A    between atoms: N_10  and  S_11
REMARK    2  A    between atoms: S_11  and  C_14
REMARK    3  A    between atoms: C_17  and  C_20
REMARK    4  A    between atoms: N_22  and  C_23
REMARK    5  A    between atoms: C_28  and  C_29
REMARK                            x       y       z     vdW  Elec       q    Type
REMARK                         _______ _______ _______ _____ _____    ______ ____
ROOT
ATOM      1  C   UNL     1       3.736  -1.965  -0.506  0.00  0.00    +0.109 A 
ATOM      2  C   UNL     1       3.072  -3.172  -0.640  0.00  0.00    +0.029 A 
ATOM      3  C   UNL     1       3.164  -3.886  -1.816  0.00  0.00    +0.015 A 
ATOM      4  C   UNL     1       3.937  -3.394  -2.869  0.00  0.00    +0.037 A 
ATOM      5  C   UNL     1       4.609  -2.179  -2.726  0.00  0.00    +0.015 A 
ATOM      6  C   UNL     1       4.504  -1.472  -1.546  0.00  0.00    +0.029 A 
ENDROOT
BRANCH   4   7
ATOM      7  C   UNL     1       4.045  -4.157  -4.131  0.00  0.00    +0.248 C 
ATOM      8  O   UNL     1       4.718  -3.726  -5.046  0.00  0.00    -0.270 OA
ATOM      9  N   UNL     1       3.395  -5.330  -4.266  0.00  0.00    -0.281 N 
ATOM     10  H   UNL     1       2.797  -5.637  -3.567  0.00  0.00    +0.155 HD
BRANCH   9  11
ATOM     11  C   UNL     1       3.583  -6.102  -5.409  0.00  0.00    +0.048 A 
ATOM     12  C   UNL     1       4.825  -6.139  -6.030  0.00  0.00    +0.024 A 
ATOM     13  C   UNL     1       5.010  -6.908  -7.161  0.00  0.00    +0.002 A 
ATOM     14  C   UNL     1       3.960  -7.640  -7.691  0.00  0.00    +0.001 A 
ATOM     15  C   UNL     1       2.719  -7.611  -7.093  0.00  0.00    +0.017 A 
ATOM     16  C   UNL     1       2.517  -6.841  -5.944  0.00  0.00    +0.084 A 
BRANCH  16  17
ATOM     17  C   UNL     1       1.192  -6.806  -5.299  0.00  0.00    +0.388 C 
ATOM     18  O   UNL     1       1.043  -6.208  -4.252  0.00  0.00    -0.241 OA
ATOM     19  O   UNL     1       0.147  -7.436  -5.871  0.00  0.00    -0.241 OA
ENDBRANCH  16  17
ENDBRANCH   9  11
ENDBRANCH   4   7
BRANCH   1  20
ATOM     20  S   UNL     1       3.607  -1.056   0.998  0.00  0.00    +0.075 S 
ATOM     21  O   UNL     1       4.762  -0.232   1.074  0.00  0.00    -0.150 OA
ATOM     22  O   UNL     1       3.272  -1.993   2.012  0.00  0.00    -0.150 OA
BRANCH  20  32
ATOM     23  C   UNL     1      -1.523  -1.422   1.712  0.00  0.00    +0.000 A 
ATOM     24  C   UNL     1      -0.478  -2.316   1.567  0.00  0.00    +0.002 A 
ATOM     25  C   UNL     1       0.790  -1.853   1.279  0.00  0.00    +0.025 A 
ATOM     26  C   UNL     1       1.016  -0.488   1.135  0.00  0.00    +0.054 A 
ATOM     27  C   UNL     1      -0.032   0.408   1.278  0.00  0.00    -0.025 A 
ATOM     28  C   UNL     1      -1.301  -0.066   1.568  0.00  0.00    +0.005 A 
ATOM     29  C   UNL     1       0.174   1.891   1.124  0.00  0.00    +0.038 C 
ATOM     30  C   UNL     1       1.648   2.249   1.313  0.00  0.00    +0.025 C 
ATOM     31  C   UNL     1       2.497   1.350   0.404  0.00  0.00    +0.132 C 
ATOM     32  N   UNL     1       2.309  -0.039   0.846  0.00  0.00    -0.203 N 
ENDBRANCH  20  32
ENDBRANCH   1  20
TORSDOF 5
