REMARK  Name = ZINC08695872
REMARK  13 active torsions:
REMARK  status: ('A' for Active; 'I' for Inactive)
REMARK    1  A    between atoms: C_1  and  C_2
REMARK    2  A    between atoms: C_2  and  C_3
REMARK    3  A    between atoms: C_2  and  C_4
REMARK    4  A    between atoms: C_2  and  N_16
REMARK    5  A    between atoms: N_6  and  C_7
REMARK    6  A    between atoms: C_10  and  N_13
REMARK    7  A    between atoms: N_13  and  C_14
REMARK    8  A    between atoms: N_13  and  C_15
REMARK    9  A    between atoms: N_16  and  C_17
REMARK   10  A    between atoms: C_17  and  C_18
REMARK   11  A    between atoms: C_25  and  C_27
REMARK   12  A    between atoms: C_27  and  N_28
REMARK   13  A    between atoms: C_30  and  C_35
REMARK                            x       y       z     vdW  Elec       q    Type
REMARK                         _______ _______ _______ _____ _____    ______ ____
ROOT
ATOM      1  N   UNL     1       3.260   1.427  -1.191  0.00  0.00    -0.282 N 
ATOM      2  C   UNL     1       3.415   2.764  -1.260  0.00  0.00    +0.234 C 
ATOM      3  O   UNL     1       3.546   3.304  -2.338  0.00  0.00    -0.274 OA
ENDROOT
BRANCH   1   5
ATOM      4  C   UNL     1       4.827   0.613  -2.884  0.00  0.00    +0.041 C 
ATOM      5  C   UNL     1       3.374   0.612  -2.404  0.00  0.00    +0.108 C 
ATOM      6  C   UNL     1       2.939  -0.822  -2.097  0.00  0.00    +0.041 C 
BRANCH   5   7
ATOM      7  C   UNL     1       2.489   1.187  -3.479  0.00  0.00    +0.240 C 
ATOM      8  O   UNL     1       2.849   1.163  -4.638  0.00  0.00    -0.273 OA
ATOM      9  N   UNL     1       1.298   1.727  -3.155  0.00  0.00    -0.284 N 
ATOM     10  H   UNL     1       1.038   1.805  -2.223  0.00  0.00    +0.155 HD
BRANCH   9  11
ATOM     11  C   UNL     1       0.433   2.176  -4.163  0.00  0.00    +0.034 A 
ATOM     12  C   UNL     1       0.405   1.529  -5.391  0.00  0.00    +0.025 A 
ATOM     13  C   UNL     1      -0.449   1.968  -6.383  0.00  0.00    +0.025 A 
ATOM     14  C   UNL     1      -1.274   3.062  -6.155  0.00  0.00    +0.029 A 
ATOM     15  C   UNL     1      -1.242   3.712  -4.928  0.00  0.00    +0.025 A 
ATOM     16  C   UNL     1      -0.390   3.270  -3.935  0.00  0.00    +0.025 A 
BRANCH  14  17
ATOM     17  N   UNL     1      -2.136   3.510  -7.161  0.00  0.00    -0.336 N 
ATOM     18  C   UNL     1      -2.916   4.735  -6.966  0.00  0.00    +0.129 C 
ATOM     19  C   UNL     1      -2.260   2.754  -8.410  0.00  0.00    +0.129 C 
ENDBRANCH  14  17
ENDBRANCH   9  11
ENDBRANCH   5   7
ENDBRANCH   1   5
BRANCH   1  20
ATOM     20  C   UNL     1       2.978   0.788   0.097  0.00  0.00    +0.146 C 
BRANCH  20  21
ATOM     21  C   UNL     1       4.246   0.710   0.907  0.00  0.00    +0.005 A 
ATOM     22  C   UNL     1       4.379   1.464   2.058  0.00  0.00    +0.008 A 
ATOM     23  C   UNL     1       5.544   1.397   2.798  0.00  0.00    +0.000 A 
ATOM     24  C   UNL     1       6.574   0.567   2.395  0.00  0.00    +0.003 A 
ATOM     25  C   UNL     1       6.444  -0.187   1.244  0.00  0.00    +0.038 A 
ATOM     26  C   UNL     1       5.279  -0.117   0.499  0.00  0.00    +0.128 A 
ATOM     27  F   UNL     1       5.151  -0.854  -0.626  0.00  0.00    -0.205 F 
ENDBRANCH  20  21
ENDBRANCH   1  20
BRANCH   2  28
ATOM     28  C   UNL     1       3.426   3.588   0.001  0.00  0.00    +0.202 C 
BRANCH  28  29
ATOM     29  N   UNL     1       3.528   5.008  -0.343  0.00  0.00    -0.302 N 
ATOM     30  C   UNL     1       2.392   5.910  -0.583  0.00  0.00    +0.134 C 
ATOM     31  C   UNL     1       3.056   7.263  -0.902  0.00  0.00    +0.119 C 
ATOM     32  N   UNL     1       4.496   6.980  -0.808  0.00  0.00    -0.318 N 
ATOM     33  C   UNL     1       4.671   5.692  -0.485  0.00  0.00    +0.134 C 
ATOM     34  S   UNL     1       6.215   4.983  -0.276  0.00  0.00    -0.019 S 
ATOM     35  H   UNL     1       5.206   7.625  -0.953  0.00  0.00    +0.148 HD
BRANCH  31  36
ATOM     36  C   UNL     1       2.696   7.715  -2.294  0.00  0.00    -0.026 A 
ATOM     37  C   UNL     1       3.363   7.191  -3.385  0.00  0.00    +0.005 A 
ATOM     38  C   UNL     1       3.029   7.601  -4.662  0.00  0.00    +0.000 A 
ATOM     39  C   UNL     1       2.035   8.543  -4.848  0.00  0.00    +0.000 A 
ATOM     40  C   UNL     1       1.371   9.071  -3.756  0.00  0.00    +0.000 A 
ATOM     41  C   UNL     1       1.701   8.657  -2.479  0.00  0.00    +0.005 A 
ENDBRANCH  31  36
ENDBRANCH  28  29
ENDBRANCH   2  28
TORSDOF 9
