REMARK  Name = ZINC33766598
REMARK  9 active torsions:
REMARK  status: ('A' for Active; 'I' for Inactive)
REMARK    1  A    between atoms: C_1  and  C_2
REMARK    2  A    between atoms: C_2  and  N_3
REMARK    3  A    between atoms: C_4  and  C_6
REMARK    4  A    between atoms: C_6  and  C_7
REMARK    5  A    between atoms: N_11  and  C_25
REMARK    6  A    between atoms: N_14  and  N_15
REMARK    7  A    between atoms: C_16  and  C_18
REMARK    8  A    between atoms: C_28  and  O_31
REMARK    9  A    between atoms: O_31  and  C_32
REMARK                            x       y       z     vdW  Elec       q    Type
REMARK                         _______ _______ _______ _____ _____    ______ ____
ROOT
ATOM      1  C   UNL     1      -2.941  -4.008   0.060  0.00  0.00    +0.191 C 
ATOM      2  C   UNL     1      -4.311  -4.650   0.146  0.00  0.00    +0.248 C 
ATOM      3  O   UNL     1      -5.035  -4.704   1.117  0.00  0.00    -0.273 OA
ATOM      4  N   UNL     1      -4.558  -5.148  -1.082  0.00  0.00    -0.219 N 
ATOM      5  C   UNL     1      -3.544  -4.912  -1.923  0.00  0.00    +0.164 C 
ATOM      6  S   UNL     1      -3.531  -5.409  -3.561  0.00  0.00    -0.016 S 
ATOM      7  N   UNL     1      -2.532  -4.241  -1.336  0.00  0.00    -0.218 N 
ENDROOT
BRANCH   4   8
ATOM      8  C   UNL     1      -5.732  -5.830  -1.435  0.00  0.00    +0.043 A 
ATOM      9  C   UNL     1      -6.942  -5.150  -1.484  0.00  0.00    +0.027 A 
ATOM     10  C   UNL     1      -8.097  -5.821  -1.831  0.00  0.00    +0.047 A 
ATOM     11  C   UNL     1      -8.050  -7.175  -2.133  0.00  0.00    +0.120 A 
ATOM     12  C   UNL     1      -6.841  -7.854  -2.084  0.00  0.00    +0.047 A 
ATOM     13  C   UNL     1      -5.684  -7.183  -1.742  0.00  0.00    +0.027 A 
BRANCH  11  14
ATOM     14  O   UNL     1      -9.188  -7.835  -2.475  0.00  0.00    -0.495 OA
ATOM     15  C   UNL     1      -9.065  -9.227  -2.772  0.00  0.00    +0.277 C 
ENDBRANCH  11  14
ENDBRANCH   4   8
BRANCH   7  16
ATOM     16  N   UNL     1      -1.330  -3.840  -1.934  0.00  0.00    -0.228 N 
ATOM     17  C   UNL     1      -0.366  -4.748  -2.181  0.00  0.00    +0.260 C 
ATOM     18  O   UNL     1      -0.538  -5.915  -1.885  0.00  0.00    -0.269 OA
ATOM     19  H   UNL     1      -1.192  -2.910  -2.170  0.00  0.00    +0.173 HD
BRANCH  17  20
ATOM     20  C   UNL     1       0.902  -4.326  -2.812  0.00  0.00    +0.038 A 
ATOM     21  C   UNL     1       1.106  -2.987  -3.148  0.00  0.00    +0.014 A 
ATOM     22  C   UNL     1       2.292  -2.599  -3.737  0.00  0.00    +0.016 A 
ATOM     23  C   UNL     1       3.279  -3.535  -3.995  0.00  0.00    +0.018 A 
ATOM     24  C   UNL     1       3.082  -4.865  -3.664  0.00  0.00    +0.016 A 
ATOM     25  C   UNL     1       1.904  -5.265  -3.070  0.00  0.00    +0.014 A 
ATOM     26 BR   UNL     1       4.901  -2.995  -4.803  0.00  0.00    -0.050 Br
ENDBRANCH  17  20
ENDBRANCH   7  16
BRANCH   1  27
ATOM     27  C   UNL     1      -3.029  -2.509   0.353  0.00  0.00    +0.129 C 
BRANCH  27  29
ATOM     28  N   UNL     1      -1.482  -0.587   0.524  0.00  0.00    -0.316 N 
ATOM     29  C   UNL     1      -1.650  -1.904   0.297  0.00  0.00    +0.215 C 
ATOM     30  O   UNL     1      -0.691  -2.603   0.047  0.00  0.00    -0.276 OA
ATOM     31  H   UNL     1      -2.249  -0.027   0.724  0.00  0.00    +0.149 HD
BRANCH  28  33
ATOM     32  C   UNL     1      -0.230   1.501   0.762  0.00  0.00    +0.024 C 
ATOM     33  C   UNL     1      -0.142   0.002   0.469  0.00  0.00    +0.101 C 
ENDBRANCH  28  33
ENDBRANCH  27  29
ENDBRANCH   1  27
TORSDOF 7
