REMARK  Name = ZINC16042321
REMARK  6 active torsions:
REMARK  status: ('A' for Active; 'I' for Inactive)
REMARK    1  A    between atoms: C_1  and  C_2
REMARK    2  A    between atoms: C_2  and  C_3
REMARK    3  A    between atoms: C_2  and  C_4
REMARK    4  A    between atoms: C_7  and  C_10
REMARK    5  A    between atoms: N_29  and  C_32
REMARK    6  A    between atoms: C_32  and  C_33
REMARK                            x       y       z     vdW  Elec       q    Type
REMARK                         _______ _______ _______ _____ _____    ______ ____
ROOT
ATOM      1  C   UNL     1       4.291  -0.040  -5.362  0.00  0.00    +0.154 C 
ATOM      2  C   UNL     1       3.098  -0.495  -6.172  0.00  0.00    +0.046 A 
ATOM      3  C   UNL     1       1.901  -0.802  -5.628  0.00  0.00    -0.015 A 
ATOM      4  C   UNL     1       1.029  -1.194  -6.717  0.00  0.00    +0.003 A 
ATOM      5  C   UNL     1      -0.305  -1.611  -6.760  0.00  0.00    +0.010 A 
ATOM      6  C   UNL     1      -0.822  -1.908  -7.996  0.00  0.00    +0.001 A 
ATOM      7  C   UNL     1      -0.069  -1.803  -9.154  0.00  0.00    +0.002 A 
ATOM      8  C   UNL     1       1.253  -1.392  -9.141  0.00  0.00    +0.026 A 
ATOM      9  C   UNL     1       1.805  -1.085  -7.899  0.00  0.00    +0.047 A 
ATOM     10  N   UNL     1       3.049  -0.660  -7.530  0.00  0.00    -0.356 N 
ATOM     11  H   UNL     1       3.787  -0.499  -8.139  0.00  0.00    +0.166 HD
ATOM     12  C   UNL     1       1.583  -0.728  -4.156  0.00  0.00    +0.069 C 
ATOM     13  C   UNL     1       2.898  -0.689  -3.366  0.00  0.00    +0.167 C 
ATOM     14  N   UNL     1       3.809   0.265  -3.998  0.00  0.00    -0.276 N 
ATOM     15  C   UNL     1       4.218   1.388  -3.403  0.00  0.00    +0.234 C 
ATOM     16  O   UNL     1       4.918   2.144  -4.042  0.00  0.00    -0.274 OA
ATOM     17  C   UNL     1       3.871   1.776  -2.002  0.00  0.00    +0.204 C 
ATOM     18  N   UNL     1       3.056   0.769  -1.343  0.00  0.00    -0.287 N 
ATOM     19  C   UNL     1       2.621  -0.339  -1.939  0.00  0.00    +0.237 C 
ATOM     20  O   UNL     1       1.955  -1.113  -1.284  0.00  0.00    -0.274 OA
ENDROOT
BRANCH   1  24
ATOM     21  C   UNL     1       5.989   3.463  -7.119  0.00  0.00    -0.045 A 
ATOM     22  C   UNL     1       6.797   2.386  -6.806  0.00  0.00    +0.004 A 
ATOM     23  C   UNL     1       6.247   1.252  -6.238  0.00  0.00    +0.006 A 
ATOM     24  C   UNL     1       4.890   1.196  -5.982  0.00  0.00    -0.021 A 
ATOM     25  C   UNL     1       4.082   2.271  -6.299  0.00  0.00    +0.006 A 
ATOM     26  C   UNL     1       4.632   3.406  -6.864  0.00  0.00    +0.004 A 
BRANCH  21  28
ATOM     27  C   UNL     1       5.945   4.949  -9.104  0.00  0.00    +0.012 C 
ATOM     28  C   UNL     1       6.588   4.699  -7.739  0.00  0.00    +0.013 C 
ATOM     29  C   UNL     1       6.333   5.902  -6.827  0.00  0.00    +0.012 C 
ENDBRANCH  21  28
ENDBRANCH   1  24
BRANCH  18  30
ATOM     30  C   UNL     1       2.696   0.984   0.061  0.00  0.00    +0.143 C 
BRANCH  30  31
ATOM     31  C   UNL     1       1.396   1.744   0.136  0.00  0.00    -0.026 A 
ATOM     32  C   UNL     1       1.406   3.126   0.167  0.00  0.00    +0.009 A 
ATOM     33  C   UNL     1       0.217   3.827   0.235  0.00  0.00    +0.050 A 
ATOM     34  C   UNL     1      -0.989   3.146   0.273  0.00  0.00    +0.166 A 
ATOM     35  C   UNL     1      -0.999   1.754   0.236  0.00  0.00    +0.167 A 
ATOM     36  C   UNL     1       0.197   1.057   0.173  0.00  0.00    +0.054 A 
ATOM     37  O   UNL     1      -2.294   1.325   0.289  0.00  0.00    -0.453 OA
ATOM     38  C   UNL     1      -3.055   2.453   0.761  0.00  0.00    +0.466 C 
ATOM     39  O   UNL     1      -2.278   3.590   0.340  0.00  0.00    -0.453 OA
ENDBRANCH  30  31
ENDBRANCH  18  30
TORSDOF 4
