REMARK  Name = ZINC26817032
REMARK  4 active torsions:
REMARK  status: ('A' for Active; 'I' for Inactive)
REMARK    1  A    between atoms: C_1  and  C_2
REMARK    2  A    between atoms: C_13  and  C_16
REMARK    3  A    between atoms: C_16  and  C_17
REMARK    4  A    between atoms: N_29  and  C_32
REMARK                            x       y       z     vdW  Elec       q    Type
REMARK                         _______ _______ _______ _____ _____    ______ ____
ROOT
ATOM      1  C   UNL     1      -0.162   1.495   0.044  0.00  0.00    +0.044 C 
ATOM      2  C   UNL     1      -0.322  -0.002   0.105  0.00  0.00    -0.050 A 
ATOM      3  C   UNL     1      -0.607  -0.716  -1.044  0.00  0.00    +0.005 A 
ATOM      4  C   UNL     1      -0.754  -2.087  -0.994  0.00  0.00    +0.024 A 
ATOM      5  C   UNL     1      -0.616  -2.763   0.216  0.00  0.00    +0.039 A 
ATOM      6  C   UNL     1      -0.330  -2.034   1.366  0.00  0.00    +0.004 A 
ATOM      7  C   UNL     1      -0.180  -0.666   1.311  0.00  0.00    +0.011 A 
ATOM      8  C   UNL     1      -0.247  -3.039   2.480  0.00  0.00    +0.136 C 
ATOM      9  C   UNL     1       1.127  -3.010   3.162  0.00  0.00    +0.123 C 
ATOM     10  C   UNL     1       0.912  -2.143   4.434  0.00  0.00    +0.108 C 
ATOM     11  C   UNL     1      -0.568  -1.711   4.375  0.00  0.00    +0.072 C 
ATOM     12  N   UNL     1      -1.232  -2.756   3.540  0.00  0.00    -0.295 NA
ATOM     13  C   UNL     1       1.117  -3.125   5.564  0.00  0.00    +0.232 C 
ATOM     14  O   UNL     1       1.030  -2.863   6.745  0.00  0.00    -0.274 OA
ATOM     15  N   UNL     1       1.410  -4.329   5.059  0.00  0.00    -0.210 N 
ATOM     16  C   UNL     1       1.452  -4.382   3.708  0.00  0.00    +0.233 C 
ATOM     17  O   UNL     1       1.704  -5.361   3.039  0.00  0.00    -0.274 OA
ATOM     18  C   UNL     1      -0.510  -4.368   1.827  0.00  0.00    +0.243 C 
ATOM     19  O   UNL     1      -0.532  -5.451   2.373  0.00  0.00    -0.273 OA
ATOM     20  N   UNL     1      -0.716  -4.123   0.519  0.00  0.00    -0.283 N 
ATOM     21  H   UNL     1      -2.094  -2.406   3.149  0.00  0.00    +0.124 HD
ATOM     22  H   UNL     1      -0.910  -4.810  -0.137  0.00  0.00    +0.155 HD
ENDROOT
BRANCH  15  23
ATOM     23  C   UNL     1       1.660  -5.449   5.866  0.00  0.00    +0.044 A 
ATOM     24  C   UNL     1       0.636  -6.003   6.623  0.00  0.00    +0.027 A 
ATOM     25  C   UNL     1       0.885  -7.106   7.416  0.00  0.00    +0.040 A 
ATOM     26  C   UNL     1       2.154  -7.659   7.457  0.00  0.00    +0.124 A 
ATOM     27  C   UNL     1       3.176  -7.108   6.703  0.00  0.00    +0.040 A 
ATOM     28  C   UNL     1       2.930  -6.008   5.904  0.00  0.00    +0.027 A 
ATOM     29  F   UNL     1       2.395  -8.738   8.234  0.00  0.00    -0.205 F 
ENDBRANCH  15  23
BRANCH  11  30
ATOM     30  C   UNL     1      -1.176  -1.704   5.779  0.00  0.00    +0.056 C 
BRANCH  30  31
ATOM     31  C   UNL     1      -2.582  -1.163   5.715  0.00  0.00    -0.021 A 
ATOM     32  C   UNL     1      -2.958   0.107   5.926  0.00  0.00    +0.087 A 
ATOM     33  N   UNL     1      -4.314   0.222   5.782  0.00  0.00    -0.360 N 
ATOM     34  H   UNL     1      -4.818   1.044   5.887  0.00  0.00    +0.165 HD
ATOM     35  C   UNL     1      -4.857  -1.003   5.466  0.00  0.00    +0.047 A 
ATOM     36  C   UNL     1      -3.794  -1.924   5.404  0.00  0.00    +0.003 A 
ATOM     37  C   UNL     1      -4.049  -3.261   5.094  0.00  0.00    +0.010 A 
ATOM     38  C   UNL     1      -5.330  -3.668   4.848  0.00  0.00    +0.001 A 
ATOM     39  C   UNL     1      -6.380  -2.764   4.904  0.00  0.00    +0.002 A 
ATOM     40  C   UNL     1      -6.153  -1.441   5.217  0.00  0.00    +0.026 A 
ENDBRANCH  30  31
ENDBRANCH  11  30
TORSDOF 3
