REMARK  Name = ZINC65074807
REMARK  7 active torsions:
REMARK  status: ('A' for Active; 'I' for Inactive)
REMARK    1  A    between atoms: C_1  and  C_2
REMARK    2  A    between atoms: C_5  and  C_8
REMARK    3  A    between atoms: C_8  and  N_9
REMARK    4  A    between atoms: N_18  and  S_21
REMARK    5  A    between atoms: S_21  and  C_24
REMARK    6  A    between atoms: C_27  and  C_31
REMARK    7  A    between atoms: C_29  and  C_30
REMARK                            x       y       z     vdW  Elec       q    Type
REMARK                         _______ _______ _______ _____ _____    ______ ____
ROOT
ATOM      1  N   UNL     1       1.501  -4.645   0.145  0.00  0.00    -0.329 N 
ATOM      2  C   UNL     1       1.784  -5.970   0.352  0.00  0.00    +0.089 C 
ATOM      3  N   UNL     1       0.807  -6.775   0.536  0.00  0.00    -0.374 N 
ATOM      4  C   UNL     1       0.969  -8.205   0.777  0.00  0.00    +0.129 C 
ATOM      5  C   UNL     1       2.373  -8.652   0.363  0.00  0.00    +0.102 C 
ATOM      6  N   UNL     1       3.352  -7.728   0.962  0.00  0.00    -0.303 NA
ATOM      7  C   UNL     1       3.224  -6.399   0.344  0.00  0.00    +0.075 C 
ATOM      8  C   UNL     1       3.732  -6.457  -1.100  0.00  0.00    +0.047 C 
ATOM      9  C   UNL     1       5.188  -6.933  -1.105  0.00  0.00    +0.111 C 
ATOM     10  N   UNL     1       5.975  -6.057  -0.226  0.00  0.00    -0.176 NA
ATOM     11  C   UNL     1       5.523  -5.856   1.157  0.00  0.00    +0.111 C 
ATOM     12  C   UNL     1       4.062  -5.393   1.137  0.00  0.00    +0.047 C 
ATOM     13  H   UNL     1       2.222  -4.013  -0.001  0.00  0.00    +0.147 HD
ATOM     14  H   UNL     1       3.236  -7.678   1.963  0.00  0.00    +0.123 HD
ATOM     15  H   UNL     1      -0.093  -6.414   0.515  0.00  0.00    +0.161 HD
ENDROOT
BRANCH  10  16
ATOM     16  S   UNL     1       7.344  -5.312  -0.783  0.00  0.00    +0.061 S 
ATOM     17  O   UNL     1       8.192  -5.125   0.342  0.00  0.00    -0.153 OA
ATOM     18  O   UNL     1       7.757  -6.031  -1.937  0.00  0.00    -0.153 OA
BRANCH  16  19
ATOM     19  C   UNL     1       6.876  -3.704  -1.333  0.00  0.00    +0.108 A 
ATOM     20  C   UNL     1       7.317  -2.585  -0.651  0.00  0.00    +0.029 A 
ATOM     21  C   UNL     1       6.950  -1.324  -1.082  0.00  0.00    +0.005 A 
ATOM     22  C   UNL     1       6.142  -1.182  -2.195  0.00  0.00    -0.050 A 
ATOM     23  C   UNL     1       5.702  -2.301  -2.877  0.00  0.00    +0.008 A 
ATOM     24  C   UNL     1       6.073  -3.562  -2.449  0.00  0.00    -0.024 A 
ATOM     25  C   UNL     1       5.597  -4.782  -3.195  0.00  0.00    +0.046 C 
ATOM     26  C   UNL     1       5.741   0.192  -2.664  0.00  0.00    +0.044 C 
ENDBRANCH  16  19
ENDBRANCH  10  16
BRANCH   1  27
ATOM     27  C   UNL     1       0.111  -4.184   0.145  0.00  0.00    +0.138 C 
BRANCH  27  32
ATOM     28  C   UNL     1      -0.033   1.514  -0.803  0.00  0.00    +0.044 C 
ATOM     29  C   UNL     1       0.005   0.028  -0.555  0.00  0.00    -0.050 A 
ATOM     30  C   UNL     1      -0.043  -0.851  -1.621  0.00  0.00    +0.003 A 
ATOM     31  C   UNL     1      -0.009  -2.215  -1.394  0.00  0.00    +0.005 A 
ATOM     32  C   UNL     1       0.074  -2.698  -0.102  0.00  0.00    -0.030 A 
ATOM     33  C   UNL     1       0.122  -1.819   0.964  0.00  0.00    +0.005 A 
ATOM     34  C   UNL     1       0.092  -0.456   0.736  0.00  0.00    +0.003 A 
ENDBRANCH  27  32
ENDBRANCH   1  27
TORSDOF 4
