REMARK  Name = ZINC39665628
REMARK  13 active torsions:
REMARK  status: ('A' for Active; 'I' for Inactive)
REMARK    1  A    between atoms: C_1  and  C_2
REMARK    2  A    between atoms: C_2  and  C_4
REMARK    3  A    between atoms: C_2  and  O_31
REMARK    4  A    between atoms: C_4  and  N_5
REMARK    5  A    between atoms: C_6  and  C_8
REMARK    6  A    between atoms: C_19  and  C_21
REMARK    7  A    between atoms: C_24  and  O_29
REMARK    8  A    between atoms: C_26  and  O_27
REMARK    9  A    between atoms: O_27  and  C_28
REMARK   10  A    between atoms: O_29  and  C_30
REMARK   11  A    between atoms: O_31  and  C_32
REMARK   12  A    between atoms: C_35  and  O_38
REMARK   13  A    between atoms: O_38  and  C_39
REMARK                            x       y       z     vdW  Elec       q    Type
REMARK                         _______ _______ _______ _____ _____    ______ ____
ROOT
ATOM      1  C   UNL     1      -3.976  -6.412  -1.679  0.00  0.00    +0.100 C 
ATOM      2  C   UNL     1      -3.281  -6.962  -2.945  0.00  0.00    +0.121 C 
ATOM      3  N   UNL     1      -4.337  -7.728  -3.648  0.00  0.00    -0.296 N 
ATOM      4  C   UNL     1      -5.562  -6.911  -3.477  0.00  0.00    +0.115 C 
ATOM      5  C   UNL     1      -5.472  -6.379  -2.032  0.00  0.00    -0.004 C 
ATOM      6  C   UNL     1      -6.258  -7.284  -1.088  0.00  0.00    -0.010 C 
ATOM      7  C   UNL     1      -7.749  -7.191  -1.423  0.00  0.00    -0.082 C 
ATOM      8  N   UNL     1      -8.198  -5.800  -1.286  0.00  0.00    +0.379 N 
ATOM      9  C   UNL     1      -7.503  -4.952  -2.262  0.00  0.00    -0.082 C 
ATOM     10  C   UNL     1      -6.001  -4.950  -1.963  0.00  0.00    -0.010 C 
ATOM     11  C   UNL     1      -4.211  -8.902  -4.298  0.00  0.00    +0.250 C 
ATOM     12  O   UNL     1      -5.157  -9.364  -4.907  0.00  0.00    -0.270 OA
ATOM     13  H   UNL     1      -9.192  -5.751  -1.448  0.00  0.00    -0.086 HD
ATOM     14  H   UNL     1      -7.995  -5.473  -0.353  0.00  0.00    -0.086 HD
ENDROOT
BRANCH  11  15
ATOM     15  C   UNL     1      -2.929  -9.626  -4.270  0.00  0.00    +0.079 A 
ATOM     16  C   UNL     1      -1.725  -8.927  -4.404  0.00  0.00    +0.020 A 
ATOM     17  C   UNL     1      -0.529  -9.606  -4.377  0.00  0.00    +0.046 A 
ATOM     18  C   UNL     1      -0.512 -10.988  -4.217  0.00  0.00    +0.124 A 
ATOM     19  C   UNL     1      -1.700 -11.692  -4.083  0.00  0.00    +0.092 A 
ATOM     20  C   UNL     1      -2.909 -11.019  -4.103  0.00  0.00    +0.136 A 
BRANCH  20  21
ATOM     21  O   UNL     1      -4.072 -11.704  -3.967  0.00  0.00    -0.494 OA
ATOM     22  C   UNL     1      -3.975 -13.120  -3.800  0.00  0.00    +0.277 C 
ENDBRANCH  20  21
BRANCH  18  23
ATOM     23  O   UNL     1       0.672 -11.651  -4.192  0.00  0.00    -0.495 OA
ATOM     24  C   UNL     1       1.858 -10.866  -4.335  0.00  0.00    +0.277 C 
ENDBRANCH  18  23
ENDBRANCH  11  15
BRANCH   1  26
ATOM     25  N   UNL     1      -3.451  -4.587  -0.094  0.00  0.00    -0.312 N 
ATOM     26  C   UNL     1      -3.480  -5.023  -1.369  0.00  0.00    +0.218 C 
ATOM     27  O   UNL     1      -3.106  -4.298  -2.267  0.00  0.00    -0.275 OA
ATOM     28  H   UNL     1      -3.749  -5.166   0.624  0.00  0.00    +0.149 HD
BRANCH  25  29
ATOM     29  C   UNL     1      -2.968  -3.236   0.207  0.00  0.00    +0.148 C 
BRANCH  29  31
ATOM     30  C   UNL     1      -2.535  -1.584   2.030  0.00  0.00    +0.053 C 
ATOM     31  C   UNL     1      -3.039  -2.994   1.716  0.00  0.00    +0.187 C 
BRANCH  31  32
ATOM     32  O   UNL     1      -4.391  -3.126   2.157  0.00  0.00    -0.488 OA
BRANCH  32  33
ATOM     33  C   UNL     1      -4.586  -3.522   3.443  0.00  0.00    +0.121 A 
ATOM     34  C   UNL     1      -5.869  -3.779   3.903  0.00  0.00    +0.049 A 
ATOM     35  C   UNL     1      -6.066  -4.181   5.210  0.00  0.00    +0.049 A 
ATOM     36  C   UNL     1      -4.981  -4.328   6.062  0.00  0.00    +0.120 A 
ATOM     37  C   UNL     1      -3.699  -4.071   5.601  0.00  0.00    +0.049 A 
ATOM     38  C   UNL     1      -3.501  -3.673   4.293  0.00  0.00    +0.049 A 
BRANCH  36  39
ATOM     39  O   UNL     1      -5.176  -4.722   7.348  0.00  0.00    -0.495 OA
ATOM     40  C   UNL     1      -4.014  -4.852   8.170  0.00  0.00    +0.277 C 
ENDBRANCH  36  39
ENDBRANCH  32  33
ENDBRANCH  31  32
ENDBRANCH  29  31
ENDBRANCH  25  29
ENDBRANCH   1  26
TORSDOF 9
