REMARK  Name = ZINC04651761
REMARK  4 active torsions:
REMARK  status: ('A' for Active; 'I' for Inactive)
REMARK    1  A    between atoms: C_6  and  C_7
REMARK    2  A    between atoms: N_9  and  N_10
REMARK    3  A    between atoms: C_11  and  C_13
REMARK    4  A    between atoms: C_22  and  C_24
REMARK                            x       y       z     vdW  Elec       q    Type
REMARK                         _______ _______ _______ _____ _____    ______ ____
ROOT
ATOM      1  N   UNL     1      -2.183  -3.376   1.257  0.00  0.00    -0.234 N 
ATOM      2  C   UNL     1      -2.533  -4.011   0.121  0.00  0.00    +0.233 C 
ATOM      3  O   UNL     1      -1.842  -3.905  -0.871  0.00  0.00    -0.274 OA
ATOM      4  H   UNL     1      -2.735  -3.461   2.050  0.00  0.00    +0.173 HD
ENDROOT
BRANCH   2   5
ATOM      5  C   UNL     1      -3.782  -4.853   0.082  0.00  0.00    +0.094 C 
ATOM      6  C   UNL     1      -3.416  -6.365  -0.009  0.00  0.00    +0.002 C 
ATOM      7  C   UNL     1      -2.346  -6.440  -1.141  0.00  0.00    +0.004 C 
ATOM      8  C   UNL     1      -3.131  -6.149  -2.441  0.00  0.00    +0.004 C 
ATOM      9  C   UNL     1      -4.601  -5.926  -1.972  0.00  0.00    +0.004 C 
ATOM     10  C   UNL     1      -4.684  -6.927  -0.743  0.00  0.00    +0.008 C 
ATOM     11  C   UNL     1      -4.587  -4.564  -1.206  0.00  0.00    +0.117 C 
BRANCH  11  12
ATOM     12  C   UNL     1      -3.884  -3.526  -2.043  0.00  0.00    +0.360 C 
ATOM     13  O   UNL     1      -3.696  -3.727  -3.231  0.00  0.00    -0.246 OA
ATOM     14  O   UNL     1      -3.504  -2.486  -1.532  0.00  0.00    -0.246 OA
ENDBRANCH  11  12
ENDBRANCH   2   5
BRANCH   1  17
ATOM     15  C   UNL     1      -0.672  -1.958   2.429  0.00  0.00    +0.260 C 
ATOM     16  O   UNL     1      -1.364  -2.065   3.423  0.00  0.00    -0.269 OA
ATOM     17  N   UNL     1      -1.022  -2.593   1.293  0.00  0.00    -0.230 N 
ATOM     18  H   UNL     1      -0.469  -2.508   0.500  0.00  0.00    +0.173 HD
BRANCH  15  24
ATOM     19  C   UNL     1       0.919  -0.474   3.643  0.00  0.00    +0.014 A 
ATOM     20  C   UNL     1       2.063   0.294   3.672  0.00  0.00    +0.021 A 
ATOM     21  C   UNL     1       2.850   0.413   2.538  0.00  0.00    +0.041 A 
ATOM     22  C   UNL     1       2.493  -0.238   1.369  0.00  0.00    +0.021 A 
ATOM     23  C   UNL     1       1.351  -1.009   1.327  0.00  0.00    +0.014 A 
ATOM     24  C   UNL     1       0.554  -1.133   2.467  0.00  0.00    +0.038 A 
ATOM     25 CL   UNL     1       4.289   1.383   2.583  0.00  0.00    -0.084 Cl
ENDBRANCH  15  24
ENDBRANCH   1  17
TORSDOF 4
