REMARK  Name = ZINC40717757
REMARK  3 active torsions:
REMARK  status: ('A' for Active; 'I' for Inactive)
REMARK    1  A    between atoms: C_1  and  C_2
REMARK    2  A    between atoms: N_6  and  C_8
REMARK    3  A    between atoms: C_13  and  N_14
REMARK                            x       y       z     vdW  Elec       q    Type
REMARK                         _______ _______ _______ _____ _____    ______ ____
ROOT
ATOM      1  C   UNL     1       2.450  -2.471   1.510  0.00  0.00    +0.052 A 
ATOM      2  C   UNL     1       3.788  -2.120   1.602  0.00  0.00    +0.048 A 
ATOM      3  C   UNL     1       4.653  -2.884   2.373  0.00  0.00    +0.038 A 
ATOM      4  C   UNL     1       4.178  -3.999   3.052  0.00  0.00    -0.024 A 
ATOM      5  C   UNL     1       2.845  -4.351   2.961  0.00  0.00    +0.030 A 
ATOM      6  C   UNL     1       1.976  -3.588   2.196  0.00  0.00    +0.046 A 
ATOM      7  C   UNL     1       5.122  -4.824   3.889  0.00  0.00    +0.046 C 
ATOM      8  C   UNL     1       6.506  -4.834   3.239  0.00  0.00    +0.101 C 
ATOM      9  C   UNL     1       6.916  -3.430   2.885  0.00  0.00    +0.218 C 
ATOM     10  O   UNL     1       8.081  -3.105   2.975  0.00  0.00    -0.275 OA
ATOM     11  N   UNL     1       6.005  -2.531   2.469  0.00  0.00    -0.285 N 
ATOM     12  H   UNL     1       6.287  -1.634   2.233  0.00  0.00    +0.155 HD
ENDROOT
BRANCH   1  17
ATOM     13  C   UNL     1      -0.019   1.526   0.010  0.00  0.00    +0.009 C 
ATOM     14  C   UNL     1       0.002  -0.004   0.002  0.00  0.00    +0.005 C 
ATOM     15  C   UNL     1       0.806  -0.535  -1.214  0.00  0.00    +0.023 C 
ATOM     16  C   UNL     1       1.279  -1.916  -0.695  0.00  0.00    +0.105 C 
ATOM     17  N   UNL     1       1.575  -1.701   0.733  0.00  0.00    -0.328 N 
ATOM     18  C   UNL     1       0.795  -0.546   1.210  0.00  0.00    +0.108 C 
ENDBRANCH   1  17
BRANCH   6  19
ATOM     19  N   UNL     1       0.622  -3.943   2.109  0.00  0.00    -0.357 N 
ATOM     20  H   UNL     1       0.015  -3.411   1.572  0.00  0.00    +0.142 HD
ATOM     21  H   UNL     1       0.292  -4.720   2.587  0.00  0.00    +0.142 HD
ENDBRANCH   6  19
TORSDOF 2
