REMARK  Name = ZINC35684919
REMARK  7 active torsions:
REMARK  status: ('A' for Active; 'I' for Inactive)
REMARK    1  A    between atoms: C_1  and  C_2
REMARK    2  A    between atoms: C_3  and  C_27
REMARK    3  A    between atoms: C_11  and  C_13
REMARK    4  A    between atoms: N_15  and  C_16
REMARK    5  A    between atoms: C_18  and  C_24
REMARK    6  A    between atoms: C_21  and  O_22
REMARK    7  A    between atoms: O_22  and  C_23
REMARK                            x       y       z     vdW  Elec       q    Type
REMARK                         _______ _______ _______ _____ _____    ______ ____
ROOT
ATOM      1  C   UNL     1      -0.231   1.769   0.681  0.00  0.00    +0.049 C 
ATOM      2  C   UNL     1      -0.262   0.292   0.382  0.00  0.00    +0.017 A 
ATOM      3  C   UNL     1      -0.536  -0.298  -0.870  0.00  0.00    +0.098 A 
ATOM      4  N   UNL     1      -0.470  -1.609  -0.731  0.00  0.00    -0.169 NA
ATOM      5  N   UNL     1      -0.157  -1.890   0.595  0.00  0.00    -0.237 N 
ATOM      6  C   UNL     1      -0.029  -0.702   1.261  0.00  0.00    +0.128 A 
ATOM      7  N   UNL     1       0.288  -0.648   2.619  0.00  0.00    -0.270 N 
ATOM      8  C   UNL     1       0.750  -1.779   3.199  0.00  0.00    +0.221 C 
ATOM      9  O   UNL     1       0.931  -1.798   4.398  0.00  0.00    -0.275 OA
ATOM     10  C   UNL     1       1.043  -3.013   2.393  0.00  0.00    +0.132 C 
ATOM     11  C   UNL     1       0.031  -3.186   1.252  0.00  0.00    +0.204 C 
ATOM     12  H   UNL     1       0.181   0.171   3.129  0.00  0.00    +0.156 HD
ENDROOT
BRANCH   3  13
ATOM     13  C   UNL     1      -0.844   0.429  -2.126  0.00  0.00    +0.003 A 
ATOM     14  C   UNL     1      -1.852  -0.032  -2.970  0.00  0.00    +0.011 A 
ATOM     15  C   UNL     1      -2.135   0.648  -4.138  0.00  0.00    +0.020 A 
ATOM     16  C   UNL     1      -1.420   1.786  -4.470  0.00  0.00    +0.041 A 
ATOM     17  C   UNL     1      -0.418   2.247  -3.634  0.00  0.00    +0.020 A 
ATOM     18  C   UNL     1      -0.132   1.578  -2.461  0.00  0.00    +0.011 A 
ATOM     19 CL   UNL     1      -1.781   2.636  -5.939  0.00  0.00    -0.084 Cl
ENDBRANCH   3  13
BRANCH  11  20
ATOM     20  C   UNL     1       0.571  -4.183   0.259  0.00  0.00    +0.242 C 
ATOM     21  O   UNL     1       0.778  -3.845  -0.887  0.00  0.00    -0.273 OA
ATOM     22  N   UNL     1       0.822  -5.449   0.644  0.00  0.00    -0.281 N 
ATOM     23  H   UNL     1       0.591  -5.738   1.541  0.00  0.00    +0.155 HD
BRANCH  22  24
ATOM     24  C   UNL     1       1.416  -6.349  -0.251  0.00  0.00    +0.076 A 
ATOM     25  C   UNL     1       1.135  -6.269  -1.601  0.00  0.00    +0.042 A 
ATOM     26  C   UNL     1       1.730  -7.169  -2.491  0.00  0.00    +0.065 A 
ATOM     27  C   UNL     1       2.608  -8.146  -2.010  0.00  0.00    +0.019 A 
ATOM     28  C   UNL     1       2.885  -8.220  -0.662  0.00  0.00    +0.048 A 
ATOM     29  C   UNL     1       2.298  -7.324   0.221  0.00  0.00    +0.141 A 
BRANCH  26  30
ATOM     30  C   UNL     1       1.434  -7.088  -3.931  0.00  0.00    +0.387 C 
ATOM     31  O   UNL     1       0.665  -6.234  -4.351  0.00  0.00    -0.241 OA
ATOM     32  O   UNL     1       1.956  -7.876  -4.708  0.00  0.00    -0.241 OA
ENDBRANCH  26  30
BRANCH  29  33
ATOM     33  O   UNL     1       2.578  -7.399   1.547  0.00  0.00    -0.493 OA
ATOM     34  C   UNL     1       3.488  -8.419   1.962  0.00  0.00    +0.277 C 
ENDBRANCH  29  33
ENDBRANCH  22  24
ENDBRANCH  11  20
TORSDOF 5
