REMARK  Name = ZINC07127402
REMARK  1 active torsions:
REMARK  status: ('A' for Active; 'I' for Inactive)
REMARK    1  A    between atoms: C_10  and  C_16
REMARK                            x       y       z     vdW  Elec       q    Type
REMARK                         _______ _______ _______ _____ _____    ______ ____
ROOT
ATOM      1  C   UNL     1      -0.017   1.373   0.010  0.00  0.00    +0.002 A 
ATOM      2  C   UNL     1       1.170   2.091   0.002  0.00  0.00    +0.002 A 
ATOM      3  C   UNL     1       2.384   1.436  -0.012  0.00  0.00    +0.028 A 
ATOM      4  C   UNL     1       2.425   0.050  -0.018  0.00  0.00    +0.072 A 
ATOM      5  C   UNL     1       1.223  -0.684  -0.013  0.00  0.00    +0.091 A 
ATOM      6  C   UNL     1       0.002  -0.004   0.002  0.00  0.00    +0.030 A 
ATOM      7  N   UNL     1       1.550  -2.004  -0.028  0.00  0.00    -0.210 NA
ATOM      8  C   UNL     1       2.852  -2.134  -0.044  0.00  0.00    +0.236 A 
ATOM      9  N   UNL     1       3.434  -0.882  -0.029  0.00  0.00    -0.285 N 
ATOM     10  C   UNL     1       4.891  -0.703  -0.015  0.00  0.00    +0.214 C 
ATOM     11  N   UNL     1       5.473  -1.935  -0.577  0.00  0.00    -0.293 N 
ATOM     12  C   UNL     1       4.897  -3.148  -0.309  0.00  0.00    +0.183 C 
ATOM     13  N   UNL     1       3.600  -3.262  -0.082  0.00  0.00    -0.183 NA
ATOM     14  N   UNL     1       5.682  -4.268  -0.277  0.00  0.00    -0.331 N 
ATOM     15  H   UNL     1       6.264  -1.886  -1.136  0.00  0.00    +0.151 HD
ATOM     16  H   UNL     1       5.285  -5.133  -0.089  0.00  0.00    +0.145 HD
ATOM     17  H   UNL     1       6.635  -4.197  -0.442  0.00  0.00    +0.145 HD
ENDROOT
BRANCH  10  18
ATOM     18  C   UNL     1       5.372  -0.503   1.399  0.00  0.00    +0.064 A 
ATOM     19  C   UNL     1       5.435  -1.579   2.268  0.00  0.00    +0.133 A 
ATOM     20  C   UNL     1       5.882  -1.395   3.566  0.00  0.00    +0.039 A 
ATOM     21  C   UNL     1       6.254  -0.135   3.997  0.00  0.00    +0.006 A 
ATOM     22  C   UNL     1       6.186   0.941   3.132  0.00  0.00    +0.039 A 
ATOM     23  C   UNL     1       5.745   0.758   1.832  0.00  0.00    +0.133 A 
ATOM     24  F   UNL     1       5.678   1.810   0.987  0.00  0.00    -0.205 F 
ATOM     25  F   UNL     1       5.066  -2.809   1.849  0.00  0.00    -0.205 F 
ENDBRANCH  10  18
TORSDOF 1
