REMARK  Name = ZINC20991821
REMARK  6 active torsions:
REMARK  status: ('A' for Active; 'I' for Inactive)
REMARK    1  A    between atoms: C_1  and  C_2
REMARK    2  A    between atoms: C_4  and  N_17
REMARK    3  A    between atoms: C_7  and  N_8
REMARK    4  A    between atoms: C_9  and  C_11
REMARK    5  A    between atoms: C_18  and  C_20
REMARK    6  A    between atoms: C_29  and  C_32
REMARK                            x       y       z     vdW  Elec       q    Type
REMARK                         _______ _______ _______ _____ _____    ______ ____
ROOT
ATOM      1  N   UNL     1       6.412   6.486  -1.760  0.00  0.00    -0.285 N 
ATOM      2  C   UNL     1       5.438   6.610  -0.837  0.00  0.00    +0.220 C 
ATOM      3  O   UNL     1       5.596   7.341   0.118  0.00  0.00    -0.275 OA
ATOM      4  H   UNL     1       6.301   5.766  -2.583  0.00  0.00    +0.155 HD
ENDROOT
BRANCH   2   5
ATOM      5  C   UNL     1       4.151   5.841  -0.992  0.00  0.00    +0.078 C 
ATOM      6  C   UNL     1       3.221   6.158   0.183  0.00  0.00    +0.032 C 
ATOM      7  C   UNL     1       1.942   5.328   0.053  0.00  0.00    +0.107 C 
ATOM      8  N   UNL     1       2.282   3.900   0.046  0.00  0.00    -0.314 N 
ATOM      9  C   UNL     1       3.136   3.562  -1.099  0.00  0.00    +0.107 C 
ATOM     10  C   UNL     1       4.451   4.339  -1.004  0.00  0.00    +0.032 C 
ATOM     11  C   UNL     1       1.135   3.114   0.061  0.00  0.00    +0.144 A 
ATOM     12  C   UNL     1       1.241   1.721   0.058  0.00  0.00    +0.047 A 
ATOM     13  C   UNL     1       0.074   0.981   0.073  0.00  0.00    +0.034 A 
ATOM     14  C   UNL     1      -1.144   1.674   0.084  0.00  0.00    +0.100 A 
ATOM     15  N   UNL     1      -1.146   3.002   0.091  0.00  0.00    -0.147 NA
ATOM     16  N   UNL     1      -0.060   3.686   0.078  0.00  0.00    -0.134 NA
BRANCH  14  17
ATOM     17  C   UNL     1      -2.420   0.930   0.093  0.00  0.00    +0.039 A 
ATOM     18  C   UNL     1      -3.701   1.415   0.104  0.00  0.00    +0.018 A 
ATOM     19  C   UNL     1      -4.747   0.519   0.111  0.00  0.00    +0.008 A 
ATOM     20  C   UNL     1      -4.479  -0.812   0.106  0.00  0.00    +0.046 A 
ATOM     21  S   UNL     1      -2.694  -0.834   0.085  0.00  0.00    -0.095 S 
ENDBRANCH  14  17
ENDBRANCH   2   5
BRANCH   1  25
ATOM     22  C   UNL     1      10.002   8.997  -3.992  0.00  0.00    +0.046 C 
ATOM     23  C   UNL     1       9.326   8.506  -2.738  0.00  0.00    -0.027 A 
ATOM     24  C   UNL     1       8.191   7.724  -2.826  0.00  0.00    +0.028 A 
ATOM     25  C   UNL     1       7.566   7.276  -1.671  0.00  0.00    +0.034 A 
ATOM     26  C   UNL     1       8.088   7.604  -0.426  0.00  0.00    +0.025 A 
ATOM     27  C   UNL     1       9.224   8.382  -0.338  0.00  0.00    +0.025 A 
ATOM     28  C   UNL     1       9.847   8.835  -1.494  0.00  0.00    +0.037 A 
BRANCH  28  29
ATOM     29  N   UNL     1      11.001   9.623  -1.404  0.00  0.00    -0.281 N 
ATOM     30  C   UNL     1      11.234  10.353  -0.295  0.00  0.00    +0.248 C 
ATOM     31  O   UNL     1      10.397  10.406   0.584  0.00  0.00    -0.270 OA
ATOM     32  H   UNL     1      11.716   9.648  -2.239  0.00  0.00    +0.155 HD
BRANCH  30  33
ATOM     33  C   UNL     1      12.508  11.088  -0.149  0.00  0.00    +0.037 A 
ATOM     34  C   UNL     1      13.474  11.024  -1.155  0.00  0.00    +0.013 A 
ATOM     35  C   UNL     1      14.658  11.717  -1.014  0.00  0.00    +0.001 A 
ATOM     36  C   UNL     1      14.895  12.465   0.126  0.00  0.00    +0.000 A 
ATOM     37  C   UNL     1      13.944  12.528   1.129  0.00  0.00    +0.001 A 
ATOM     38  C   UNL     1      12.753  11.844   0.999  0.00  0.00    +0.013 A 
ENDBRANCH  30  33
ENDBRANCH  28  29
ENDBRANCH   1  25
TORSDOF 5
