REMARK  Name = ZINC01275773
REMARK  6 active torsions:
REMARK  status: ('A' for Active; 'I' for Inactive)
REMARK    1  A    between atoms: C_4  and  C_7
REMARK    2  A    between atoms: C_7  and  O_8
REMARK    3  A    between atoms: O_8  and  C_9
REMARK    4  A    between atoms: C_12  and  C_15
REMARK    5  A    between atoms: N_16  and  N_17
REMARK    6  A    between atoms: C_18  and  C_23
REMARK                            x       y       z     vdW  Elec       q    Type
REMARK                         _______ _______ _______ _____ _____    ______ ____
ROOT
ATOM      1  C   UNL     1       9.181  -3.305  -2.177  0.00  0.00    +0.141 C 
ATOM      2  N   UNL     1       9.701  -3.945  -1.175  0.00  0.00    -0.170 NA
ENDROOT
BRANCH   1   6
ATOM      3  C   UNL     1       5.750  -0.874  -1.591  0.00  0.00    +0.121 A 
ATOM      4  C   UNL     1       6.141  -1.770  -0.604  0.00  0.00    +0.046 A 
ATOM      5  C   UNL     1       7.250  -2.565  -0.792  0.00  0.00    +0.013 A 
ATOM      6  C   UNL     1       7.989  -2.461  -1.974  0.00  0.00    -0.005 A 
ATOM      7  C   UNL     1       7.596  -1.554  -2.961  0.00  0.00    +0.013 A 
ATOM      8  C   UNL     1       6.482  -0.767  -2.767  0.00  0.00    +0.046 A 
BRANCH   3   9
ATOM      9  O   UNL     1       4.652  -0.096  -1.403  0.00  0.00    -0.487 OA
BRANCH   9  10
ATOM     10  C   UNL     1       3.946  -0.258  -0.172  0.00  0.00    +0.264 C 
BRANCH  10  14
ATOM     11  C   UNL     1       0.604   2.402  -0.089  0.00  0.00    +0.000 A 
ATOM     12  C   UNL     1       1.829   2.816   0.400  0.00  0.00    +0.000 A 
ATOM     13  C   UNL     1       2.910   1.955   0.373  0.00  0.00    +0.007 A 
ATOM     14  C   UNL     1       2.767   0.681  -0.142  0.00  0.00    -0.010 A 
ATOM     15  C   UNL     1       1.542   0.267  -0.631  0.00  0.00    +0.007 A 
ATOM     16  C   UNL     1       0.461   1.127  -0.605  0.00  0.00    +0.000 A 
ENDBRANCH  10  14
ENDBRANCH   9  10
ENDBRANCH   3   9
ENDBRANCH   1   6
BRANCH   2  17
ATOM     17  N   UNL     1       9.251  -3.693   0.128  0.00  0.00    -0.185 N 
ATOM     18  C   UNL     1       9.376  -2.499   0.811  0.00  0.00    +0.204 A 
ATOM     19  N   UNL     1       8.838  -2.639   1.991  0.00  0.00    -0.125 NA
ATOM     20  N   UNL     1       8.357  -3.951   2.096  0.00  0.00    -0.119 NA
ATOM     21  C   UNL     1       8.626  -4.577   0.932  0.00  0.00    +0.223 A 
ATOM     22  S   UNL     1       8.244  -6.200   0.545  0.00  0.00    -0.007 SA
BRANCH  18  23
ATOM     23  C   UNL     1      10.009  -1.267   0.290  0.00  0.00    +0.108 A 
ATOM     24  C   UNL     1      10.140  -0.043   0.983  0.00  0.00    +0.004 A 
ATOM     25  C   UNL     1      10.772   0.827   0.168  0.00  0.00    +0.067 A 
ATOM     26  N   UNL     1      11.036   0.191  -0.998  0.00  0.00    -0.178 NA
ATOM     27  H   UNL     1      10.567  -1.962  -1.607  0.00  0.00    +0.189 HD
ATOM     28  N   UNL     1      10.555  -1.120  -0.899  0.00  0.00    -0.273 N 
ATOM     29  C   UNL     1      10.943   2.163   0.857  0.00  0.00    +0.058 C 
ATOM     30  C   UNL     1      10.718   1.871   2.357  0.00  0.00    +0.011 C 
ATOM     31  C   UNL     1       9.819   0.616   2.307  0.00  0.00    +0.039 C 
ENDBRANCH  18  23
ENDBRANCH   2  17
TORSDOF 6
