REMARK  Name = ZINC14169230
REMARK  6 active torsions:
REMARK  status: ('A' for Active; 'I' for Inactive)
REMARK    1  A    between atoms: C_1  and  C_2
REMARK    2  A    between atoms: C_3  and  C_29
REMARK    3  A    between atoms: N_8  and  S_9
REMARK    4  A    between atoms: S_9  and  C_12
REMARK    5  A    between atoms: C_15  and  N_18
REMARK    6  A    between atoms: C_19  and  C_21
REMARK                            x       y       z     vdW  Elec       q    Type
REMARK                         _______ _______ _______ _____ _____    ______ ____
ROOT
ATOM      1  C   UNL     1      -3.701  -1.535   0.023  0.00  0.00    +0.113 A 
ATOM      2  C   UNL     1      -4.292  -1.950  -1.157  0.00  0.00    +0.031 A 
ATOM      3  C   UNL     1      -5.160  -3.024  -1.156  0.00  0.00    +0.025 A 
ATOM      4  C   UNL     1      -5.450  -3.679   0.034  0.00  0.00    +0.034 A 
ATOM      5  C   UNL     1      -4.861  -3.256   1.218  0.00  0.00    +0.025 A 
ATOM      6  C   UNL     1      -3.988  -2.186   1.209  0.00  0.00    +0.031 A 
ENDROOT
BRANCH   4   7
ATOM      7  N   UNL     1      -6.334  -4.763   0.039  0.00  0.00    -0.281 N 
ATOM      8  C   UNL     1      -6.391  -5.591  -1.022  0.00  0.00    +0.255 C 
ATOM      9  O   UNL     1      -5.608  -5.455  -1.944  0.00  0.00    -0.269 OA
ATOM     10  H   UNL     1      -6.906  -4.918   0.807  0.00  0.00    +0.155 HD
BRANCH   8  11
ATOM     11  C   UNL     1      -7.396  -6.657  -1.067  0.00  0.00    +0.075 A 
ATOM     12  C   UNL     1      -7.621  -7.601  -2.048  0.00  0.00    +0.024 A 
ATOM     13  C   UNL     1      -8.652  -8.520  -1.854  0.00  0.00    -0.036 A 
ATOM     14  C   UNL     1      -9.361  -8.409  -0.700  0.00  0.00    -0.006 A 
ATOM     15  S   UNL     1      -8.643  -7.079   0.137  0.00  0.00    -0.088 S 
ATOM     16  C   UNL     1     -10.445  -9.448  -0.605  0.00  0.00    +0.043 C 
ATOM     17  C   UNL     1     -10.616  -9.966  -2.049  0.00  0.00    +0.010 C 
ATOM     18  C   UNL     1      -9.225  -9.695  -2.652  0.00  0.00    +0.036 C 
ENDBRANCH   8  11
ENDBRANCH   4   7
BRANCH   1  19
ATOM     19  S   UNL     1      -2.588  -0.170   0.016  0.00  0.00    +0.102 S 
ATOM     20  O   UNL     1      -2.597   0.369   1.331  0.00  0.00    -0.146 OA
ATOM     21  O   UNL     1      -2.908   0.610  -1.129  0.00  0.00    -0.146 OA
BRANCH  19  29
ATOM     22  C   UNL     1       1.897  -1.702  -0.702  0.00  0.00    +0.051 C 
ATOM     23  C   UNL     1       1.324  -0.324  -0.494  0.00  0.00    +0.037 A 
ATOM     24  C   UNL     1       1.988   0.857  -0.462  0.00  0.00    +0.055 A 
ATOM     25  N   UNL     1       1.067   1.828  -0.250  0.00  0.00    -0.223 N 
ATOM     26  H   UNL     1       1.278   2.773  -0.184  0.00  0.00    +0.207 HD
ATOM     27  O   UNL     1      -0.050   1.374  -0.154  0.00  0.00    -0.358 OA
ATOM     28  C   UNL     1      -0.035   0.034  -0.287  0.00  0.00    +0.270 A 
ATOM     29  N   UNL     1      -1.069  -0.778  -0.236  0.00  0.00    -0.088 NA
ATOM     30  C   UNL     1       3.473   1.054  -0.630  0.00  0.00    +0.067 C 
ENDBRANCH  19  29
ENDBRANCH   1  19
TORSDOF 4
