REMARK  Name = ZINC33113448
REMARK  7 active torsions:
REMARK  status: ('A' for Active; 'I' for Inactive)
REMARK    1  A    between atoms: C_1  and  C_2
REMARK    2  A    between atoms: C_5  and  O_33
REMARK    3  A    between atoms: C_6  and  N_8
REMARK    4  A    between atoms: C_15  and  C_18
REMARK    5  A    between atoms: C_21  and  C_23
REMARK    6  A    between atoms: N_25  and  C_26
REMARK    7  A    between atoms: O_33  and  C_34
REMARK                            x       y       z     vdW  Elec       q    Type
REMARK                         _______ _______ _______ _____ _____    ______ ____
ROOT
ATOM      1  N   UNL     1      -4.489   2.381  -1.117  0.00  0.00    -0.266 N 
ATOM      2  C   UNL     1      -3.796   1.881  -0.075  0.00  0.00    +0.307 C 
ATOM      3  O   UNL     1      -4.258   1.943   1.048  0.00  0.00    -0.252 OA
ATOM      4  N   UNL     1      -2.591   1.313  -0.277  0.00  0.00    -0.285 N 
ATOM      5  C   UNL     1      -2.068   1.132  -1.638  0.00  0.00    +0.109 C 
ATOM      6  C   UNL     1      -0.674   1.764  -1.719  0.00  0.00    +0.020 C 
ATOM      7  C   UNL     1       0.213   1.174  -0.621  0.00  0.00    +0.013 C 
ATOM      8  C   UNL     1      -0.385   1.498   0.750  0.00  0.00    +0.064 C 
ATOM      9  C   UNL     1      -1.775   0.863   0.859  0.00  0.00    +0.119 C 
ATOM     10  H   UNL     1      -4.114   2.246  -2.142  0.00  0.00    +0.156 HD
ENDROOT
BRANCH   1  16
ATOM     11  C   UNL     1      -7.184   5.387   1.690  0.00  0.00    +0.044 C 
ATOM     12  C   UNL     1      -7.022   4.537   0.457  0.00  0.00    -0.048 A 
ATOM     13  C   UNL     1      -8.056   4.440  -0.455  0.00  0.00    +0.007 A 
ATOM     14  C   UNL     1      -7.913   3.662  -1.589  0.00  0.00    +0.048 A 
ATOM     15  C   UNL     1      -6.729   2.979  -1.816  0.00  0.00    +0.141 A 
ATOM     16  C   UNL     1      -5.688   3.072  -0.895  0.00  0.00    +0.077 A 
ATOM     17  C   UNL     1      -5.839   3.855   0.240  0.00  0.00    +0.030 A 
BRANCH  15  18
ATOM     18  O   UNL     1      -6.585   2.217  -2.933  0.00  0.00    -0.493 OA
ATOM     19  C   UNL     1      -7.694   2.169  -3.833  0.00  0.00    +0.277 C 
ENDBRANCH  15  18
ENDBRANCH   1  16
BRANCH   8  20
ATOM     20  C   UNL     1       0.506   0.945   1.831  0.00  0.00    +0.107 A 
ATOM     21  N   UNL     1       0.872  -0.304   2.063  0.00  0.00    -0.145 NA
ATOM     22  N   UNL     1       1.633  -0.613   3.021  0.00  0.00    -0.136 NA
ATOM     23  C   UNL     1       2.097   0.329   3.839  0.00  0.00    +0.187 A 
ATOM     24  S   UNL     1       1.340   1.777   3.111  0.00  0.00    -0.046 S 
BRANCH  23  25
ATOM     25  C   UNL     1       2.986   0.212   5.007  0.00  0.00    +0.275 C 
ATOM     26  O   UNL     1       3.299   1.206   5.634  0.00  0.00    -0.268 OA
ATOM     27  N   UNL     1       3.452  -0.995   5.381  0.00  0.00    -0.280 N 
ATOM     28  H   UNL     1       3.093  -1.904   4.876  0.00  0.00    +0.155 HD
BRANCH  27  29
ATOM     29  C   UNL     1       4.392  -1.093   6.412  0.00  0.00    +0.035 A 
ATOM     30  C   UNL     1       4.481  -2.258   7.164  0.00  0.00    +0.023 A 
ATOM     31  C   UNL     1       5.410  -2.352   8.182  0.00  0.00    +0.003 A 
ATOM     32  C   UNL     1       6.252  -1.288   8.453  0.00  0.00    +0.020 A 
ATOM     33  C   UNL     1       6.166  -0.127   7.705  0.00  0.00    +0.043 A 
ATOM     34  C   UNL     1       5.242  -0.029   6.682  0.00  0.00    +0.043 A 
ATOM     35 CL   UNL     1       7.225   1.205   8.048  0.00  0.00    -0.083 Cl
ENDBRANCH  27  29
ENDBRANCH  23  25
ENDBRANCH   8  20
TORSDOF 5
