REMARK  Name = ZINC40982589
REMARK  9 active torsions:
REMARK  status: ('A' for Active; 'I' for Inactive)
REMARK    1  A    between atoms: C_1  and  C_2
REMARK    2  A    between atoms: C_2  and  C_3
REMARK    3  A    between atoms: C_3  and  S_4
REMARK    4  A    between atoms: S_4  and  C_5
REMARK    5  A    between atoms: C_10  and  C_26
REMARK    6  A    between atoms: C_12  and  C_16
REMARK    7  A    between atoms: C_13  and  C_15
REMARK    8  A    between atoms: N_18  and  C_19
REMARK    9  A    between atoms: C_22  and  C_25
REMARK                            x       y       z     vdW  Elec       q    Type
REMARK                         _______ _______ _______ _____ _____    ______ ____
ROOT
ATOM      1  C   UNL     1       2.261  -3.099  -1.956  0.00  0.00    +0.210 A 
ATOM      2  N   UNL     1       2.439  -2.251  -2.980  0.00  0.00    -0.187 NA
ATOM      3  C   UNL     1       2.828  -2.916  -4.034  0.00  0.00    +0.220 A 
ATOM      4  N   UNL     1       2.902  -4.228  -3.700  0.00  0.00    -0.217 N 
ATOM      5  N   UNL     1       2.541  -4.320  -2.357  0.00  0.00    -0.141 NA
ATOM      6  C   UNL     1       3.296  -5.279  -4.635  0.00  0.00    +0.213 C 
ATOM      7  C   UNL     1       3.874  -4.654  -5.877  0.00  0.00    +0.063 C 
ATOM      8  C   UNL     1       3.772  -3.346  -6.153  0.00  0.00    +0.018 C 
ATOM      9  N   UNL     1       3.137  -2.467  -5.310  0.00  0.00    -0.287 N 
ATOM     10  C   UNL     1       4.376  -2.822  -7.431  0.00  0.00    +0.061 C 
ATOM     11  H   UNL     1       2.913  -1.567  -5.596  0.00  0.00    +0.155 HD
ENDROOT
BRANCH   6  12
ATOM     12  C   UNL     1       4.331  -6.164  -3.990  0.00  0.00    +0.136 A 
ATOM     13  C   UNL     1       4.187  -7.474  -3.719  0.00  0.00    +0.048 A 
ATOM     14  C   UNL     1       5.393  -7.902  -3.118  0.00  0.00    +0.057 A 
ATOM     15  C   UNL     1       6.202  -6.828  -3.058  0.00  0.00    +0.170 A 
ATOM     16  O   UNL     1       5.556  -5.780  -3.592  0.00  0.00    -0.451 OA
ATOM     17 BR   UNL     1       7.955  -6.802  -2.348  0.00  0.00    -0.008 Br
ENDBRANCH   6  12
BRANCH   7  18
ATOM     18  C   UNL     1       4.556  -5.486  -6.795  0.00  0.00    +0.248 C 
ATOM     19  O   UNL     1       3.934  -6.289  -7.468  0.00  0.00    -0.270 OA
ATOM     20  N   UNL     1       5.894  -5.391  -6.926  0.00  0.00    -0.282 N 
ATOM     21  H   UNL     1       6.376  -4.680  -6.474  0.00  0.00    +0.155 HD
BRANCH  20  22
ATOM     22  C   UNL     1       6.588  -6.315  -7.714  0.00  0.00    +0.034 A 
ATOM     23  C   UNL     1       6.014  -6.805  -8.880  0.00  0.00    +0.023 A 
ATOM     24  C   UNL     1       6.701  -7.717  -9.655  0.00  0.00    +0.005 A 
ATOM     25  C   UNL     1       7.960  -8.143  -9.272  0.00  0.00    -0.050 A 
ATOM     26  C   UNL     1       8.534  -7.658  -8.112  0.00  0.00    +0.005 A 
ATOM     27  C   UNL     1       7.854  -6.740  -7.335  0.00  0.00    +0.023 A 
ATOM     28  C   UNL     1       8.707  -9.140 -10.121  0.00  0.00    +0.044 C 
ENDBRANCH  20  22
ENDBRANCH   7  18
BRANCH   1  29
ATOM     29  S   UNL     1       1.743  -2.648  -0.333  0.00  0.00    -0.084 S 
BRANCH  29  30
ATOM     30  C   UNL     1       1.522  -0.850  -0.427  0.00  0.00    +0.077 C 
BRANCH  30  32
ATOM     31  C   UNL     1       0.881   1.196   0.856  0.00  0.00    +0.004 C 
ATOM     32  C   UNL     1       1.067  -0.320   0.934  0.00  0.00    +0.008 C 
ENDBRANCH  30  32
ENDBRANCH  29  30
ENDBRANCH   1  29
TORSDOF 6
