REMARK  Name = ZINC09281352
REMARK  7 active torsions:
REMARK  status: ('A' for Active; 'I' for Inactive)
REMARK    1  A    between atoms: C_1  and  C_2
REMARK    2  A    between atoms: C_2  and  C_3
REMARK    3  A    between atoms: C_2  and  C_4
REMARK    4  A    between atoms: C_11  and  N_33
REMARK    5  A    between atoms: C_12  and  C_31
REMARK    6  A    between atoms: N_20  and  C_23
REMARK    7  A    between atoms: C_23  and  C_24
REMARK                            x       y       z     vdW  Elec       q    Type
REMARK                         _______ _______ _______ _____ _____    ______ ____
ROOT
ATOM      1  C   UNL     1      -1.412  -0.526   0.013  0.00  0.00    +0.047 A 
ATOM      2  C   UNL     1      -1.974  -1.307  -0.921  0.00  0.00    +0.061 A 
ATOM      3  C   UNL     1      -3.308  -1.566  -0.531  0.00  0.00    +0.245 A 
ATOM      4  N   UNL     1      -3.522  -0.956   0.598  0.00  0.00    -0.135 NA
ATOM      5  N   UNL     1      -2.341  -0.295   0.969  0.00  0.00    -0.278 N 
ATOM      6  H   UNL     1      -2.213   0.236   1.771  0.00  0.00    +0.189 HD
ATOM      7  O   UNL     1      -4.141  -2.334  -1.283  0.00  0.00    -0.421 OA
ATOM      8  C   UNL     1      -3.756  -2.633  -2.540  0.00  0.00    +0.201 C 
ATOM      9  C   UNL     1      -2.508  -2.443  -3.022  0.00  0.00    +0.110 C 
ATOM     10  C   UNL     1      -1.396  -1.868  -2.190  0.00  0.00    +0.145 C 
ATOM     11  C   UNL     1      -0.346  -2.892  -1.902  0.00  0.00    -0.001 A 
ATOM     12  C   UNL     1      -0.402  -4.099  -1.239  0.00  0.00    +0.007 A 
ATOM     13  C   UNL     1       0.781  -4.824  -1.146  0.00  0.00    +0.000 A 
ATOM     14  C   UNL     1       1.957  -4.353  -1.693  0.00  0.00    +0.002 A 
ATOM     15  C   UNL     1       2.022  -3.141  -2.362  0.00  0.00    +0.024 A 
ATOM     16  C   UNL     1       0.841  -2.404  -2.463  0.00  0.00    +0.041 A 
ATOM     17  N   UNL     1       0.618  -1.179  -3.069  0.00  0.00    -0.265 N 
ATOM     18  C   UNL     1      -0.668  -0.787  -2.959  0.00  0.00    +0.241 C 
ATOM     19  O   UNL     1      -1.150   0.238  -3.394  0.00  0.00    -0.274 OA
ENDROOT
BRANCH   1  21
ATOM     20  C   UNL     1      -0.019   1.526   0.010  0.00  0.00    +0.014 C 
ATOM     21  C   UNL     1       0.002  -0.004   0.002  0.00  0.00    +0.031 C 
ATOM     22  C   UNL     1       0.742  -0.511   1.242  0.00  0.00    +0.014 C 
ENDBRANCH   1  21
BRANCH   8  23
ATOM     23  N   UNL     1      -4.695  -3.168  -3.386  0.00  0.00    -0.328 N 
ATOM     24  H   UNL     1      -5.601  -3.318  -3.073  0.00  0.00    +0.145 HD
ATOM     25  H   UNL     1      -4.453  -3.395  -4.298  0.00  0.00    +0.145 HD
ENDBRANCH   8  23
BRANCH   9  26
ATOM     26  C   UNL     1      -2.234  -2.803  -4.381  0.00  0.00    +0.102 C 
ATOM     27  N   UNL     1      -2.017  -3.089  -5.458  0.00  0.00    -0.191 NA
ENDBRANCH   9  26
BRANCH  17  28
ATOM     28  C   UNL     1       1.657  -0.401  -3.748  0.00  0.00    +0.148 C 
BRANCH  28  29
ATOM     29  C   UNL     1       1.708  -0.794  -5.202  0.00  0.00    -0.030 A 
ATOM     30  C   UNL     1       2.532  -1.826  -5.611  0.00  0.00    +0.006 A 
ATOM     31  C   UNL     1       2.579  -2.187  -6.944  0.00  0.00    +0.020 A 
ATOM     32  C   UNL     1       1.802  -1.514  -7.870  0.00  0.00    +0.041 A 
ATOM     33  C   UNL     1       0.978  -0.481  -7.461  0.00  0.00    +0.020 A 
ATOM     34  C   UNL     1       0.927  -0.125  -6.127  0.00  0.00    +0.006 A 
ATOM     35 CL   UNL     1       1.861  -1.966  -9.546  0.00  0.00    -0.084 Cl
ENDBRANCH  28  29
ENDBRANCH  17  28
TORSDOF 5
