REMARK  Name = ZINC63472725
REMARK  3 active torsions:
REMARK  status: ('A' for Active; 'I' for Inactive)
REMARK    1  A    between atoms: C_7  and  C_10
REMARK    2  A    between atoms: C_10  and  C_11
REMARK    3  A    between atoms: N_19  and  C_22
REMARK                            x       y       z     vdW  Elec       q    Type
REMARK                         _______ _______ _______ _____ _____    ______ ____
ROOT
ATOM      1  C   UNL     1       0.457  -3.653  -1.462  0.00  0.00    +0.072 C 
ATOM      2  C   UNL     1      -0.435  -4.913  -1.478  0.00  0.00    +0.107 C 
ATOM      3  C   UNL     1      -1.354  -4.736  -2.719  0.00  0.00    +0.122 C 
ATOM      4  C   UNL     1      -2.734  -4.611  -2.114  0.00  0.00    +0.228 C 
ATOM      5  O   UNL     1      -3.762  -4.463  -2.740  0.00  0.00    -0.275 OA
ATOM      6  N   UNL     1      -2.645  -4.689  -0.781  0.00  0.00    -0.238 N 
ATOM      7  C   UNL     1      -1.390  -4.864  -0.308  0.00  0.00    +0.227 C 
ATOM      8  O   UNL     1      -1.074  -4.965   0.859  0.00  0.00    -0.275 OA
ATOM      9  C   UNL     1      -0.921  -3.398  -3.331  0.00  0.00    +0.136 C 
ATOM     10  N   UNL     1      -0.310  -2.629  -2.220  0.00  0.00    -0.295 NA
ATOM     11  C   UNL     1       0.029  -3.599  -4.477  0.00  0.00    +0.006 A 
ATOM     12  C   UNL     1       1.265  -4.197  -4.590  0.00  0.00    +0.046 A 
ATOM     13  C   UNL     1       1.911  -4.226  -5.815  0.00  0.00    +0.124 A 
ATOM     14  C   UNL     1       1.311  -3.652  -6.923  0.00  0.00    +0.040 A 
ATOM     15  C   UNL     1       0.074  -3.051  -6.812  0.00  0.00    +0.026 A 
ATOM     16  C   UNL     1      -0.582  -3.018  -5.584  0.00  0.00    +0.039 A 
ATOM     17  N   UNL     1      -1.819  -2.476  -5.224  0.00  0.00    -0.283 N 
ATOM     18  C   UNL     1      -2.091  -2.657  -3.917  0.00  0.00    +0.243 C 
ATOM     19  O   UNL     1      -3.087  -2.293  -3.328  0.00  0.00    -0.273 OA
ATOM     20  F   UNL     1       3.123  -4.812  -5.928  0.00  0.00    -0.205 F 
ATOM     21  H   UNL     1      -1.012  -2.198  -1.638  0.00  0.00    +0.124 HD
ATOM     22  H   UNL     1      -2.412  -2.023  -5.843  0.00  0.00    +0.155 HD
ENDROOT
BRANCH   6  23
ATOM     23  C   UNL     1      -3.813  -4.599   0.098  0.00  0.00    +0.084 C 
ATOM     24  C   UNL     1      -3.650  -3.407   1.043  0.00  0.00    +0.023 C 
ATOM     25  C   UNL     1      -4.870  -3.313   1.961  0.00  0.00    +0.002 C 
ATOM     26  C   UNL     1      -4.993  -4.600   2.779  0.00  0.00    +0.000 C 
ATOM     27  C   UNL     1      -5.157  -5.792   1.834  0.00  0.00    +0.002 C 
ATOM     28  C   UNL     1      -3.936  -5.886   0.916  0.00  0.00    +0.023 C 
ENDBRANCH   6  23
BRANCH   1  29
ATOM     29  C   UNL     1       0.691  -3.186  -0.024  0.00  0.00    +0.052 C 
BRANCH  29  36
ATOM     30  C   UNL     1      -0.016   1.348   0.009  0.00  0.00    +0.001 A 
ATOM     31  C   UNL     1       1.166   2.101   0.002  0.00  0.00    +0.002 A 
ATOM     32  C   UNL     1       2.391   1.535  -0.013  0.00  0.00    +0.026 A 
ATOM     33  C   UNL     1       2.529   0.120  -0.022  0.00  0.00    +0.043 A 
ATOM     34  N   UNL     1       3.587  -0.654  -0.037  0.00  0.00    -0.380 N 
ATOM     35  C   UNL     1       3.143  -2.053  -0.041  0.00  0.00    +0.144 C 
ATOM     36  C   UNL     1       1.631  -2.008  -0.025  0.00  0.00    -0.040 C 
ATOM     37  C   UNL     1       1.295  -0.698  -0.014  0.00  0.00    -0.001 A 
ATOM     38  C   UNL     1       0.002  -0.004   0.002  0.00  0.00    +0.010 A 
ATOM     39  H   UNL     1       4.509  -0.353  -0.045  0.00  0.00    +0.160 HD
ENDBRANCH  29  36
ENDBRANCH   1  29
TORSDOF 3
