REMARK  Name = ZINC37732120
REMARK  4 active torsions:
REMARK  status: ('A' for Active; 'I' for Inactive)
REMARK    1  A    between atoms: C_9  and  N_11
REMARK    2  A    between atoms: N_11  and  S_12
REMARK    3  A    between atoms: S_12  and  C_15
REMARK    4  A    between atoms: C_16  and  C_21
REMARK                            x       y       z     vdW  Elec       q    Type
REMARK                         _______ _______ _______ _____ _____    ______ ____
ROOT
ATOM      1  S   UNL     1       5.833   0.505  -0.503  0.00  0.00    +0.077 S 
ATOM      2  O   UNL     1       6.633   0.941  -1.594  0.00  0.00    -0.152 OA
ATOM      3  O   UNL     1       5.153   1.413   0.352  0.00  0.00    -0.152 OA
ENDROOT
BRANCH   1   4
ATOM      4  C   UNL     1       6.875  -0.473   0.526  0.00  0.00    +0.204 A 
ATOM      5  C   UNL     1       7.696  -1.507   0.115  0.00  0.00    +0.127 A 
ATOM      6  C   UNL     1       8.346  -2.007   1.267  0.00  0.00    +0.151 A 
ATOM      7  N   UNL     1       7.937  -1.313   2.293  0.00  0.00    -0.180 NA
ATOM      8  N   UNL     1       7.024  -0.347   1.854  0.00  0.00    -0.259 N 
ATOM      9  H   UNL     1       6.573   0.302   2.415  0.00  0.00    +0.190 HD
BRANCH   5  10
ATOM     10  C   UNL     1       7.860  -1.996  -1.262  0.00  0.00    +0.391 C 
ATOM     11  O   UNL     1       8.696  -2.855  -1.511  0.00  0.00    -0.240 OA
ATOM     12  O   UNL     1       7.162  -1.545  -2.159  0.00  0.00    -0.240 OA
ENDBRANCH   5  10
ENDBRANCH   1   4
BRANCH   1  13
ATOM     13  N   UNL     1       4.681  -0.504  -1.134  0.00  0.00    -0.181 NA
ATOM     14  H   UNL     1       4.658  -0.678  -2.088  0.00  0.00    +0.149 HD
BRANCH  13  23
ATOM     15  C   UNL     1      -0.196   0.607  -0.357  0.00  0.00    +0.000 A 
ATOM     16  C   UNL     1       0.868   1.486  -0.272  0.00  0.00    +0.000 A 
ATOM     17  C   UNL     1       2.161   1.002  -0.233  0.00  0.00    +0.005 A 
ATOM     18  C   UNL     1       2.396  -0.362  -0.278  0.00  0.00    -0.026 A 
ATOM     19  C   UNL     1       1.333  -1.241  -0.363  0.00  0.00    -0.043 A 
ATOM     20  C   UNL     1       0.037  -0.754  -0.402  0.00  0.00    +0.004 A 
ATOM     21  C   UNL     1       1.847  -2.665  -0.399  0.00  0.00    +0.037 C 
ATOM     22  C   UNL     1       3.341  -2.545  -0.767  0.00  0.00    +0.030 C 
ATOM     23  C   UNL     1       3.697  -1.135  -0.251  0.00  0.00    +0.107 C 
ENDBRANCH  13  23
ENDBRANCH   1  13
TORSDOF 4
