REMARK  Name = ZINC22410264
REMARK  7 active torsions:
REMARK  status: ('A' for Active; 'I' for Inactive)
REMARK    1  A    between atoms: C_4  and  O_7
REMARK    2  A    between atoms: O_7  and  C_8
REMARK    3  A    between atoms: C_13  and  N_14
REMARK    4  A    between atoms: N_14  and  S_15
REMARK    5  A    between atoms: S_15  and  C_18
REMARK    6  A    between atoms: C_22  and  S_24
REMARK    7  A    between atoms: S_24  and  N_27
REMARK                            x       y       z     vdW  Elec       q    Type
REMARK                         _______ _______ _______ _____ _____    ______ ____
ROOT
ATOM      1  N   UNL     1      -0.085   4.863  -4.750  0.00  0.00    -0.094 NA
ENDROOT
BRANCH   1   7
ATOM      2  C   UNL     1       0.808   3.381  -6.441  0.00  0.00    +0.153 A 
ATOM      3  C   UNL     1       0.622   2.606  -7.574  0.00  0.00    +0.050 A 
ATOM      4  C   UNL     1      -0.623   2.539  -8.170  0.00  0.00    +0.024 A 
ATOM      5  C   UNL     1      -1.689   3.241  -7.635  0.00  0.00    +0.043 A 
ATOM      6  C   UNL     1      -1.513   4.012  -6.501  0.00  0.00    +0.050 A 
ATOM      7  C   UNL     1      -0.266   4.084  -5.897  0.00  0.00    +0.118 A 
ATOM      8 CL   UNL     1      -3.250   3.153  -8.389  0.00  0.00    -0.083 Cl
BRANCH   2   9
ATOM      9  O   UNL     1       2.034   3.453  -5.857  0.00  0.00    -0.454 OA
BRANCH   9  13
ATOM     10  C   UNL     1       4.349   6.782  -6.614  0.00  0.00    +0.000 A 
ATOM     11  C   UNL     1       4.773   5.842  -5.693  0.00  0.00    +0.004 A 
ATOM     12  C   UNL     1       3.999   4.726  -5.438  0.00  0.00    +0.046 A 
ATOM     13  C   UNL     1       2.797   4.549  -6.106  0.00  0.00    +0.129 A 
ATOM     14  C   UNL     1       2.377   5.491  -7.035  0.00  0.00    +0.046 A 
ATOM     15  C   UNL     1       3.151   6.608  -7.282  0.00  0.00    +0.004 A 
ENDBRANCH   9  13
ENDBRANCH   2   9
ENDBRANCH   1   7
BRANCH   1  16
ATOM     16  S   UNL     1      -1.296   4.975  -3.626  0.00  0.00    +0.092 S 
ATOM     17  O   UNL     1      -2.468   5.364  -4.329  0.00  0.00    -0.148 OA
ATOM     18  O   UNL     1      -0.774   5.729  -2.540  0.00  0.00    -0.148 OA
BRANCH  16  19
ATOM     19  C   UNL     1      -1.592   3.349  -3.015  0.00  0.00    +0.112 A 
ATOM     20  C   UNL     1      -2.522   2.536  -3.635  0.00  0.00    +0.029 A 
ATOM     21  C   UNL     1      -2.754   1.260  -3.156  0.00  0.00    +0.004 A 
ATOM     22  C   UNL     1      -2.052   0.796  -2.059  0.00  0.00    +0.028 A 
ATOM     23  C   UNL     1      -1.126   1.611  -1.436  0.00  0.00    +0.107 A 
ATOM     24  C   UNL     1      -0.894   2.887  -1.915  0.00  0.00    +0.057 A 
BRANCH  23  25
ATOM     25  S   UNL     1      -0.235   1.021  -0.035  0.00  0.00    +0.056 S 
ATOM     26  O   UNL     1      -0.241  -0.398  -0.117  0.00  0.00    -0.153 OA
ATOM     27  O   UNL     1       0.967   1.775   0.030  0.00  0.00    -0.153 OA
BRANCH  25  28
ATOM     28  N   UNL     1      -1.117   1.420   1.309  0.00  0.00    -0.204 NA
ATOM     29  H   UNL     1      -0.592   1.068   2.210  0.00  0.00    +0.144 HD
ATOM     30  H   UNL     1      -2.107   0.946   1.252  0.00  0.00    +0.144 HD
ENDBRANCH  25  28
ENDBRANCH  23  25
ENDBRANCH  16  19
ENDBRANCH   1  16
TORSDOF 7
