REMARK  Name = ZINC65301166
REMARK  8 active torsions:
REMARK  status: ('A' for Active; 'I' for Inactive)
REMARK    1  A    between atoms: C_1  and  C_2
REMARK    2  A    between atoms: C_2  and  C_3
REMARK    3  A    between atoms: C_6  and  N_9
REMARK    4  A    between atoms: C_10  and  C_12
REMARK    5  A    between atoms: N_15  and  C_18
REMARK    6  A    between atoms: C_19  and  C_28
REMARK    7  A    between atoms: C_24  and  C_27
REMARK    8  A    between atoms: C_33  and  C_36
REMARK                            x       y       z     vdW  Elec       q    Type
REMARK                         _______ _______ _______ _____ _____    ______ ____
ROOT
ATOM      1  C   UNL     1       2.930  -5.460  10.185  0.00  0.00    +0.055 A 
ATOM      2  C   UNL     1       2.184  -6.631   9.988  0.00  0.00    +0.074 A 
ATOM      3  C   UNL     1       2.319  -7.704  10.877  0.00  0.00    +0.098 A 
ATOM      4  N   UNL     1       3.142  -7.623  11.901  0.00  0.00    -0.353 N 
ATOM      5  C   UNL     1       3.862  -6.544  12.126  0.00  0.00    +0.107 A 
ATOM      6  C   UNL     1       3.815  -5.401  11.293  0.00  0.00    +0.050 A 
ATOM      7  C   UNL     1       4.673  -4.375  11.724  0.00  0.00    +0.058 A 
ATOM      8  N   UNL     1       5.410  -4.528  12.781  0.00  0.00    -0.213 NA
ATOM      9  S   UNL     1       5.046  -6.059  13.356  0.00  0.00    +0.030 S 
ATOM     10  C   UNL     1       4.739  -3.084  10.949  0.00  0.00    +0.067 C 
ATOM     11  H   UNL     1       3.220  -8.378  12.505  0.00  0.00    +0.166 HD
ENDROOT
BRANCH   2  12
ATOM     12  C   UNL     1       1.260  -6.732   8.847  0.00  0.00    +0.250 C 
ATOM     13  O   UNL     1       1.682  -6.625   7.711  0.00  0.00    -0.270 OA
ATOM     14  N   UNL     1      -0.054  -6.942   9.060  0.00  0.00    -0.297 N 
ATOM     15  C   UNL     1      -0.597  -6.961  10.426  0.00  0.00    +0.108 C 
ATOM     16  C   UNL     1      -1.760  -5.967  10.507  0.00  0.00    +0.022 C 
ATOM     17  C   UNL     1      -2.785  -6.296   9.419  0.00  0.00    -0.011 C 
ATOM     18  C   UNL     1      -2.130  -6.161   8.042  0.00  0.00    +0.022 C 
ATOM     19  C   UNL     1      -0.972  -7.151   7.932  0.00  0.00    +0.108 C 
ATOM     20  C   UNL     1      -3.964  -5.327   9.520  0.00  0.00    +0.007 C 
ENDBRANCH   2  12
BRANCH   1  24
ATOM     21  C   UNL     1       1.861  -2.911   7.104  0.00  0.00    +0.078 C 
ATOM     22  C   UNL     1       2.788  -4.111   6.896  0.00  0.00    +0.031 C 
ATOM     23  C   UNL     1       3.672  -4.290   8.133  0.00  0.00    +0.106 C 
ATOM     24  N   UNL     1       2.811  -4.392   9.319  0.00  0.00    -0.329 N 
ATOM     25  C   UNL     1       1.820  -3.336   9.566  0.00  0.00    +0.106 C 
ATOM     26  C   UNL     1       0.956  -3.168   8.312  0.00  0.00    +0.031 C 
BRANCH  21  28
ATOM     27  N   UNL     1       1.597  -2.470   4.685  0.00  0.00    -0.285 N 
ATOM     28  C   UNL     1       1.013  -2.712   5.875  0.00  0.00    +0.220 C 
ATOM     29  O   UNL     1      -0.196  -2.769   5.956  0.00  0.00    -0.275 OA
ATOM     30  H   UNL     1       2.564  -2.499   4.605  0.00  0.00    +0.155 HD
BRANCH  27  34
ATOM     31  C   UNL     1      -0.744  -1.598   1.351  0.00  0.00    -0.048 A 
ATOM     32  C   UNL     1      -1.181  -1.241   2.614  0.00  0.00    +0.005 A 
ATOM     33  C   UNL     1      -0.407  -1.528   3.721  0.00  0.00    +0.023 A 
ATOM     34  C   UNL     1       0.811  -2.178   3.565  0.00  0.00    +0.033 A 
ATOM     35  C   UNL     1       1.246  -2.536   2.296  0.00  0.00    +0.023 A 
ATOM     36  C   UNL     1       0.465  -2.250   1.193  0.00  0.00    +0.005 A 
BRANCH  31  38
ATOM     37  C   UNL     1      -2.545  -2.448  -0.127  0.00  0.00    +0.009 C 
ATOM     38  C   UNL     1      -1.591  -1.283   0.145  0.00  0.00    +0.032 C 
ENDBRANCH  31  38
ENDBRANCH  27  34
ENDBRANCH  21  28
ENDBRANCH   1  24
TORSDOF 5
