REMARK  Name = ZINC34923108
REMARK  11 active torsions:
REMARK  status: ('A' for Active; 'I' for Inactive)
REMARK    1  A    between atoms: C_1  and  C_2
REMARK    2  A    between atoms: C_2  and  C_3
REMARK    3  A    between atoms: C_4  and  C_31
REMARK    4  A    between atoms: C_5  and  C_24
REMARK    5  A    between atoms: C_8  and  C_13
REMARK    6  A    between atoms: C_14  and  N_16
REMARK    7  A    between atoms: N_16  and  C_17
REMARK    8  A    between atoms: C_17  and  C_18
REMARK    9  A    between atoms: C_18  and  C_19
REMARK   10  A    between atoms: C_31  and  O_33
REMARK   11  A    between atoms: O_33  and  C_34
REMARK                            x       y       z     vdW  Elec       q    Type
REMARK                         _______ _______ _______ _____ _____    ______ ____
ROOT
ATOM      1  C   UNL     1       0.922  -0.761  -1.274  0.00  0.00    +0.056 C 
ATOM      2  C   UNL     1       2.291  -0.891  -1.401  0.00  0.00    +0.083 C 
ATOM      3  C   UNL     1       2.844  -1.223  -2.769  0.00  0.00    +0.152 C 
ATOM      4  N   UNL     1       1.863  -1.384  -3.875  0.00  0.00    -0.267 N 
ATOM      5  C   UNL     1       2.138  -1.684  -5.194  0.00  0.00    +0.048 C 
ATOM      6  C   UNL     1       1.094  -1.786  -6.045  0.00  0.00    +0.072 C 
ATOM      7  S   UNL     1      -0.290  -1.455  -4.973  0.00  0.00    -0.060 S 
ATOM      8  C   UNL     1       0.549  -1.213  -3.539  0.00  0.00    +0.166 C 
ATOM      9  N   UNL     1       0.132  -0.929  -2.322  0.00  0.00    -0.229 NA
ENDROOT
BRANCH   3  10
ATOM     10  C   UNL     1       3.806  -0.130  -3.159  0.00  0.00    +0.013 A 
ATOM     11  C   UNL     1       3.359   0.957  -3.885  0.00  0.00    +0.008 A 
ATOM     12  C   UNL     1       4.241   1.960  -4.242  0.00  0.00    +0.001 A 
ATOM     13  C   UNL     1       5.571   1.876  -3.873  0.00  0.00    +0.003 A 
ATOM     14  C   UNL     1       6.020   0.790  -3.147  0.00  0.00    +0.039 A 
ATOM     15  C   UNL     1       5.136  -0.212  -2.784  0.00  0.00    +0.129 A 
ATOM     16  F   UNL     1       5.573  -1.272  -2.069  0.00  0.00    -0.205 F 
ENDBRANCH   3  10
BRANCH   5  17
ATOM     17  C   UNL     1       3.519  -1.886  -5.656  0.00  0.00    +0.091 C 
ATOM     18  C   UNL     1       3.754  -2.302  -6.915  0.00  0.00    +0.239 C 
ATOM     19  O   UNL     1       2.727  -2.427  -7.790  0.00  0.00    -0.271 OA
BRANCH  18  20
ATOM     20  N   UNL     1       5.045  -2.601  -7.316  0.00  0.00    -0.311 N 
ATOM     21  H   UNL     1       5.781  -2.511  -6.690  0.00  0.00    +0.149 HD
BRANCH  20  22
ATOM     22  C   UNL     1       5.301  -3.053  -8.686  0.00  0.00    +0.109 C 
BRANCH  22  23
ATOM     23  C   UNL     1       6.798  -3.313  -8.866  0.00  0.00    +0.061 C 
BRANCH  23  24
ATOM     24  C   UNL     1       7.061  -3.779 -10.275  0.00  0.00    -0.009 A 
ATOM     25  C   UNL     1       7.352  -3.044 -11.377  0.00  0.00    +0.011 A 
ATOM     26  C   UNL     1       7.558  -3.692 -12.580  0.00  0.00    +0.008 A 
ATOM     27  C   UNL     1       7.462  -5.044 -12.623  0.00  0.00    +0.045 A 
ATOM     28  S   UNL     1       7.077  -5.441 -10.926  0.00  0.00    -0.102 S 
ENDBRANCH  23  24
ENDBRANCH  22  23
ENDBRANCH  20  22
ENDBRANCH  18  20
ENDBRANCH   5  17
BRANCH   1  30
ATOM     29  C   UNL     1       0.123   1.081   0.181  0.00  0.00    +0.010 C 
ATOM     30  C   UNL     1       0.323  -0.432   0.069  0.00  0.00    +0.053 C 
ENDBRANCH   1  30
BRANCH   2  31
ATOM     31  C   UNL     1       3.139  -0.722  -0.300  0.00  0.00    +0.339 C 
ATOM     32  O   UNL     1       3.610  -1.695   0.263  0.00  0.00    -0.245 OA
BRANCH  31  33
ATOM     33  O   UNL     1       3.437   0.522   0.138  0.00  0.00    -0.465 OA
ATOM     34  C   UNL     1       4.308   0.621   1.266  0.00  0.00    +0.280 C 
ENDBRANCH  31  33
ENDBRANCH   2  31
TORSDOF 9
