REMARK  Name = ZINC06296790
REMARK  7 active torsions:
REMARK  status: ('A' for Active; 'I' for Inactive)
REMARK    1  A    between atoms: C_3  and  N_34
REMARK    2  A    between atoms: C_6  and  C_7
REMARK    3  A    between atoms: C_9  and  C_25
REMARK    4  A    between atoms: N_13  and  C_14
REMARK    5  A    between atoms: C_17  and  S_20
REMARK    6  A    between atoms: S_20  and  N_23
REMARK    7  A    between atoms: C_25  and  C_27
REMARK                            x       y       z     vdW  Elec       q    Type
REMARK                         _______ _______ _______ _____ _____    ______ ____
ROOT
ATOM      1  C   UNL     1      -3.314   4.864   5.390  0.00  0.00    +0.150 C 
ATOM      2  C   UNL     1      -4.017   4.327   6.615  0.00  0.00    +0.077 C 
ATOM      3  C   UNL     1      -4.150   2.992   6.436  0.00  0.00    +0.250 C 
ATOM      4  C   UNL     1      -3.566   2.617   5.131  0.00  0.00    +0.292 C 
ATOM      5  O   UNL     1      -3.536   1.489   4.679  0.00  0.00    -0.266 OA
ATOM      6  N   UNL     1      -3.071   3.708   4.519  0.00  0.00    -0.253 N 
ATOM      7  O   UNL     1      -4.730   2.137   7.310  0.00  0.00    -0.282 OA
ENDROOT
BRANCH   1  13
ATOM      8  C   UNL     1      -5.281   5.437   3.951  0.00  0.00    +0.008 A 
ATOM      9  C   UNL     1      -6.089   6.357   3.310  0.00  0.00    +0.033 A 
ATOM     10  C   UNL     1      -5.803   7.707   3.396  0.00  0.00    +0.126 A 
ATOM     11  C   UNL     1      -4.711   8.136   4.128  0.00  0.00    +0.033 A 
ATOM     12  C   UNL     1      -3.906   7.216   4.772  0.00  0.00    +0.008 A 
ATOM     13  C   UNL     1      -4.192   5.867   4.687  0.00  0.00    -0.022 A 
BRANCH  10  14
ATOM     14  N   UNL     1      -6.665   8.692   2.705  0.00  0.00    +0.056 N 
ATOM     15  O   UNL     1      -6.412   9.881   2.781  0.00  0.00    -0.126 OA
ATOM     16  O   UNL     1      -7.626   8.313   2.061  0.00  0.00    -0.126 OA
ENDBRANCH  10  14
ENDBRANCH   1  13
BRANCH   6  17
ATOM     17  C   UNL     1      -2.443   3.736   3.271  0.00  0.00    +0.038 A 
ATOM     18  C   UNL     1      -2.277   2.561   2.548  0.00  0.00    +0.025 A 
ATOM     19  C   UNL     1      -1.655   2.592   1.316  0.00  0.00    +0.030 A 
ATOM     20  C   UNL     1      -1.198   3.791   0.801  0.00  0.00    +0.105 A 
ATOM     21  C   UNL     1      -1.356   4.962   1.520  0.00  0.00    +0.030 A 
ATOM     22  C   UNL     1      -1.982   4.938   2.751  0.00  0.00    +0.025 A 
BRANCH  20  23
ATOM     23  S   UNL     1      -0.404   3.827  -0.772  0.00  0.00    +0.056 S 
ATOM     24  O   UNL     1       0.113   2.522  -0.996  0.00  0.00    -0.153 OA
ATOM     25  O   UNL     1       0.418   4.986  -0.786  0.00  0.00    -0.153 OA
BRANCH  23  26
ATOM     26  N   UNL     1      -1.583   4.070  -1.910  0.00  0.00    -0.204 NA
ATOM     27  H   UNL     1      -1.127   4.098  -2.910  0.00  0.00    +0.144 HD
ATOM     28  H   UNL     1      -2.093   5.024  -1.712  0.00  0.00    +0.144 HD
ENDBRANCH  23  26
ENDBRANCH  20  23
ENDBRANCH   6  17
BRANCH   2  29
ATOM     29  C   UNL     1      -4.467   5.103   7.774  0.00  0.00    +0.195 C 
ATOM     30  O   UNL     1      -5.654   5.180   8.030  0.00  0.00    -0.287 OA
BRANCH  29  31
ATOM     31  C   UNL     1      -3.479   5.791   8.632  0.00  0.00    +0.022 A 
ATOM     32  C   UNL     1      -2.112   5.606   8.414  0.00  0.00    +0.013 A 
ATOM     33  C   UNL     1      -1.196   6.256   9.213  0.00  0.00    +0.021 A 
ATOM     34  C   UNL     1      -1.629   7.080  10.239  0.00  0.00    +0.041 A 
ATOM     35  C   UNL     1      -2.984   7.263  10.465  0.00  0.00    +0.021 A 
ATOM     36  C   UNL     1      -3.910   6.623   9.668  0.00  0.00    +0.013 A 
ATOM     37 CL   UNL     1      -0.469   7.889  11.246  0.00  0.00    -0.084 Cl
ENDBRANCH  29  31
ENDBRANCH   2  29
TORSDOF 7
