REMARK  Name = ZINC43218174
REMARK  14 active torsions:
REMARK  status: ('A' for Active; 'I' for Inactive)
REMARK    1  A    between atoms: C_1  and  C_2
REMARK    2  A    between atoms: C_2  and  C_3
REMARK    3  A    between atoms: C_2  and  C_4
REMARK    4  A    between atoms: C_14  and  C_36
REMARK    5  A    between atoms: C_18  and  C_19
REMARK    6  A    between atoms: C_18  and  C_20
REMARK    7  A    between atoms: C_20  and  N_21
REMARK    8  A    between atoms: C_22  and  C_24
REMARK    9  A    between atoms: C_27  and  C_29
REMARK   10  A    between atoms: C_29  and  C_31
REMARK   11  A    between atoms: C_29  and  N_35
REMARK   12  A    between atoms: C_31  and  C_32
REMARK   13  A    between atoms: C_32  and  S_33
REMARK   14  A    between atoms: S_33  and  C_34
REMARK                            x       y       z     vdW  Elec       q    Type
REMARK                         _______ _______ _______ _____ _____    ______ ____
ROOT
ATOM      1  C   UNL     1       0.702  -0.346   1.096  0.00  0.00    -0.045 A 
ATOM      2  C   UNL     1       2.022   0.003   1.313  0.00  0.00    +0.004 A 
ATOM      3  C   UNL     1       2.686  -0.492   2.418  0.00  0.00    +0.005 A 
ATOM      4  C   UNL     1       2.037  -1.331   3.308  0.00  0.00    -0.038 A 
ATOM      5  C   UNL     1       0.723  -1.685   3.098  0.00  0.00    -0.043 A 
ATOM      6  C   UNL     1       0.059  -1.184   1.982  0.00  0.00    +0.007 A 
ATOM      7  C   UNL     1      -0.056  -2.590   4.012  0.00  0.00    +0.036 C 
ATOM      8  C   UNL     1       0.828  -3.240   5.079  0.00  0.00    +0.009 C 
ATOM      9  C   UNL     1       1.804  -2.185   5.596  0.00  0.00    +0.007 C 
ATOM     10  C   UNL     1       2.805  -1.851   4.505  0.00  0.00    -0.003 C 
ATOM     11  C   UNL     1       3.799  -0.799   4.988  0.00  0.00    +0.011 C 
ATOM     12  C   UNL     1       4.495  -1.297   6.255  0.00  0.00    +0.001 C 
ATOM     13  C   UNL     1       3.471  -1.521   7.360  0.00  0.00    +0.008 C 
ATOM     14  C   UNL     1       2.392  -2.524   6.947  0.00  0.00    -0.013 C 
ATOM     15  C   UNL     1       1.266  -2.425   8.005  0.00  0.00    +0.013 C 
ATOM     16  C   UNL     1       3.579  -3.080   4.030  0.00  0.00    +0.016 C 
ENDROOT
BRANCH   1  18
ATOM     17  C   UNL     1      -0.059   1.717  -0.050  0.00  0.00    +0.012 C 
ATOM     18  C   UNL     1      -0.032   0.188  -0.107  0.00  0.00    +0.013 C 
ATOM     19  C   UNL     1       0.684  -0.262  -1.382  0.00  0.00    +0.012 C 
ENDBRANCH   1  18
BRANCH  14  20
ATOM     20  C   UNL     1       2.947  -3.947   7.006  0.00  0.00    +0.111 C 
BRANCH  20  21
ATOM     21  N   UNL     1       3.378  -4.246   8.374  0.00  0.00    -0.309 N 
ATOM     22  C   UNL     1       3.905  -5.452   8.666  0.00  0.00    +0.266 C 
ATOM     23  O   UNL     1       4.022  -6.291   7.794  0.00  0.00    -0.268 OA
ATOM     24  H   UNL     1       3.285  -3.577   9.069  0.00  0.00    +0.149 HD
BRANCH  22  25
ATOM     25  C   UNL     1       4.339  -5.753  10.042  0.00  0.00    +0.163 A 
ATOM     26  C   UNL     1       4.890  -6.918  10.479  0.00  0.00    +0.230 A 
ATOM     27  O   UNL     1       5.135  -6.767  11.791  0.00  0.00    -0.449 OA
ATOM     28  C   UNL     1       4.743  -5.537  12.152  0.00  0.00    +0.182 A 
ATOM     29  N   UNL     1       4.269  -4.917  11.113  0.00  0.00    -0.210 NA
BRANCH  28  30
ATOM     30  C   UNL     1       4.841  -4.963  13.541  0.00  0.00    +0.014 C 
BRANCH  30  31
ATOM     31  N   UNL     1       4.377  -5.959  14.517  0.00  0.00    +0.386 N 
ATOM     32  H   UNL     1       4.952  -6.785  14.453  0.00  0.00    -0.089 HD
ATOM     33  H   UNL     1       4.443  -5.574  15.447  0.00  0.00    -0.089 HD
ATOM     34  H   UNL     1       3.417  -6.201  14.320  0.00  0.00    -0.089 HD
ENDBRANCH  30  31
BRANCH  30  35
ATOM     35  C   UNL     1       6.296  -4.596  13.840  0.00  0.00    +0.004 C 
BRANCH  35  36
ATOM     36  C   UNL     1       6.378  -3.900  15.200  0.00  0.00    +0.068 C 
BRANCH  36  37
ATOM     37  S   UNL     1       8.103  -3.465  15.554  0.00  0.00    -0.164 S 
ATOM     38  C   UNL     1       8.028  -2.659  17.177  0.00  0.00    +0.084 C 
ENDBRANCH  36  37
ENDBRANCH  35  36
ENDBRANCH  30  35
ENDBRANCH  28  30
ENDBRANCH  22  25
ENDBRANCH  20  21
ENDBRANCH  14  20
TORSDOF 9
