REMARK  Name = ZINC13035475
REMARK  6 active torsions:
REMARK  status: ('A' for Active; 'I' for Inactive)
REMARK    1  A    between atoms: C_9  and  C_12
REMARK    2  A    between atoms: C_12  and  N_13
REMARK    3  A    between atoms: C_14  and  C_16
REMARK    4  A    between atoms: C_16  and  O_17
REMARK    5  A    between atoms: O_17  and  C_18
REMARK    6  A    between atoms: C_21  and  C_25
REMARK                            x       y       z     vdW  Elec       q    Type
REMARK                         _______ _______ _______ _____ _____    ______ ____
ROOT
ATOM      1  N   UNL     1      -0.099   7.980   0.722  0.00  0.00    -0.309 N 
ATOM      2  C   UNL     1       0.142   9.293   0.533  0.00  0.00    +0.251 C 
ATOM      3  O   UNL     1      -0.559   9.937  -0.217  0.00  0.00    -0.272 OA
ATOM      4  H   UNL     1       0.462   7.465   1.322  0.00  0.00    +0.149 HD
ENDROOT
BRANCH   1   5
ATOM      5  C   UNL     1      -1.209   7.332   0.019  0.00  0.00    +0.152 C 
BRANCH   5  14
ATOM      6  C   UNL     1      -0.013   1.076   0.008  0.00  0.00    +0.004 A 
ATOM      7  C   UNL     1       1.176   1.782   0.000  0.00  0.00    +0.004 A 
ATOM      8  C   UNL     1       1.161   3.164   0.007  0.00  0.00    +0.049 A 
ATOM      9  C   UNL     1      -0.046   3.846   0.020  0.00  0.00    +0.163 A 
ATOM     10  C   UNL     1      -1.241   3.136   0.030  0.00  0.00    +0.162 A 
ATOM     11  C   UNL     1      -1.219   1.749   0.017  0.00  0.00    +0.049 A 
ATOM     12  O   UNL     1      -2.437   3.785   0.048  0.00  0.00    -0.485 OA
ATOM     13  C   UNL     1      -2.424   5.167  -0.326  0.00  0.00    +0.275 C 
ATOM     14  C   UNL     1      -1.263   5.852   0.407  0.00  0.00    +0.228 C 
ATOM     15  O   UNL     1      -0.045   5.207   0.019  0.00  0.00    -0.480 OA
ENDBRANCH   5  14
ENDBRANCH   1   5
BRANCH   2  16
ATOM     16  C   UNL     1       1.284   9.960   1.256  0.00  0.00    +0.324 C 
BRANCH  16  17
ATOM     17  O   UNL     1       1.335  11.342   0.894  0.00  0.00    -0.482 OA
BRANCH  17  18
ATOM     18  C   UNL     1       2.313  12.092   1.461  0.00  0.00    +0.135 A 
ATOM     19  C   UNL     1       3.208  11.507   2.349  0.00  0.00    +0.047 A 
ATOM     20  C   UNL     1       4.202  12.264   2.926  0.00  0.00    +0.019 A 
ATOM     21  C   UNL     1       4.312  13.623   2.618  0.00  0.00    +0.064 A 
ATOM     22  C   UNL     1       3.410  14.208   1.724  0.00  0.00    +0.034 A 
ATOM     23  C   UNL     1       2.421  13.442   1.147  0.00  0.00    +0.060 A 
ATOM     24 BR   UNL     1       1.205  14.230  -0.069  0.00  0.00    -0.046 Br
BRANCH  21  25
ATOM     25  C   UNL     1       5.375  14.438   3.234  0.00  0.00    +0.387 C 
ATOM     26  O   UNL     1       6.158  13.928   4.011  0.00  0.00    -0.241 OA
ATOM     27  O   UNL     1       5.479  15.748   2.936  0.00  0.00    -0.241 OA
ENDBRANCH  21  25
ENDBRANCH  17  18
ENDBRANCH  16  17
ENDBRANCH   2  16
TORSDOF 6
