REMARK  Name = ZINC35749677
REMARK  9 active torsions:
REMARK  status: ('A' for Active; 'I' for Inactive)
REMARK    1  A    between atoms: C_1  and  C_2
REMARK    2  A    between atoms: C_5  and  C_8
REMARK    3  A    between atoms: N_10  and  C_11
REMARK    4  A    between atoms: C_11  and  C_13
REMARK    5  A    between atoms: C_11  and  C_29
REMARK    6  A    between atoms: N_16  and  C_19
REMARK    7  A    between atoms: C_19  and  N_21
REMARK    8  A    between atoms: N_21  and  C_22
REMARK    9  A    between atoms: C_36  and  C_38
REMARK                            x       y       z     vdW  Elec       q    Type
REMARK                         _______ _______ _______ _____ _____    ______ ____
ROOT
ATOM      1  C   UNL     1       0.106  -6.284   0.569  0.00  0.00    +0.162 C 
ENDROOT
BRANCH   1   2
ATOM      2  C   UNL     1      -1.314  -6.725   0.810  0.00  0.00    +0.236 C 
ATOM      3  O   UNL     1      -2.212  -5.910   0.802  0.00  0.00    -0.274 OA
ATOM      4  N   UNL     1      -1.587  -8.025   1.036  0.00  0.00    -0.297 N 
ATOM      5  C   UNL     1      -0.500  -9.005   1.177  0.00  0.00    +0.108 C 
ATOM      6  C   UNL     1      -0.740 -10.153   0.192  0.00  0.00    +0.019 C 
ATOM      7  C   UNL     1      -2.139 -10.730   0.418  0.00  0.00    +0.003 C 
ATOM      8  C   UNL     1      -3.188  -9.646   0.160  0.00  0.00    +0.022 C 
ATOM      9  C   UNL     1      -2.976  -8.490   1.150  0.00  0.00    +0.073 C 
ATOM     10  C   UNL     1      -3.930  -7.343   0.815  0.00  0.00    +0.028 C 
ENDBRANCH   1   2
BRANCH   1  11
ATOM     11  C   UNL     1       0.917  -6.446   1.856  0.00  0.00    +0.021 C 
ATOM     12  C   UNL     1       0.350  -5.522   2.936  0.00  0.00    +0.025 C 
ATOM     13  C   UNL     1       1.142  -5.713   4.233  0.00  0.00    +0.107 C 
ATOM     14  N   UNL     1       2.569  -5.507   3.950  0.00  0.00    -0.312 N 
ATOM     15  C   UNL     1       3.194  -6.280   2.869  0.00  0.00    +0.107 C 
ATOM     16  C   UNL     1       2.379  -6.083   1.587  0.00  0.00    +0.025 C 
BRANCH  14  17
ATOM     17  C   UNL     1       3.291  -4.624   4.669  0.00  0.00    +0.137 C 
ATOM     18  S   UNL     1       2.581  -3.825   6.006  0.00  0.00    -0.018 S 
BRANCH  17  19
ATOM     19  N   UNL     1       4.572  -4.371   4.336  0.00  0.00    -0.297 N 
ATOM     20  H   UNL     1       4.794  -3.572   3.833  0.00  0.00    +0.154 HD
BRANCH  19  21
ATOM     21  C   UNL     1       5.583  -5.263   4.715  0.00  0.00    +0.033 A 
ATOM     22  C   UNL     1       5.258  -6.455   5.348  0.00  0.00    +0.026 A 
ATOM     23  C   UNL     1       6.257  -7.332   5.721  0.00  0.00    +0.040 A 
ATOM     24  C   UNL     1       7.582  -7.024   5.465  0.00  0.00    +0.124 A 
ATOM     25  C   UNL     1       7.909  -5.835   4.834  0.00  0.00    +0.040 A 
ATOM     26  C   UNL     1       6.913  -4.958   4.453  0.00  0.00    +0.026 A 
ATOM     27  F   UNL     1       8.558  -7.884   5.832  0.00  0.00    -0.205 F 
ENDBRANCH  19  21
ENDBRANCH  17  19
ENDBRANCH  14  17
ENDBRANCH   1  11
BRANCH   1  30
ATOM     28  C   UNL     1      -0.067  -4.551  -1.136  0.00  0.00    +0.245 C 
ATOM     29  O   UNL     1      -0.244  -5.424  -1.963  0.00  0.00    -0.270 OA
ATOM     30  N   UNL     1       0.118  -4.877   0.159  0.00  0.00    -0.300 N 
ATOM     31  H   UNL     1       0.259  -4.181   0.819  0.00  0.00    +0.150 HD
BRANCH  28  36
ATOM     32  C   UNL     1      -0.024   0.974  -2.745  0.00  0.00    +0.044 C 
ATOM     33  C   UNL     1      -0.035  -0.473  -2.324  0.00  0.00    -0.050 A 
ATOM     34  C   UNL     1      -0.236  -1.464  -3.268  0.00  0.00    +0.004 A 
ATOM     35  C   UNL     1      -0.247  -2.790  -2.889  0.00  0.00    +0.013 A 
ATOM     36  C   UNL     1      -0.056  -3.131  -1.549  0.00  0.00    +0.037 A 
ATOM     37  C   UNL     1       0.146  -2.127  -0.602  0.00  0.00    +0.013 A 
ATOM     38  C   UNL     1       0.161  -0.805  -0.995  0.00  0.00    +0.004 A 
ENDBRANCH  28  36
ENDBRANCH   1  30
TORSDOF 7
