REMARK  Name = ZINC27268788
REMARK  9 active torsions:
REMARK  status: ('A' for Active; 'I' for Inactive)
REMARK    1  A    between atoms: C_1  and  C_2
REMARK    2  A    between atoms: C_2  and  C_3
REMARK    3  A    between atoms: C_2  and  C_4
REMARK    4  A    between atoms: C_4  and  C_5
REMARK    5  A    between atoms: N_7  and  C_8
REMARK    6  A    between atoms: C_11  and  N_14
REMARK    7  A    between atoms: C_15  and  C_17
REMARK    8  A    between atoms: C_18  and  S_22
REMARK    9  A    between atoms: S_22  and  N_25
REMARK                            x       y       z     vdW  Elec       q    Type
REMARK                         _______ _______ _______ _____ _____    ______ ____
ROOT
ATOM      1  N   UNL     1      -4.746   3.507  -0.267  0.00  0.00    -0.281 N 
ATOM      2  C   UNL     1      -4.741   4.850  -0.383  0.00  0.00    +0.257 C 
ATOM      3  O   UNL     1      -3.686   5.448  -0.488  0.00  0.00    -0.269 OA
ATOM      4  H   UNL     1      -5.691   2.974  -0.086  0.00  0.00    +0.155 HD
ENDROOT
BRANCH   1   8
ATOM      5  C   UNL     1      -1.179   1.374  -0.596  0.00  0.00    +0.033 A 
ATOM      6  C   UNL     1      -2.232   0.857   0.147  0.00  0.00    +0.025 A 
ATOM      7  C   UNL     1      -3.411   1.565   0.260  0.00  0.00    +0.025 A 
ATOM      8  C   UNL     1      -3.549   2.791  -0.378  0.00  0.00    +0.034 A 
ATOM      9  C   UNL     1      -2.498   3.306  -1.126  0.00  0.00    +0.025 A 
ATOM     10  C   UNL     1      -1.317   2.600  -1.235  0.00  0.00    +0.025 A 
BRANCH   5  13
ATOM     11  C   UNL     1       1.195   1.315  -0.764  0.00  0.00    +0.217 C 
ATOM     12  O   UNL     1       1.211   2.527  -0.797  0.00  0.00    -0.275 OA
ATOM     13  N   UNL     1       0.019   0.657  -0.707  0.00  0.00    -0.285 N 
ATOM     14  H   UNL     1       0.001  -0.442  -0.747  0.00  0.00    +0.155 HD
BRANCH  11  15
ATOM     15  C   UNL     1       2.489   0.543  -0.786  0.00  0.00    +0.099 C 
BRANCH  15  17
ATOM     16  C   UNL     1       3.710   2.350   0.433  0.00  0.00    +0.008 C 
ATOM     17  C   UNL     1       3.664   1.520  -0.852  0.00  0.00    -0.008 C 
ATOM     18  C   UNL     1       4.971   0.738  -1.001  0.00  0.00    +0.008 C 
ENDBRANCH  15  17
ENDBRANCH  11  15
ENDBRANCH   5  13
ENDBRANCH   1   8
BRANCH   2  19
ATOM     19  C   UNL     1      -6.006   5.590  -0.381  0.00  0.00    +0.100 A 
ATOM     20  C   UNL     1      -6.226   6.945  -0.579  0.00  0.00    +0.125 A 
ATOM     21  C   UNL     1      -7.527   7.380  -0.529  0.00  0.00    +0.037 A 
ATOM     22  C   UNL     1      -8.518   6.484  -0.282  0.00  0.00    +0.048 A 
ATOM     23  S   UNL     1      -7.663   4.985  -0.116  0.00  0.00    -0.090 S 
BRANCH  20  24
ATOM     24  S   UNL     1      -4.895   8.057  -0.887  0.00  0.00    +0.062 S 
ATOM     25  O   UNL     1      -4.324   8.367   0.377  0.00  0.00    -0.153 OA
ATOM     26  O   UNL     1      -4.135   7.497  -1.949  0.00  0.00    -0.153 OA
BRANCH  24  27
ATOM     27  N   UNL     1      -5.554   9.462  -1.466  0.00  0.00    -0.172 NA
ATOM     28  C   UNL     1      -5.852   9.635  -2.897  0.00  0.00    +0.114 C 
ATOM     29  C   UNL     1      -7.371   9.786  -3.040  0.00  0.00    +0.052 C 
ATOM     30  C   UNL     1      -7.905  10.782  -2.046  0.00  0.00    -0.042 A 
ATOM     31  C   UNL     1      -9.150  11.345  -2.303  0.00  0.00    +0.004 A 
ATOM     32  C   UNL     1      -9.704  12.255  -1.427  0.00  0.00    +0.000 A 
ATOM     33  C   UNL     1      -9.016  12.612  -0.282  0.00  0.00    +0.000 A 
ATOM     34  C   UNL     1      -7.779  12.059  -0.026  0.00  0.00    +0.005 A 
ATOM     35  C   UNL     1      -7.219  11.145  -0.909  0.00  0.00    -0.028 A 
ATOM     36  C   UNL     1      -5.859  10.586  -0.574  0.00  0.00    +0.144 C 
ENDBRANCH  24  27
ENDBRANCH  20  24
ENDBRANCH   2  19
TORSDOF 7
