REMARK  Name = ZINC08898029
REMARK  11 active torsions:
REMARK  status: ('A' for Active; 'I' for Inactive)
REMARK    1  A    between atoms: C_1  and  O_2
REMARK    2  A    between atoms: O_2  and  C_3
REMARK    3  A    between atoms: C_5  and  C_11
REMARK    4  A    between atoms: C_7  and  O_9
REMARK    5  A    between atoms: O_9  and  C_10
REMARK    6  A    between atoms: N_13  and  C_14
REMARK    7  A    between atoms: C_14  and  N_16
REMARK    8  A    between atoms: N_16  and  C_17
REMARK    9  A    between atoms: C_20  and  N_23
REMARK   10  A    between atoms: C_28  and  C_29
REMARK   11  A    between atoms: C_28  and  N_65
REMARK                            x       y       z     vdW  Elec       q    Type
REMARK                         _______ _______ _______ _____ _____    ______ ____
ROOT
ATOM      1  C   UNL     1      -3.520   1.697  -0.023  0.00  0.00    +0.033 A 
ATOM      2  C   UNL     1      -3.445   3.083  -0.086  0.00  0.00    +0.025 A 
ATOM      3  C   UNL     1      -4.602   3.834  -0.133  0.00  0.00    +0.025 A 
ATOM      4  C   UNL     1      -5.841   3.206  -0.105  0.00  0.00    +0.030 A 
ATOM      5  C   UNL     1      -5.915   1.821  -0.036  0.00  0.00    +0.025 A 
ATOM      6  C   UNL     1      -4.758   1.069   0.005  0.00  0.00    +0.025 A 
ENDROOT
BRANCH   4   7
ATOM      7  N   UNL     1      -7.013   3.968  -0.147  0.00  0.00    -0.333 N 
ATOM      8  C   UNL     1      -7.867   3.559  -1.271  0.00  0.00    +0.086 C 
ATOM      9  C   UNL     1      -9.171   4.359  -1.235  0.00  0.00    -0.059 C 
ATOM     10  C   UNL     1      -8.010   6.204  -0.181  0.00  0.00    -0.059 C 
ATOM     11  C   UNL     1      -6.706   5.404  -0.217  0.00  0.00    +0.086 C 
ATOM     12  N   UNL     1      -8.849   5.799  -1.329  0.00  0.00    +0.384 N 
ATOM     13  H   UNL     1      -8.330   5.969  -2.198  0.00  0.00    -0.081 HD
BRANCH  12  14
ATOM     14  C   UNL     1     -10.095   6.595  -1.349  0.00  0.00    -0.040 C 
BRANCH  14  15
ATOM     15  C   UNL     1     -10.825   6.324  -2.640  0.00  0.00    -0.029 A 
ATOM     16  C   UNL     1     -10.723   7.215  -3.692  0.00  0.00    +0.004 A 
ATOM     17  C   UNL     1     -11.387   6.963  -4.878  0.00  0.00    +0.000 A 
ATOM     18  C   UNL     1     -12.163   5.826  -5.009  0.00  0.00    +0.003 A 
ATOM     19  C   UNL     1     -12.271   4.937  -3.957  0.00  0.00    +0.038 A 
ATOM     20  C   UNL     1     -11.601   5.185  -2.770  0.00  0.00    +0.125 A 
ATOM     21  F   UNL     1     -11.706   4.317  -1.741  0.00  0.00    -0.205 F 
ENDBRANCH  14  15
ENDBRANCH  12  14
ENDBRANCH   4   7
BRANCH   1  22
ATOM     22  N   UNL     1      -2.345   0.934   0.018  0.00  0.00    -0.297 N 
ATOM     23  H   UNL     1      -1.619   1.193   0.607  0.00  0.00    +0.154 HD
BRANCH  22  24
ATOM     24  C   UNL     1      -2.225  -0.160  -0.760  0.00  0.00    +0.141 C 
ATOM     25  S   UNL     1      -3.546  -0.679  -1.718  0.00  0.00    -0.018 S 
BRANCH  24  28
ATOM     26  C   UNL     1      -0.946  -1.942  -1.558  0.00  0.00    +0.250 C 
ATOM     27  O   UNL     1      -1.884  -2.310  -2.238  0.00  0.00    -0.270 OA
ATOM     28  N   UNL     1      -1.065  -0.845  -0.784  0.00  0.00    -0.264 N 
ATOM     29  H   UNL     1      -0.316  -0.551  -0.242  0.00  0.00    +0.157 HD
BRANCH  26  32
ATOM     30  C   UNL     1       1.642  -4.538  -2.398  0.00  0.00    +0.124 A 
ATOM     31  C   UNL     1       0.449  -3.833  -2.381  0.00  0.00    +0.059 A 
ATOM     32  C   UNL     1       0.324  -2.697  -1.580  0.00  0.00    +0.044 A 
ATOM     33  C   UNL     1       1.404  -2.273  -0.805  0.00  0.00    +0.059 A 
ATOM     34  C   UNL     1       2.591  -2.987  -0.824  0.00  0.00    +0.124 A 
ATOM     35  C   UNL     1       2.711  -4.115  -1.622  0.00  0.00    +0.091 A 
BRANCH  30  37
ATOM     36  C   UNL     1       3.022  -6.323  -3.147  0.00  0.00    +0.277 C 
ATOM     37  O   UNL     1       1.764  -5.645  -3.178  0.00  0.00    -0.495 OA
ENDBRANCH  30  37
BRANCH  34  38
ATOM     38  O   UNL     1       3.641  -2.578  -0.065  0.00  0.00    -0.495 OA
ATOM     39  C   UNL     1       4.837  -3.357  -0.138  0.00  0.00    +0.277 C 
ENDBRANCH  34  38
ENDBRANCH  26  32
ENDBRANCH  24  28
ENDBRANCH  22  24
ENDBRANCH   1  22
TORSDOF 9
