REMARK  Name = ZINC58912918
REMARK  7 active torsions:
REMARK  status: ('A' for Active; 'I' for Inactive)
REMARK    1  A    between atoms: C_1  and  C_2
REMARK    2  A    between atoms: C_4  and  C_15
REMARK    3  A    between atoms: C_5  and  C_14
REMARK    4  A    between atoms: N_6  and  C_7
REMARK    5  A    between atoms: N_16  and  N_17
REMARK    6  A    between atoms: C_18  and  C_20
REMARK    7  A    between atoms: N_22  and  C_23
REMARK                            x       y       z     vdW  Elec       q    Type
REMARK                         _______ _______ _______ _____ _____    ______ ____
ROOT
ATOM      1  C   UNL     1       0.054  -3.383  -1.461  0.00  0.00    +0.140 C 
ATOM      2  N   UNL     1       0.074  -4.556  -0.901  0.00  0.00    -0.187 NA
ENDROOT
BRANCH   1   6
ATOM      3  C   UNL     1       0.013   1.503   0.011  0.00  0.00    +0.064 C 
ATOM      4  C   UNL     1       0.030  -0.004   0.003  0.00  0.00    +0.022 A 
ATOM      5  C   UNL     1       0.027  -0.780  -1.096  0.00  0.00    +0.032 A 
ATOM      6  C   UNL     1       0.049  -2.169  -0.627  0.00  0.00    +0.016 A 
ATOM      7  C   UNL     1       0.065  -2.112   0.738  0.00  0.00    +0.030 A 
ATOM      8  N   UNL     1       0.058  -0.804   1.110  0.00  0.00    -0.317 N 
ATOM      9  C   UNL     1       0.089  -3.295   1.672  0.00  0.00    +0.064 C 
BRANCH   8  10
ATOM     10  C   UNL     1       0.075  -0.344   2.434  0.00  0.00    +0.047 A 
ATOM     11  C   UNL     1       1.183  -0.578   3.237  0.00  0.00    +0.027 A 
ATOM     12  C   UNL     1       1.197  -0.123   4.541  0.00  0.00    +0.017 A 
ATOM     13  C   UNL     1       0.107   0.563   5.048  0.00  0.00    +0.018 A 
ATOM     14  C   UNL     1      -0.998   0.797   4.249  0.00  0.00    +0.017 A 
ATOM     15  C   UNL     1      -1.015   0.350   2.942  0.00  0.00    +0.027 A 
ATOM     16 BR   UNL     1       0.130   1.183   6.834  0.00  0.00    -0.050 Br
ENDBRANCH   8  10
ENDBRANCH   1   6
BRANCH   2  17
ATOM     17  N   UNL     1       0.078  -5.711  -1.694  0.00  0.00    -0.199 N 
ATOM     18  C   UNL     1       0.100  -6.927  -1.114  0.00  0.00    +0.318 C 
ATOM     19  O   UNL     1       0.115  -7.022   0.097  0.00  0.00    -0.263 OA
ATOM     20  H   UNL     1       0.066  -5.635  -2.661  0.00  0.00    +0.178 HD
BRANCH  18  21
ATOM     21  C   UNL     1       0.104  -8.156  -1.957  0.00  0.00    +0.305 C 
ATOM     22  O   UNL     1       0.089  -8.061  -3.168  0.00  0.00    -0.265 OA
ATOM     23  N   UNL     1       0.126  -9.372  -1.377  0.00  0.00    -0.278 N 
ATOM     24  H   UNL     1       0.205  -9.448  -0.413  0.00  0.00    +0.155 HD
BRANCH  23  25
ATOM     25  C   UNL     1       0.032 -10.524  -2.164  0.00  0.00    +0.034 A 
ATOM     26  C   UNL     1      -0.652 -11.636  -1.690  0.00  0.00    +0.026 A 
ATOM     27  C   UNL     1      -0.743 -12.773  -2.469  0.00  0.00    +0.040 A 
ATOM     28  C   UNL     1      -0.153 -12.804  -3.722  0.00  0.00    +0.124 A 
ATOM     29  C   UNL     1       0.530 -11.697  -4.196  0.00  0.00    +0.040 A 
ATOM     30  C   UNL     1       0.619 -10.556  -3.422  0.00  0.00    +0.026 A 
ATOM     31  F   UNL     1      -0.244 -13.917  -4.482  0.00  0.00    -0.205 F 
ENDBRANCH  23  25
ENDBRANCH  18  21
ENDBRANCH   2  17
TORSDOF 5
