REMARK  Name = ZINC19641783
REMARK  6 active torsions:
REMARK  status: ('A' for Active; 'I' for Inactive)
REMARK    1  A    between atoms: C_1  and  C_2
REMARK    2  A    between atoms: C_9  and  N_20
REMARK    3  A    between atoms: C_10  and  C_11
REMARK    4  A    between atoms: N_13  and  C_14
REMARK    5  A    between atoms: C_21  and  C_23
REMARK    6  A    between atoms: C_29  and  C_31
REMARK                            x       y       z     vdW  Elec       q    Type
REMARK                         _______ _______ _______ _____ _____    ______ ____
ROOT
ATOM      1  C   UNL     1       6.018  -6.530  -4.968  0.00  0.00    +0.008 C 
ATOM      2  C   UNL     1       5.789  -5.106  -4.455  0.00  0.00    -0.009 C 
ATOM      3  C   UNL     1       4.314  -4.925  -4.084  0.00  0.00    +0.008 C 
ATOM      4  C   UNL     1       4.123  -3.599  -3.345  0.00  0.00    +0.037 C 
ATOM      5  C   UNL     1       4.740  -2.481  -4.176  0.00  0.00    -0.023 A 
ATOM      6  C   UNL     1       5.637  -2.752  -5.149  0.00  0.00    -0.004 A 
ATOM      7  S   UNL     1       6.062  -1.171  -5.824  0.00  0.00    -0.077 S 
ATOM      8  C   UNL     1       5.059  -0.164  -4.832  0.00  0.00    +0.084 A 
ATOM      9  C   UNL     1       4.425  -1.074  -3.998  0.00  0.00    +0.069 A 
ATOM     10  C   UNL     1       6.150  -4.098  -5.556  0.00  0.00    +0.046 C 
ENDROOT
BRANCH   9  11
ATOM     11  C   UNL     1       3.469  -0.632  -2.979  0.00  0.00    +0.247 C 
ATOM     12  O   UNL     1       3.856  -0.361  -1.857  0.00  0.00    -0.270 OA
ATOM     13  N   UNL     1       2.160  -0.525  -3.284  0.00  0.00    -0.308 N 
ATOM     14  H   UNL     1       1.810  -0.770  -4.297  0.00  0.00    +0.149 HD
BRANCH  13  15
ATOM     15  C   UNL     1       1.204  -0.083  -2.265  0.00  0.00    +0.073 C 
ATOM     16  C   UNL     1      -0.188  -0.617  -2.607  0.00  0.00    +0.022 C 
ATOM     17  C   UNL     1      -1.187  -0.155  -1.544  0.00  0.00    +0.002 C 
ATOM     18  C   UNL     1      -1.222   1.374  -1.506  0.00  0.00    +0.000 C 
ATOM     19  C   UNL     1       0.171   1.907  -1.164  0.00  0.00    +0.002 C 
ATOM     20  C   UNL     1       1.169   1.446  -2.228  0.00  0.00    +0.022 C 
ENDBRANCH  13  15
ENDBRANCH   9  11
BRANCH   8  21
ATOM     21  N   UNL     1       4.925   1.215  -4.864  0.00  0.00    -0.279 N 
ATOM     22  C   UNL     1       5.630   1.941  -5.754  0.00  0.00    +0.222 C 
ATOM     23  O   UNL     1       6.382   1.388  -6.527  0.00  0.00    -0.275 OA
ATOM     24  H   UNL     1       4.242   1.717  -4.162  0.00  0.00    +0.155 HD
BRANCH  22  25
ATOM     25  C   UNL     1       5.483   3.441  -5.788  0.00  0.00    +0.093 C 
ATOM     26  C   UNL     1       5.503   3.926  -7.239  0.00  0.00    +0.040 C 
ATOM     27  C   UNL     1       6.878   3.772  -7.818  0.00  0.00    -0.030 C 
ATOM     28  C   UNL     1       7.949   3.602  -7.109  0.00  0.00    -0.030 C 
ATOM     29  C   UNL     1       7.962   3.528  -5.611  0.00  0.00    +0.042 C 
ATOM     30  C   UNL     1       6.657   4.090  -5.043  0.00  0.00    +0.118 C 
BRANCH  30  31
ATOM     31  C   UNL     1       6.563   3.770  -3.574  0.00  0.00    +0.360 C 
ATOM     32  O   UNL     1       5.653   3.092  -3.160  0.00  0.00    -0.246 OA
ATOM     33  O   UNL     1       7.491   4.239  -2.724  0.00  0.00    -0.246 OA
ENDBRANCH  30  31
ENDBRANCH  22  25
ENDBRANCH   8  21
TORSDOF 5
