REMARK  Name = ZINC47827105
REMARK  3 active torsions:
REMARK  status: ('A' for Active; 'I' for Inactive)
REMARK    1  A    between atoms: C_1  and  C_2
REMARK    2  A    between atoms: C_4  and  C_10
REMARK    3  A    between atoms: C_5  and  O_9
REMARK                            x       y       z     vdW  Elec       q    Type
REMARK                         _______ _______ _______ _____ _____    ______ ____
ROOT
ATOM      1  C   UNL     1      -0.018   1.503   0.010  0.00  0.00    +0.044 C 
ATOM      2  C   UNL     1       0.002  -0.004   0.002  0.00  0.00    -0.048 A 
ATOM      3  C   UNL     1       0.006  -0.683  -1.197  0.00  0.00    +0.020 A 
ATOM      4  C   UNL     1       0.025  -2.080  -1.207  0.00  0.00    +0.080 A 
ATOM      5  C   UNL     1       0.040  -2.781   0.007  0.00  0.00    +0.143 A 
ATOM      6  C   UNL     1       0.036  -2.081   1.205  0.00  0.00    +0.060 A 
ATOM      7  C   UNL     1       0.023  -0.700   1.200  0.00  0.00    +0.022 A 
ATOM      8 BR   UNL     1       0.057  -3.019   2.847  0.00  0.00    -0.046 Br
ENDROOT
BRANCH   4   9
ATOM      9  C   UNL     1       0.028  -2.813  -2.486  0.00  0.00    +0.253 C 
ATOM     10  O   UNL     1       0.044  -4.029  -2.491  0.00  0.00    -0.270 OA
ATOM     11  N   UNL     1       0.013  -2.135  -3.651  0.00  0.00    -0.261 N 
ATOM     12  C   UNL     1       0.016  -2.822  -4.850  0.00  0.00    +0.156 C 
ATOM     13  N   UNL     1       0.027  -4.112  -5.019  0.00  0.00    -0.262 NA
ATOM     14  C   UNL     1       0.054  -4.698  -6.346  0.00  0.00    +0.155 C 
ATOM     15  C   UNL     1      -0.390  -3.669  -7.421  0.00  0.00    +0.100 C 
ATOM     16  S   UNL     1      -0.002  -2.126  -6.494  0.00  0.00    -0.089 S 
ATOM     17  H   UNL     1      -0.000  -1.165  -3.648  0.00  0.00    +0.157 HD
ENDBRANCH   4   9
BRANCH   5  18
ATOM     18  O   UNL     1       0.058  -4.138   0.011  0.00  0.00    -0.505 OA
ATOM     19  H   UNL     1       0.946  -4.519   0.007  0.00  0.00    +0.292 HD
ENDBRANCH   5  18
TORSDOF 2
