REMARK  Name = ZINC39253058
REMARK  6 active torsions:
REMARK  status: ('A' for Active; 'I' for Inactive)
REMARK    1  A    between atoms: C_6  and  C_7
REMARK    2  A    between atoms: C_11  and  C_13
REMARK    3  A    between atoms: N_14  and  N_15
REMARK    4  A    between atoms: C_16  and  C_18
REMARK    5  A    between atoms: N_22  and  C_24
REMARK    6  A    between atoms: C_24  and  C_25
REMARK                            x       y       z     vdW  Elec       q    Type
REMARK                         _______ _______ _______ _____ _____    ______ ____
ROOT
ATOM      1  N   UNL     1       0.684  -4.265  -2.317  0.00  0.00    -0.206 N 
ATOM      2  C   UNL     1       1.686  -5.162  -2.223  0.00  0.00    +0.255 C 
ATOM      3  O   UNL     1       2.105  -5.492  -1.134  0.00  0.00    -0.272 OA
ATOM      4  H   UNL     1       0.349  -4.002  -3.188  0.00  0.00    +0.177 HD
ENDROOT
BRANCH   2   5
ATOM      5  C   UNL     1       2.285  -5.756  -3.472  0.00  0.00    +0.184 C 
ATOM      6  C   UNL     1       2.940  -4.678  -4.309  0.00  0.00    +0.019 C 
ATOM      7  C   UNL     1       4.218  -4.986  -4.395  0.00  0.00    +0.086 C 
ATOM      8  N   UNL     1       4.510  -6.151  -3.712  0.00  0.00    -0.269 N 
ATOM      9  N   UNL     1       3.388  -6.675  -3.129  0.00  0.00    -0.225 NA
ATOM     10  H   UNL     1       3.501  -6.748  -2.129  0.00  0.00    +0.146 HD
BRANCH   8  11
ATOM     11  C   UNL     1       5.845  -6.748  -3.626  0.00  0.00    +0.160 C 
BRANCH  11  12
ATOM     12  C   UNL     1       6.087  -7.612  -4.837  0.00  0.00    -0.010 A 
ATOM     13  C   UNL     1       5.930  -8.983  -4.750  0.00  0.00    +0.008 A 
ATOM     14  C   UNL     1       6.153  -9.776  -5.860  0.00  0.00    +0.020 A 
ATOM     15  C   UNL     1       6.533  -9.199  -7.059  0.00  0.00    +0.042 A 
ATOM     16  C   UNL     1       6.690  -7.827  -7.146  0.00  0.00    +0.040 A 
ATOM     17  C   UNL     1       6.462  -7.033  -6.036  0.00  0.00    +0.047 A 
ATOM     18 CL   UNL     1       6.653  -5.311  -6.146  0.00  0.00    -0.083 Cl
ATOM     19 CL   UNL     1       6.813 -10.195  -8.452  0.00  0.00    -0.083 Cl
ENDBRANCH  11  12
ENDBRANCH   8  11
ENDBRANCH   2   5
BRANCH   1  21
ATOM     20  C   UNL     1      -0.824  -2.861  -1.245  0.00  0.00    +0.118 C 
ATOM     21  N   UNL     1       0.127  -3.713  -1.156  0.00  0.00    -0.192 NA
BRANCH  20  26
ATOM     22  C   UNL     1      -1.260  -0.760   0.011  0.00  0.00    +0.084 C 
ATOM     23  N   UNL     1      -2.470  -0.272   0.019  0.00  0.00    -0.153 NA
ATOM     24  N   UNL     1      -3.439  -1.270   0.026  0.00  0.00    -0.161 NA
ATOM     25  C   UNL     1      -2.927  -2.458   0.021  0.00  0.00    +0.123 C 
ATOM     26  C   UNL     1      -1.423  -2.268   0.004  0.00  0.00    +0.125 C 
BRANCH  22  32
ATOM     27  C   UNL     1      -0.017   1.394   0.010  0.00  0.00    +0.011 A 
ATOM     28  C   UNL     1       1.169   2.097   0.002  0.00  0.00    +0.022 A 
ATOM     29  C   UNL     1       2.378   1.422  -0.013  0.00  0.00    +0.059 A 
ATOM     30  C   UNL     1       2.405   0.035  -0.021  0.00  0.00    +0.060 A 
ATOM     31  C   UNL     1       1.226  -0.680  -0.014  0.00  0.00    +0.031 A 
ATOM     32  C   UNL     1       0.002  -0.004   0.002  0.00  0.00    +0.000 A 
ATOM     33 CL   UNL     1       3.926  -0.801  -0.041  0.00  0.00    -0.082 Cl
ATOM     34 CL   UNL     1       3.867   2.315  -0.022  0.00  0.00    -0.082 Cl
ENDBRANCH  22  32
ENDBRANCH  20  26
ENDBRANCH   1  21
TORSDOF 6
