REMARK  Name = ZINC33273023
REMARK  10 active torsions:
REMARK  status: ('A' for Active; 'I' for Inactive)
REMARK    1  A    between atoms: C_1  and  O_2
REMARK    2  A    between atoms: O_2  and  C_3
REMARK    3  A    between atoms: C_6  and  N_9
REMARK    4  A    between atoms: C_10  and  C_12
REMARK    5  A    between atoms: C_15  and  C_17
REMARK    6  A    between atoms: N_25  and  C_26
REMARK    7  A    between atoms: C_28  and  O_34
REMARK    8  A    between atoms: C_31  and  O_32
REMARK    9  A    between atoms: O_32  and  C_33
REMARK   10  A    between atoms: O_34  and  C_35
REMARK                            x       y       z     vdW  Elec       q    Type
REMARK                         _______ _______ _______ _____ _____    ______ ____
ROOT
ATOM      1  C   UNL     1       0.782   7.536   0.488  0.00  0.00    +0.049 C 
ATOM      2  C   UNL     1       0.390   8.221   1.799  0.00  0.00    +0.029 C 
ATOM      3  C   UNL     1       0.792   9.698   1.739  0.00  0.00    +0.110 C 
ATOM      4  N   UNL     1       0.193  10.302   0.541  0.00  0.00    -0.285 N 
ATOM      5  C   UNL     1       0.432   9.669  -0.764  0.00  0.00    +0.110 C 
ATOM      6  C   UNL     1       0.035   8.192  -0.675  0.00  0.00    +0.029 C 
ATOM      7  C   UNL     1      -0.560  11.415   0.636  0.00  0.00    +0.307 C 
ATOM      8  O   UNL     1      -0.680  11.979   1.707  0.00  0.00    -0.252 OA
ATOM      9  N   UNL     1      -1.182  11.904  -0.456  0.00  0.00    -0.266 N 
ATOM     10  H   UNL     1      -0.998  11.453  -1.442  0.00  0.00    +0.156 HD
ENDROOT
BRANCH   9  11
ATOM     11  C   UNL     1      -2.062  12.988  -0.335  0.00  0.00    +0.080 A 
ATOM     12  C   UNL     1      -2.615  13.300   0.899  0.00  0.00    +0.072 A 
ATOM     13  C   UNL     1      -3.481  14.376   1.016  0.00  0.00    +0.122 A 
ATOM     14  C   UNL     1      -3.803  15.134  -0.100  0.00  0.00    +0.049 A 
ATOM     15  C   UNL     1      -3.257  14.822  -1.331  0.00  0.00    +0.051 A 
ATOM     16  C   UNL     1      -2.387  13.751  -1.453  0.00  0.00    +0.141 A 
BRANCH  16  17
ATOM     17  O   UNL     1      -1.850  13.445  -2.666  0.00  0.00    -0.493 OA
ATOM     18  C   UNL     1      -2.228  14.270  -3.769  0.00  0.00    +0.277 C 
ENDBRANCH  16  17
BRANCH  13  19
ATOM     19  O   UNL     1      -4.020  14.684   2.226  0.00  0.00    -0.495 OA
ATOM     20  C   UNL     1      -4.909  15.802   2.273  0.00  0.00    +0.277 C 
ENDBRANCH  13  19
ENDBRANCH   9  11
BRANCH   1  24
ATOM     21  C   UNL     1       0.149   3.456   0.628  0.00  0.00    +0.187 A 
ATOM     22  N   UNL     1      -0.905   4.255   0.770  0.00  0.00    -0.136 NA
ATOM     23  N   UNL     1      -0.761   5.509   0.734  0.00  0.00    -0.146 NA
ATOM     24  C   UNL     1       0.420   6.075   0.557  0.00  0.00    +0.106 A 
ATOM     25  S   UNL     1       1.444   4.675   0.435  0.00  0.00    -0.046 S 
BRANCH  21  27
ATOM     26  N   UNL     1      -0.890   1.251   0.804  0.00  0.00    -0.280 N 
ATOM     27  C   UNL     1       0.228   1.985   0.635  0.00  0.00    +0.275 C 
ATOM     28  O   UNL     1       1.301   1.433   0.487  0.00  0.00    -0.268 OA
ATOM     29  H   UNL     1      -1.871   1.747   0.855  0.00  0.00    +0.155 HD
BRANCH  26  33
ATOM     30  C   UNL     1      -0.630  -2.896   1.136  0.00  0.00    +0.120 A 
ATOM     31  C   UNL     1       0.378  -2.095   1.651  0.00  0.00    +0.047 A 
ATOM     32  C   UNL     1       0.293  -0.721   1.542  0.00  0.00    +0.027 A 
ATOM     33  C   UNL     1      -0.802  -0.141   0.915  0.00  0.00    +0.034 A 
ATOM     34  C   UNL     1      -1.814  -0.944   0.404  0.00  0.00    +0.027 A 
ATOM     35  C   UNL     1      -1.725  -2.318   0.509  0.00  0.00    +0.047 A 
BRANCH  30  37
ATOM     36  C   UNL     1      -1.620  -5.012   0.691  0.00  0.00    +0.277 C 
ATOM     37  O   UNL     1      -0.546  -4.249   1.244  0.00  0.00    -0.495 OA
ENDBRANCH  30  37
ENDBRANCH  26  33
ENDBRANCH  21  27
ENDBRANCH   1  24
TORSDOF 7
