REMARK  Name = ZINC09271661
REMARK  8 active torsions:
REMARK  status: ('A' for Active; 'I' for Inactive)
REMARK    1  A    between atoms: C_1  and  C_2
REMARK    2  A    between atoms: C_5  and  C_8
REMARK    3  A    between atoms: C_8  and  C_10
REMARK    4  A    between atoms: C_15  and  C_17
REMARK    5  A    between atoms: C_20  and  O_25
REMARK    6  A    between atoms: C_21  and  O_23
REMARK    7  A    between atoms: O_23  and  C_24
REMARK    8  A    between atoms: O_25  and  C_26
REMARK                            x       y       z     vdW  Elec       q    Type
REMARK                         _______ _______ _______ _____ _____    ______ ____
ROOT
ATOM      1  C   UNL     1      -4.894   8.099   0.075  0.00  0.00    +0.077 C 
ATOM      2  C   UNL     1      -5.573   6.928   0.056  0.00  0.00    +0.250 C 
ATOM      3  C   UNL     1      -4.625   5.815   0.270  0.00  0.00    +0.293 C 
ATOM      4  O   UNL     1      -4.928   4.638   0.306  0.00  0.00    -0.266 OA
ATOM      5  N   UNL     1      -3.378   6.295   0.419  0.00  0.00    -0.232 N 
ATOM      6  C   UNL     1      -3.442   7.758   0.316  0.00  0.00    +0.152 C 
ATOM      7  C   UNL     1      -2.236   5.544   0.636  0.00  0.00    +0.169 A 
ATOM      8  N   UNL     1      -2.116   4.241   0.743  0.00  0.00    -0.224 NA
ATOM      9  C   UNL     1      -0.927   3.637   0.958  0.00  0.00    +0.080 A 
ATOM     10  C   UNL     1      -0.661   2.254   1.085  0.00  0.00    +0.032 A 
ATOM     11  C   UNL     1       0.613   1.803   1.308  0.00  0.00    +0.040 A 
ATOM     12  C   UNL     1       1.687   2.680   1.406  0.00  0.00    +0.125 A 
ATOM     13  C   UNL     1       1.463   4.040   1.281  0.00  0.00    +0.055 A 
ATOM     14  C   UNL     1       0.188   4.500   1.063  0.00  0.00    +0.043 A 
ATOM     15  S   UNL     1      -0.551   6.101   0.846  0.00  0.00    -0.052 S 
ATOM     16  F   UNL     1       2.935   2.210   1.621  0.00  0.00    -0.205 F 
ATOM     17  O   UNL     1      -6.907   6.797  -0.130  0.00  0.00    -0.282 OA
ENDROOT
BRANCH   6  18
ATOM     18  C   UNL     1      -2.964   8.389   1.598  0.00  0.00    -0.018 A 
ATOM     19  C   UNL     1      -3.330   7.843   2.814  0.00  0.00    +0.009 A 
ATOM     20  C   UNL     1      -2.895   8.419   3.993  0.00  0.00    +0.050 A 
ATOM     21  C   UNL     1      -2.089   9.545   3.957  0.00  0.00    +0.162 A 
ATOM     22  C   UNL     1      -1.720  10.095   2.733  0.00  0.00    +0.162 A 
ATOM     23  C   UNL     1      -2.156   9.510   1.555  0.00  0.00    +0.055 A 
BRANCH  22  24
ATOM     24  O   UNL     1      -0.929  11.200   2.693  0.00  0.00    -0.491 OA
ATOM     25  C   UNL     1      -0.490  11.638   1.405  0.00  0.00    +0.277 C 
ENDBRANCH  22  24
BRANCH  21  26
ATOM     26  O   UNL     1      -1.659  10.113   5.116  0.00  0.00    -0.491 OA
ATOM     27  C   UNL     1      -2.078   9.495   6.335  0.00  0.00    +0.277 C 
ENDBRANCH  21  26
ENDBRANCH   6  18
BRANCH   1  28
ATOM     28  C   UNL     1      -5.460   9.440  -0.099  0.00  0.00    +0.195 C 
ATOM     29  O   UNL     1      -6.221   9.892   0.737  0.00  0.00    -0.287 OA
BRANCH  28  34
ATOM     30  C   UNL     1      -4.084  12.567  -4.730  0.00  0.00    +0.044 C 
ATOM     31  C   UNL     1      -4.445  11.748  -3.517  0.00  0.00    -0.050 A 
ATOM     32  C   UNL     1      -5.252  12.293  -2.534  0.00  0.00    +0.004 A 
ATOM     33  C   UNL     1      -5.585  11.549  -1.421  0.00  0.00    +0.012 A 
ATOM     34  C   UNL     1      -5.107  10.244  -1.288  0.00  0.00    +0.022 A 
ATOM     35  C   UNL     1      -4.288   9.703  -2.282  0.00  0.00    +0.012 A 
ATOM     36  C   UNL     1      -3.967  10.456  -3.392  0.00  0.00    +0.004 A 
ENDBRANCH  28  34
ENDBRANCH   1  28
TORSDOF 5
