REMARK  Name = ZINC39773872
REMARK  7 active torsions:
REMARK  status: ('A' for Active; 'I' for Inactive)
REMARK    1  A    between atoms: C_1  and  C_2
REMARK    2  A    between atoms: C_2  and  C_4
REMARK    3  A    between atoms: C_2  and  N_19
REMARK    4  A    between atoms: C_9  and  C_14
REMARK    5  A    between atoms: N_19  and  C_20
REMARK    6  A    between atoms: N_23  and  C_26
REMARK    7  A    between atoms: C_26  and  C_27
REMARK                            x       y       z     vdW  Elec       q    Type
REMARK                         _______ _______ _______ _____ _____    ______ ____
ROOT
ATOM      1  C   UNL     1       0.901   0.666  -0.957  0.00  0.00    +0.032 C 
ATOM      2  C   UNL     1      -0.024  -0.141  -0.043  0.00  0.00    +0.117 C 
ENDROOT
BRANCH   2   3
ATOM      3  C   UNL     1      -0.554  -1.336  -0.794  0.00  0.00    +0.140 C 
ATOM      4  N   UNL     1      -0.386  -2.533  -0.279  0.00  0.00    -0.160 NA
ATOM      5  C   UNL     1      -0.830  -3.634  -0.890  0.00  0.00    +0.272 C 
ATOM      6  O   UNL     1      -0.663  -4.737  -0.392  0.00  0.00    -0.268 OA
ATOM      7  C   UNL     1      -1.534  -3.486  -2.194  0.00  0.00    +0.076 C 
ATOM      8  C   UNL     1      -2.066  -4.497  -2.982  0.00  0.00    -0.009 C 
ATOM      9  C   UNL     1      -2.734  -4.069  -4.270  0.00  0.00    +0.113 C 
ATOM     10  S   UNL     1      -2.517  -2.245  -4.197  0.00  0.00    -0.100 S 
ATOM     11  C   UNL     1      -1.654  -2.145  -2.648  0.00  0.00    +0.112 C 
ATOM     12  N   UNL     1      -1.175  -1.141  -1.944  0.00  0.00    -0.226 NA
BRANCH   8  13
ATOM     13  C   UNL     1      -1.988  -5.842  -2.605  0.00  0.00    +0.017 A 
ATOM     14  C   UNL     1      -3.023  -6.730  -2.281  0.00  0.00    +0.016 A 
ATOM     15  C   UNL     1      -2.630  -7.996  -1.948  0.00  0.00    +0.008 A 
ATOM     16  C   UNL     1      -1.303  -8.303  -1.952  0.00  0.00    +0.046 A 
ATOM     17  S   UNL     1      -0.548  -6.876  -2.418  0.00  0.00    -0.097 S 
ENDBRANCH   8  13
ENDBRANCH   2   3
BRANCH   2  18
ATOM     18  N   UNL     1       0.726  -0.596   1.135  0.00  0.00    -0.305 NA
ATOM     19  H   UNL     1       1.251  -1.433   0.928  0.00  0.00    +0.123 HD
BRANCH  18  20
ATOM     20  C   UNL     1      -0.169  -0.805   2.281  0.00  0.00    +0.051 C 
ATOM     21  C   UNL     1      -0.352   0.515   3.034  0.00  0.00    -0.000 C 
ATOM     22  C   UNL     1      -1.221   0.274   4.271  0.00  0.00    -0.077 C 
ATOM     23  N   UNL     1      -0.568  -0.706   5.148  0.00  0.00    +0.382 N 
ATOM     24  C   UNL     1      -0.453  -1.995   4.457  0.00  0.00    -0.077 C 
ATOM     25  C   UNL     1       0.445  -1.841   3.227  0.00  0.00    -0.000 C 
ATOM     26  H   UNL     1       0.353  -0.374   5.394  0.00  0.00    -0.081 HD
BRANCH  23  27
ATOM     27  C   UNL     1      -1.366  -0.876   6.369  0.00  0.00    -0.043 C 
BRANCH  27  28
ATOM     28  C   UNL     1      -0.637  -1.787   7.323  0.00  0.00    -0.064 A 
ATOM     29  C   UNL     1      -0.843  -3.152   7.269  0.00  0.00    +0.003 A 
ATOM     30  C   UNL     1      -0.174  -3.988   8.144  0.00  0.00    +0.020 A 
ATOM     31  C   UNL     1       0.701  -3.457   9.074  0.00  0.00    +0.041 A 
ATOM     32  C   UNL     1       0.907  -2.090   9.128  0.00  0.00    +0.020 A 
ATOM     33  C   UNL     1       0.242  -1.256   8.249  0.00  0.00    +0.003 A 
ATOM     34 CL   UNL     1       1.541  -4.506  10.173  0.00  0.00    -0.084 Cl
ENDBRANCH  27  28
ENDBRANCH  23  27
ENDBRANCH  18  20
ENDBRANCH   2  18
TORSDOF 6
