REMARK  Name = ZINC36013493
REMARK  10 active torsions:
REMARK  status: ('A' for Active; 'I' for Inactive)
REMARK    1  A    between atoms: C_1  and  C_2
REMARK    2  A    between atoms: C_2  and  C_3
REMARK    3  A    between atoms: C_3  and  N_4
REMARK    4  A    between atoms: N_4  and  C_5
REMARK    5  A    between atoms: C_5  and  C_6
REMARK    6  A    between atoms: N_8  and  C_9
REMARK    7  A    between atoms: C_12  and  N_15
REMARK    8  A    between atoms: N_23  and  C_24
REMARK    9  A    between atoms: C_28  and  C_30
REMARK   10  A    between atoms: C_31  and  C_33
REMARK                            x       y       z     vdW  Elec       q    Type
REMARK                         _______ _______ _______ _____ _____    ______ ____
ROOT
ATOM      1  C   UNL     1      -3.160  -4.544   0.860  0.00  0.00    +0.034 A 
ATOM      2  C   UNL     1      -4.019  -3.775   0.086  0.00  0.00    +0.025 A 
ATOM      3  C   UNL     1      -5.310  -4.206  -0.147  0.00  0.00    +0.025 A 
ATOM      4  C   UNL     1      -5.750  -5.407   0.394  0.00  0.00    +0.030 A 
ATOM      5  C   UNL     1      -4.891  -6.176   1.168  0.00  0.00    +0.025 A 
ATOM      6  C   UNL     1      -3.598  -5.748   1.396  0.00  0.00    +0.025 A 
ENDROOT
BRANCH   4   7
ATOM      7  N   UNL     1      -7.058  -5.843   0.158  0.00  0.00    -0.327 N 
ATOM      8  C   UNL     1      -7.579  -7.042   0.829  0.00  0.00    +0.124 C 
ATOM      9  C   UNL     1      -8.867  -6.667   1.573  0.00  0.00    +0.128 C 
ATOM     10  N   UNL     1      -9.745  -5.934   0.651  0.00  0.00    -0.282 N 
ATOM     11  C   UNL     1      -9.224  -4.735  -0.020  0.00  0.00    +0.128 C 
ATOM     12  C   UNL     1      -7.938  -5.106  -0.760  0.00  0.00    +0.124 C 
ATOM     13  C   UNL     1     -11.006  -6.354   0.424  0.00  0.00    +0.307 C 
ATOM     14  O   UNL     1     -11.457  -7.290   1.055  0.00  0.00    -0.252 OA
ATOM     15  N   UNL     1     -11.766  -5.736  -0.502  0.00  0.00    -0.269 N 
ATOM     16  H   UNL     1     -11.383  -5.037  -1.055  0.00  0.00    +0.156 HD
BRANCH  15  17
ATOM     17  C   UNL     1     -13.106  -6.104  -0.666  0.00  0.00    +0.035 A 
ATOM     18  C   UNL     1     -13.851  -6.522   0.428  0.00  0.00    +0.023 A 
ATOM     19  C   UNL     1     -15.174  -6.884   0.264  0.00  0.00    +0.002 A 
ATOM     20  C   UNL     1     -15.756  -6.830  -0.990  0.00  0.00    +0.003 A 
ATOM     21  C   UNL     1     -15.016  -6.414  -2.081  0.00  0.00    -0.049 A 
ATOM     22  C   UNL     1     -13.695  -6.045  -1.922  0.00  0.00    +0.026 A 
ATOM     23  C   UNL     1     -15.654  -6.358  -3.446  0.00  0.00    +0.044 C 
ENDBRANCH  15  17
ENDBRANCH   4   7
BRANCH   1  26
ATOM     24  C   UNL     1      -1.244  -4.392   2.266  0.00  0.00    +0.235 C 
ATOM     25  O   UNL     1      -1.864  -4.945   3.151  0.00  0.00    -0.274 OA
ATOM     26  N   UNL     1      -1.850  -4.107   1.096  0.00  0.00    -0.284 N 
ATOM     27  H   UNL     1      -1.378  -3.600   0.417  0.00  0.00    +0.155 HD
BRANCH  24  28
ATOM     28  C   UNL     1       0.202  -4.025   2.476  0.00  0.00    +0.204 C 
BRANCH  28  29
ATOM     29  N   UNL     1       0.621  -4.438   3.817  0.00  0.00    -0.289 N 
ATOM     30  C   UNL     1       0.594  -3.553   4.834  0.00  0.00    +0.247 C 
ATOM     31  O   UNL     1       1.048  -3.860   5.919  0.00  0.00    -0.270 OA
BRANCH  30  32
ATOM     32  C   UNL     1       0.011  -2.210   4.630  0.00  0.00    +0.037 A 
ATOM     33  C   UNL     1      -1.253  -2.074   4.053  0.00  0.00    +0.013 A 
ATOM     34  C   UNL     1      -1.791  -0.818   3.865  0.00  0.00    +0.001 A 
ATOM     35  C   UNL     1      -1.080   0.306   4.247  0.00  0.00    +0.000 A 
ATOM     36  C   UNL     1       0.173   0.179   4.819  0.00  0.00    +0.001 A 
ATOM     37  C   UNL     1       0.720  -1.072   5.018  0.00  0.00    +0.013 A 
ENDBRANCH  30  32
BRANCH  29  38
ATOM     38  C   UNL     1       1.071  -5.812   4.054  0.00  0.00    +0.108 C 
BRANCH  38  40
ATOM     39  C   UNL     1       3.029  -7.361   3.969  0.00  0.00    +0.005 C 
ATOM     40  C   UNL     1       2.560  -5.925   3.722  0.00  0.00    +0.016 C 
ENDBRANCH  38  40
ENDBRANCH  29  38
ENDBRANCH  28  29
ENDBRANCH  24  28
ENDBRANCH   1  26
TORSDOF 8
