REMARK  Name = ZINC09805431
REMARK  14 active torsions:
REMARK  status: ('A' for Active; 'I' for Inactive)
REMARK    1  A    between atoms: C_1  and  C_2
REMARK    2  A    between atoms: C_8  and  C_9
REMARK    3  A    between atoms: C_8  and  N_78
REMARK    4  A    between atoms: N_11  and  C_12
REMARK    5  A    between atoms: C_13  and  C_26
REMARK    6  A    between atoms: C_18  and  C_22
REMARK    7  A    between atoms: C_22  and  C_23
REMARK    8  A    between atoms: C_22  and  C_24
REMARK    9  A    between atoms: C_22  and  C_25
REMARK   10  A    between atoms: N_28  and  C_29
REMARK   11  A    between atoms: C_32  and  O_37
REMARK   12  A    between atoms: C_34  and  O_35
REMARK   13  A    between atoms: O_35  and  C_36
REMARK   14  A    between atoms: O_37  and  C_38
REMARK                            x       y       z     vdW  Elec       q    Type
REMARK                         _______ _______ _______ _____ _____    ______ ____
ROOT
ATOM      1  C   UNL     1      -4.259   6.267   1.533  0.00  0.00    +0.084 A 
ATOM      2  C   UNL     1      -3.616   6.194   0.305  0.00  0.00    +0.069 A 
ATOM      3  C   UNL     1      -4.374   6.576  -0.874  0.00  0.00    -0.023 A 
ATOM      4  C   UNL     1      -5.644   6.973  -0.638  0.00  0.00    -0.004 A 
ATOM      5  S   UNL     1      -5.839   6.845   1.117  0.00  0.00    -0.077 S 
ATOM      6  C   UNL     1      -6.653   7.420  -1.650  0.00  0.00    +0.046 C 
ATOM      7  C   UNL     1      -5.919   7.722  -2.964  0.00  0.00    -0.000 C 
ATOM      8  C   UNL     1      -4.977   6.556  -3.282  0.00  0.00    +0.009 C 
ATOM      9  C   UNL     1      -3.813   6.544  -2.290  0.00  0.00    +0.037 C 
ENDROOT
BRANCH   1  12
ATOM     10  C   UNL     1      -4.540   6.090   3.878  0.00  0.00    +0.201 C 
ATOM     11  O   UNL     1      -5.681   6.484   3.761  0.00  0.00    -0.278 OA
ATOM     12  N   UNL     1      -3.758   5.956   2.788  0.00  0.00    -0.281 N 
ATOM     13  H   UNL     1      -2.846   5.640   2.881  0.00  0.00    +0.155 HD
BRANCH  10  14
ATOM     14  C   UNL     1      -3.995   5.752   5.242  0.00  0.00    +0.019 C 
BRANCH  14  21
ATOM     15  C   UNL     1      -6.488   9.415   7.378  0.00  0.00    +0.005 C 
ATOM     16  C   UNL     1      -6.307   7.897   7.298  0.00  0.00    -0.031 C 
ATOM     17  C   UNL     1      -5.961   7.350   8.686  0.00  0.00    -0.001 C 
ATOM     18  C   UNL     1      -5.723   5.841   8.586  0.00  0.00    -0.018 C 
ATOM     19  C   UNL     1      -4.604   5.571   7.578  0.00  0.00    -0.078 C 
ATOM     20  C   UNL     1      -5.171   7.568   6.327  0.00  0.00    -0.075 C 
ATOM     21  N   UNL     1      -5.010   6.100   6.258  0.00  0.00    +0.386 N 
ATOM     22  H   UNL     1      -5.907   5.678   5.992  0.00  0.00    -0.081 HD
ENDBRANCH  14  21
ENDBRANCH  10  14
ENDBRANCH   1  12
BRANCH   7  23
ATOM     23  C   UNL     1      -6.937   7.881  -4.095  0.00  0.00    -0.035 C 
ATOM     24  C   UNL     1      -7.887   9.035  -3.767  0.00  0.00    +0.011 C 
ATOM     25  C   UNL     1      -6.203   8.181  -5.404  0.00  0.00    +0.011 C 
ATOM     26  C   UNL     1      -7.739   6.587  -4.246  0.00  0.00    +0.011 C 
ENDBRANCH   7  23
BRANCH   2  27
ATOM     27  C   UNL     1      -2.225   5.743   0.202  0.00  0.00    +0.251 C 
ATOM     28  O   UNL     1      -1.317   6.551   0.268  0.00  0.00    -0.270 OA
ATOM     29  N   UNL     1      -1.952   4.434   0.033  0.00  0.00    -0.278 N 
ATOM     30  H   UNL     1      -2.675   3.801  -0.099  0.00  0.00    +0.155 HD
BRANCH  29  31
ATOM     31  C   UNL     1      -0.622   3.988   0.048  0.00  0.00    +0.076 A 
ATOM     32  C   UNL     1       0.401   4.840  -0.342  0.00  0.00    +0.030 A 
ATOM     33  C   UNL     1       1.711   4.400  -0.328  0.00  0.00    +0.047 A 
ATOM     34  C   UNL     1       2.006   3.106   0.076  0.00  0.00    +0.124 A 
ATOM     35  C   UNL     1       0.987   2.250   0.465  0.00  0.00    +0.093 A 
ATOM     36  C   UNL     1      -0.328   2.686   0.447  0.00  0.00    +0.145 A 
BRANCH  36  37
ATOM     37  O   UNL     1      -1.329   1.847   0.824  0.00  0.00    -0.493 OA
ATOM     38  C   UNL     1      -0.954   0.528   1.227  0.00  0.00    +0.277 C 
ENDBRANCH  36  37
BRANCH  34  39
ATOM     39  O   UNL     1       3.296   2.676   0.089  0.00  0.00    -0.495 OA
ATOM     40  C   UNL     1       4.295   3.610  -0.325  0.00  0.00    +0.277 C 
ENDBRANCH  34  39
ENDBRANCH  29  31
ENDBRANCH   2  27
TORSDOF 8
