REMARK  Name = ZINC22668050
REMARK  9 active torsions:
REMARK  status: ('A' for Active; 'I' for Inactive)
REMARK    1  A    between atoms: C_1  and  C_2
REMARK    2  A    between atoms: N_13  and  C_29
REMARK    3  A    between atoms: C_14  and  S_16
REMARK    4  A    between atoms: S_16  and  C_17
REMARK    5  A    between atoms: C_17  and  C_18
REMARK    6  A    between atoms: C_23  and  C_26
REMARK    7  A    between atoms: C_29  and  C_30
REMARK    8  A    between atoms: C_30  and  C_31
REMARK    9  A    between atoms: C_30  and  C_32
REMARK                            x       y       z     vdW  Elec       q    Type
REMARK                         _______ _______ _______ _____ _____    ______ ____
ROOT
ATOM      1  C   UNL     1       9.758   8.229  -0.147  0.00  0.00    +0.008 C 
ATOM      2  C   UNL     1       8.859   7.025  -0.432  0.00  0.00    -0.009 C 
ATOM      3  C   UNL     1       9.331   5.825   0.394  0.00  0.00    +0.008 C 
ATOM      4  C   UNL     1       8.602   4.561  -0.064  0.00  0.00    +0.037 C 
ATOM      5  C   UNL     1       7.099   4.824  -0.044  0.00  0.00    -0.023 A 
ATOM      6  C   UNL     1       6.621   6.085  -0.032  0.00  0.00    -0.004 A 
ATOM      7  S   UNL     1       4.857   5.908  -0.013  0.00  0.00    -0.073 S 
ATOM      8  C   UNL     1       4.767   4.136  -0.022  0.00  0.00    +0.117 A 
ATOM      9  C   UNL     1       6.115   3.740  -0.038  0.00  0.00    +0.076 A 
ATOM     10  C   UNL     1       6.350   2.329  -0.048  0.00  0.00    +0.263 A 
ATOM     11  O   UNL     1       7.488   1.892  -0.061  0.00  0.00    -0.267 OA
ATOM     12  N   UNL     1       5.298   1.490  -0.041  0.00  0.00    -0.287 N 
ATOM     13  C   UNL     1       4.017   1.961  -0.026  0.00  0.00    +0.173 A 
ATOM     14  N   UNL     1       3.772   3.256  -0.022  0.00  0.00    -0.216 NA
ATOM     15  C   UNL     1       7.413   7.356  -0.036  0.00  0.00    +0.046 C 
ENDROOT
BRANCH  13  16
ATOM     16  S   UNL     1       2.672   0.823  -0.019  0.00  0.00    -0.078 S 
BRANCH  16  17
ATOM     17  C   UNL     1       1.280   1.980   0.001  0.00  0.00    +0.173 C 
BRANCH  17  18
ATOM     18  C   UNL     1      -0.014   1.209   0.009  0.00  0.00    +0.226 C 
ATOM     19  O   UNL     1       0.002  -0.004   0.002  0.00  0.00    -0.275 OA
ATOM     20  N   UNL     1      -1.191   1.867   0.018  0.00  0.00    -0.301 N 
ATOM     21  C   UNL     1      -1.227   3.335   0.032  0.00  0.00    +0.108 C 
ATOM     22  C   UNL     1      -2.093   3.800   1.201  0.00  0.00    +0.032 C 
ATOM     23  C   UNL     1      -3.470   3.138   1.108  0.00  0.00    +0.078 C 
ATOM     24  C   UNL     1      -3.314   1.618   1.194  0.00  0.00    +0.032 C 
ATOM     25  C   UNL     1      -2.461   1.129   0.020  0.00  0.00    +0.108 C 
BRANCH  23  26
ATOM     26  C   UNL     1      -4.337   3.620   2.243  0.00  0.00    +0.214 C 
ATOM     27  O   UNL     1      -4.785   2.826   3.042  0.00  0.00    -0.276 OA
ATOM     28  N   UNL     1      -4.613   4.933   2.369  0.00  0.00    -0.329 N 
ATOM     29  H   UNL     1      -5.246   5.284   3.198  0.00  0.00    +0.145 HD
ATOM     30  H   UNL     1      -4.206   5.653   1.644  0.00  0.00    +0.145 HD
ENDBRANCH  23  26
ENDBRANCH  17  18
ENDBRANCH  16  17
ENDBRANCH  13  16
BRANCH  12  31
ATOM     31  C   UNL     1       5.531   0.044  -0.049  0.00  0.00    +0.130 C 
BRANCH  31  32
ATOM     32  C   UNL     1       5.598  -0.453  -1.495  0.00  0.00    +0.003 C 
ATOM     33  C   UNL     1       5.965  -1.938  -1.507  0.00  0.00    +0.009 C 
ATOM     34  C   UNL     1       4.236  -0.259  -2.165  0.00  0.00    +0.009 C 
ENDBRANCH  31  32
ENDBRANCH  12  31
TORSDOF 6
