REMARK  Name = ZINC47633599
REMARK  4 active torsions:
REMARK  status: ('A' for Active; 'I' for Inactive)
REMARK    1  A    between atoms: C_1  and  C_2
REMARK    2  A    between atoms: C_7  and  N_10
REMARK    3  A    between atoms: N_13  and  C_14
REMARK    4  A    between atoms: C_17  and  O_20
REMARK                            x       y       z     vdW  Elec       q    Type
REMARK                         _______ _______ _______ _____ _____    ______ ____
ROOT
ATOM      1  N   UNL     1       1.471  -2.526   2.420  0.00  0.00    -0.297 N 
ATOM      2  C   UNL     1       2.056  -3.740   2.406  0.00  0.00    +0.300 C 
ATOM      3  O   UNL     1       1.996  -4.433   1.409  0.00  0.00    -0.253 OA
ATOM      4  N   UNL     1       2.708  -4.187   3.498  0.00  0.00    -0.297 N 
ATOM      5  H   UNL     1       1.520  -1.974   3.216  0.00  0.00    +0.151 HD
ATOM      6  H   UNL     1       2.756  -3.634   4.294  0.00  0.00    +0.151 HD
ENDROOT
BRANCH   1  12
ATOM      7  C   UNL     1      -0.019   1.526   0.010  0.00  0.00    +0.007 C 
ATOM      8  C   UNL     1       0.002  -0.004   0.002  0.00  0.00    -0.012 C 
ATOM      9  C   UNL     1      -1.433  -0.534   0.013  0.00  0.00    +0.003 C 
ATOM     10  C   UNL     1      -1.413  -2.063   0.004  0.00  0.00    +0.002 C 
ATOM     11  C   UNL     1      -0.673  -2.570   1.244  0.00  0.00    +0.022 C 
ATOM     12  C   UNL     1       0.763  -2.041   1.233  0.00  0.00    +0.075 C 
ATOM     13  C   UNL     1       0.742  -0.511   1.242  0.00  0.00    +0.025 C 
ENDBRANCH   1  12
BRANCH   4  14
ATOM     14  C   UNL     1       3.344  -5.506   3.483  0.00  0.00    +0.075 C 
ATOM     15  C   UNL     1       2.310  -6.575   3.844  0.00  0.00    +0.025 C 
ATOM     16  C   UNL     1       2.974  -7.953   3.828  0.00  0.00    +0.033 C 
ATOM     17  C   UNL     1       4.114  -7.982   4.848  0.00  0.00    +0.115 C 
ATOM     18  C   UNL     1       5.148  -6.913   4.487  0.00  0.00    +0.033 C 
ATOM     19  C   UNL     1       4.484  -5.535   4.503  0.00  0.00    +0.025 C 
BRANCH  17  20
ATOM     20  O   UNL     1       4.735  -9.269   4.833  0.00  0.00    -0.392 OA
ATOM     21  H   UNL     1       5.468  -9.359   5.457  0.00  0.00    +0.210 HD
ENDBRANCH  17  20
ENDBRANCH   4  14
TORSDOF 3
