REMARK  Name = ZINC32832437
REMARK  7 active torsions:
REMARK  status: ('A' for Active; 'I' for Inactive)
REMARK    1  A    between atoms: C_1  and  C_2
REMARK    2  A    between atoms: C_4  and  N_27
REMARK    3  A    between atoms: N_5  and  C_7
REMARK    4  A    between atoms: C_10  and  N_13
REMARK    5  A    between atoms: C_14  and  C_16
REMARK    6  A    between atoms: C_19  and  N_22
REMARK    7  A    between atoms: C_28  and  C_30
REMARK                            x       y       z     vdW  Elec       q    Type
REMARK                         _______ _______ _______ _____ _____    ______ ____
ROOT
ATOM      1  C   UNL     1      -0.934  -4.849   0.254  0.00  0.00    +0.068 A 
ATOM      2  C   UNL     1      -2.171  -4.224   0.174  0.00  0.00    +0.029 A 
ATOM      3  C   UNL     1      -2.245  -2.848   0.092  0.00  0.00    +0.025 A 
ATOM      4  C   UNL     1      -1.081  -2.089   0.091  0.00  0.00    +0.034 A 
ATOM      5  C   UNL     1       0.156  -2.715   0.166  0.00  0.00    +0.025 A 
ATOM      6  C   UNL     1       0.230  -4.091   0.253  0.00  0.00    +0.029 A 
ENDROOT
BRANCH   1  11
ATOM      7  C   UNL     1      -2.049  -9.540   1.423  0.00  0.00    +0.067 C 
ATOM      8  C   UNL     1      -1.363  -8.322   0.861  0.00  0.00    +0.062 A 
ATOM      9  C   UNL     1      -0.191  -8.324   0.099  0.00  0.00    +0.068 A 
ATOM     10  C   UNL     1       0.105  -7.033  -0.215  0.00  0.00    +0.129 A 
ATOM     11  N   UNL     1      -0.859  -6.247   0.337  0.00  0.00    -0.218 N 
ATOM     12  N   UNL     1      -1.760  -7.084   1.008  0.00  0.00    -0.170 NA
BRANCH  10  13
ATOM     13  N   UNL     1       1.197  -6.596  -0.965  0.00  0.00    -0.271 N 
ATOM     14  C   UNL     1       2.079  -7.489  -1.454  0.00  0.00    +0.215 C 
ATOM     15  O   UNL     1       1.924  -8.673  -1.242  0.00  0.00    -0.276 OA
ATOM     16  C   UNL     1       3.259  -7.016  -2.265  0.00  0.00    +0.109 C 
ATOM     17  H   UNL     1       1.337  -5.522  -1.157  0.00  0.00    +0.156 HD
ENDBRANCH  10  13
ENDBRANCH   1  11
BRANCH   4  18
ATOM     18  N   UNL     1      -1.156  -0.694   0.009  0.00  0.00    -0.282 N 
ATOM     19  C   UNL     1      -2.169  -0.037   0.608  0.00  0.00    +0.248 C 
ATOM     20  O   UNL     1      -3.063  -0.660   1.147  0.00  0.00    -0.270 OA
ATOM     21  H   UNL     1      -0.388  -0.134  -0.544  0.00  0.00    +0.155 HD
BRANCH  19  22
ATOM     22  C   UNL     1      -2.193   1.440   0.609  0.00  0.00    +0.037 A 
ATOM     23  C   UNL     1      -1.163   2.157  -0.005  0.00  0.00    +0.015 A 
ATOM     24  C   UNL     1      -1.192   3.534  -0.007  0.00  0.00    +0.028 A 
ATOM     25  C   UNL     1      -2.238   4.210   0.611  0.00  0.00    +0.065 A 
ATOM     26  C   UNL     1      -3.262   3.499   1.228  0.00  0.00    +0.028 A 
ATOM     27  C   UNL     1      -3.243   2.122   1.229  0.00  0.00    +0.015 A 
BRANCH  25  28
ATOM     28  N   UNL     1      -2.260   5.608   0.613  0.00  0.00    -0.240 N 
ATOM     29  C   UNL     1      -1.328   6.424   0.056  0.00  0.00    +0.114 A 
ATOM     30  C   UNL     1      -1.720   7.701   0.272  0.00  0.00    +0.041 A 
ATOM     31  C   UNL     1      -2.921   7.668   0.990  0.00  0.00    +0.135 A 
ATOM     32  N   UNL     1      -3.245   6.418   1.194  0.00  0.00    -0.175 NA
ENDBRANCH  25  28
ENDBRANCH  19  22
ENDBRANCH   4  18
TORSDOF 5
