REMARK  Name = ZINC02875588
REMARK  9 active torsions:
REMARK  status: ('A' for Active; 'I' for Inactive)
REMARK    1  A    between atoms: C_1  and  C_2
REMARK    2  A    between atoms: C_5  and  N_9
REMARK    3  A    between atoms: C_6  and  C_8
REMARK    4  A    between atoms: N_9  and  S_10
REMARK    5  A    between atoms: S_10  and  C_13
REMARK    6  A    between atoms: C_15  and  C_20
REMARK    7  A    between atoms: C_18  and  C_19
REMARK    8  A    between atoms: N_22  and  C_23
REMARK    9  A    between atoms: C_25  and  C_30
REMARK                            x       y       z     vdW  Elec       q    Type
REMARK                         _______ _______ _______ _____ _____    ______ ____
ROOT
ATOM      1  C   UNL     1       2.447   0.111  -2.418  0.00  0.00    +0.112 A 
ATOM      2  C   UNL     1       3.443  -0.155  -3.334  0.00  0.00    +0.042 A 
ATOM      3  C   UNL     1       3.296   0.256  -4.660  0.00  0.00    +0.039 A 
ATOM      4  C   UNL     1       2.145   0.944  -5.047  0.00  0.00    +0.013 A 
ATOM      5  C   UNL     1       1.159   1.209  -4.120  0.00  0.00    +0.006 A 
ATOM      6  C   UNL     1       1.309   0.794  -2.808  0.00  0.00    -0.024 A 
ATOM      7  C   UNL     1       0.227   1.087  -1.801  0.00  0.00    +0.046 C 
ENDROOT
BRANCH   3   8
ATOM      8  C   UNL     1       4.357  -0.032  -5.649  0.00  0.00    +0.248 C 
ATOM      9  O   UNL     1       5.358  -0.631  -5.309  0.00  0.00    -0.270 OA
ATOM     10  N   UNL     1       4.214   0.371  -6.927  0.00  0.00    -0.280 N 
ATOM     11  H   UNL     1       3.446   0.904  -7.184  0.00  0.00    +0.155 HD
BRANCH  10  12
ATOM     12  C   UNL     1       5.174   0.021  -7.882  0.00  0.00    +0.053 A 
ATOM     13  C   UNL     1       6.482  -0.236  -7.493  0.00  0.00    +0.037 A 
ATOM     14  C   UNL     1       7.428  -0.582  -8.438  0.00  0.00    +0.057 A 
ATOM     15  C   UNL     1       7.074  -0.673  -9.772  0.00  0.00    +0.014 A 
ATOM     16  C   UNL     1       5.772  -0.418 -10.164  0.00  0.00    +0.022 A 
ATOM     17  C   UNL     1       4.820  -0.077  -9.222  0.00  0.00    +0.062 A 
ATOM     18 CL   UNL     1       3.184   0.236  -9.714  0.00  0.00    -0.082 Cl
BRANCH  14  19
ATOM     19  C   UNL     1       8.847  -0.861  -8.016  0.00  0.00    +0.417 C 
ATOM     20  F   UNL     1       8.986  -2.221  -7.719  0.00  0.00    -0.166 F 
ATOM     21  F   UNL     1       9.719  -0.519  -9.055  0.00  0.00    -0.166 F 
ATOM     22  F   UNL     1       9.154  -0.103  -6.881  0.00  0.00    -0.166 F 
ENDBRANCH  14  19
ENDBRANCH  10  12
ENDBRANCH   3   8
BRANCH   1  23
ATOM     23  S   UNL     1       2.627  -0.413  -0.746  0.00  0.00    +0.073 S 
ATOM     24  O   UNL     1       2.336   0.715   0.067  0.00  0.00    -0.150 OA
ATOM     25  O   UNL     1       3.864  -1.108  -0.669  0.00  0.00    -0.150 OA
BRANCH  23  26
ATOM     26  N   UNL     1       1.439  -1.528  -0.451  0.00  0.00    -0.216 N 
ATOM     27  H   UNL     1       0.784  -1.367   0.246  0.00  0.00    +0.174 HD
BRANCH  26  32
ATOM     28  C   UNL     1       1.198  -6.293  -3.516  0.00  0.00    +0.044 C 
ATOM     29  C   UNL     1       1.262  -5.027  -2.702  0.00  0.00    -0.050 A 
ATOM     30  C   UNL     1       2.489  -4.475  -2.379  0.00  0.00    +0.005 A 
ATOM     31  C   UNL     1       2.551  -3.318  -1.628  0.00  0.00    +0.025 A 
ATOM     32  C   UNL     1       1.380  -2.702  -1.206  0.00  0.00    +0.051 A 
ATOM     33  C   UNL     1       0.150  -3.256  -1.537  0.00  0.00    -0.028 A 
ATOM     34  C   UNL     1       0.095  -4.416  -2.283  0.00  0.00    +0.008 A 
ATOM     35  C   UNL     1      -1.124  -2.591  -1.081  0.00  0.00    +0.046 C 
ENDBRANCH  26  32
ENDBRANCH  23  26
ENDBRANCH   1  23
TORSDOF 6
