REMARK  Name = ZINC13412629
REMARK  9 active torsions:
REMARK  status: ('A' for Active; 'I' for Inactive)
REMARK    1  A    between atoms: C_1  and  C_2
REMARK    2  A    between atoms: C_2  and  C_3
REMARK    3  A    between atoms: C_2  and  C_4
REMARK    4  A    between atoms: C_9  and  N_10
REMARK    5  A    between atoms: C_11  and  C_28
REMARK    6  A    between atoms: C_14  and  S_15
REMARK    7  A    between atoms: S_15  and  C_16
REMARK    8  A    between atoms: C_16  and  C_17
REMARK    9  A    between atoms: C_23  and  C_26
REMARK                            x       y       z     vdW  Elec       q    Type
REMARK                         _______ _______ _______ _____ _____    ______ ____
ROOT
ATOM      1  N   UNL     1      -0.477   4.792  -6.869  0.00  0.00    -0.270 N 
ATOM      2  C   UNL     1      -1.655   4.906  -7.576  0.00  0.00    +0.169 A 
ATOM      3  N   UNL     1      -2.584   4.299  -6.875  0.00  0.00    -0.128 NA
ATOM      4  N   UNL     1      -2.077   3.814  -5.798  0.00  0.00    -0.122 NA
ATOM      5  C   UNL     1      -0.794   4.090  -5.738  0.00  0.00    +0.197 A 
ENDROOT
BRANCH   2   6
ATOM      6  C   UNL     1      -1.837   5.584  -8.877  0.00  0.00    +0.020 A 
ATOM      7  C   UNL     1      -0.855   6.453  -9.357  0.00  0.00    +0.013 A 
ATOM      8  C   UNL     1      -1.028   7.079 -10.574  0.00  0.00    +0.021 A 
ATOM      9  C   UNL     1      -2.178   6.855 -11.314  0.00  0.00    +0.041 A 
ATOM     10  C   UNL     1      -3.157   5.998 -10.839  0.00  0.00    +0.021 A 
ATOM     11  C   UNL     1      -2.993   5.363  -9.626  0.00  0.00    +0.013 A 
ATOM     12 CL   UNL     1      -2.392   7.652 -12.841  0.00  0.00    -0.084 Cl
ENDBRANCH   2   6
BRANCH   1  18
ATOM     13  C   UNL     1       1.161   6.569  -6.847  0.00  0.00    -0.021 A 
ATOM     14  C   UNL     1       2.404   7.056  -7.203  0.00  0.00    +0.006 A 
ATOM     15  C   UNL     1       3.265   6.275  -7.951  0.00  0.00    +0.000 A 
ATOM     16  C   UNL     1       2.888   5.003  -8.342  0.00  0.00    +0.002 A 
ATOM     17  C   UNL     1       1.649   4.509  -7.985  0.00  0.00    +0.026 A 
ATOM     18  C   UNL     1       0.781   5.291  -7.233  0.00  0.00    +0.054 A 
BRANCH  13  20
ATOM     19  C   UNL     1       0.878   7.780  -4.702  0.00  0.00    +0.012 C 
ATOM     20  C   UNL     1       0.221   7.423  -6.037  0.00  0.00    +0.015 C 
ATOM     21  C   UNL     1      -0.097   8.705  -6.808  0.00  0.00    +0.012 C 
ENDBRANCH  13  20
ENDBRANCH   1  18
BRANCH   5  22
ATOM     22  S   UNL     1       0.314   3.634  -4.446  0.00  0.00    -0.076 S 
BRANCH  22  23
ATOM     23  C   UNL     1      -0.827   2.757  -3.349  0.00  0.00    +0.173 C 
BRANCH  23  24
ATOM     24  C   UNL     1      -0.078   2.261  -2.138  0.00  0.00    +0.226 C 
ATOM     25  O   UNL     1       1.110   2.480  -2.029  0.00  0.00    -0.275 OA
ATOM     26  N   UNL     1      -0.729   1.575  -1.178  0.00  0.00    -0.300 N 
ATOM     27  C   UNL     1      -2.168   1.303  -1.297  0.00  0.00    +0.108 C 
ATOM     28  C   UNL     1      -2.869   1.797  -0.028  0.00  0.00    +0.020 C 
ATOM     29  C   UNL     1      -2.208   1.161   1.197  0.00  0.00    +0.018 C 
ATOM     30  C   UNL     1      -0.736   1.583   1.264  0.00  0.00    +0.119 C 
ATOM     31  C   UNL     1      -0.013   1.086   0.008  0.00  0.00    +0.122 C 
BRANCH  30  32
ATOM     32  C   UNL     1      -0.091   0.982   2.486  0.00  0.00    +0.361 C 
ATOM     33  O   UNL     1      -0.740   0.290   3.234  0.00  0.00    -0.246 OA
ATOM     34  O   UNL     1       1.206   1.216   2.745  0.00  0.00    -0.246 OA
ENDBRANCH  30  32
ENDBRANCH  23  24
ENDBRANCH  22  23
ENDBRANCH   5  22
TORSDOF 7
