REMARK  Name = ZINC08896813
REMARK  10 active torsions:
REMARK  status: ('A' for Active; 'I' for Inactive)
REMARK    1  A    between atoms: C_1  and  C_2
REMARK    2  A    between atoms: C_2  and  C_3
REMARK    3  A    between atoms: C_2  and  C_4
REMARK    4  A    between atoms: C_2  and  C_5
REMARK    5  A    between atoms: C_8  and  C_11
REMARK    6  A    between atoms: N_13  and  C_14
REMARK    7  A    between atoms: C_14  and  N_16
REMARK    8  A    between atoms: N_16  and  C_17
REMARK    9  A    between atoms: C_20  and  N_23
REMARK   10  A    between atoms: C_29  and  C_31
REMARK                            x       y       z     vdW  Elec       q    Type
REMARK                         _______ _______ _______ _____ _____    ______ ____
ROOT
ATOM      1  C   UNL     1       0.128  -6.318  -3.432  0.00  0.00    +0.033 A 
ATOM      2  C   UNL     1      -0.644  -7.289  -2.806  0.00  0.00    +0.025 A 
ATOM      3  C   UNL     1      -0.058  -8.460  -2.368  0.00  0.00    +0.025 A 
ATOM      4  C   UNL     1       1.304  -8.663  -2.543  0.00  0.00    +0.030 A 
ATOM      5  C   UNL     1       2.077  -7.690  -3.164  0.00  0.00    +0.025 A 
ATOM      6  C   UNL     1       1.490  -6.521  -3.606  0.00  0.00    +0.025 A 
ENDROOT
BRANCH   4   7
ATOM      7  N   UNL     1       1.899  -9.847  -2.095  0.00  0.00    -0.327 N 
ATOM      8  C   UNL     1       2.607 -10.527  -3.188  0.00  0.00    +0.124 C 
ATOM      9  C   UNL     1       3.391 -11.716  -2.622  0.00  0.00    +0.127 C 
ATOM     10  N   UNL     1       2.465 -12.566  -1.858  0.00  0.00    -0.295 N 
ATOM     11  C   UNL     1       1.619 -11.929  -0.836  0.00  0.00    +0.127 C 
ATOM     12  C   UNL     1       0.905 -10.732  -1.472  0.00  0.00    +0.124 C 
ATOM     13  C   UNL     1       2.393 -13.892  -2.088  0.00  0.00    +0.247 C 
ATOM     14  O   UNL     1       1.554 -14.562  -1.519  0.00  0.00    -0.270 OA
BRANCH  13  15
ATOM     15  C   UNL     1       3.334 -14.530  -3.032  0.00  0.00    +0.037 A 
ATOM     16  C   UNL     1       4.645 -14.063  -3.139  0.00  0.00    +0.013 A 
ATOM     17  C   UNL     1       5.520 -14.667  -4.018  0.00  0.00    +0.001 A 
ATOM     18  C   UNL     1       5.097 -15.727  -4.801  0.00  0.00    +0.000 A 
ATOM     19  C   UNL     1       3.798 -16.191  -4.703  0.00  0.00    +0.001 A 
ATOM     20  C   UNL     1       2.914 -15.600  -3.824  0.00  0.00    +0.013 A 
ENDBRANCH  13  15
ENDBRANCH   4   7
BRANCH   1  21
ATOM     21  N   UNL     1      -0.468  -5.132  -3.881  0.00  0.00    -0.297 N 
ATOM     22  H   UNL     1      -1.093  -4.657  -3.312  0.00  0.00    +0.154 HD
BRANCH  21  23
ATOM     23  C   UNL     1      -0.172  -4.652  -5.105  0.00  0.00    +0.141 C 
ATOM     24  S   UNL     1       1.013  -5.429  -6.066  0.00  0.00    -0.018 S 
BRANCH  23  27
ATOM     25  C   UNL     1      -0.514  -3.080  -6.797  0.00  0.00    +0.250 C 
ATOM     26  O   UNL     1       0.327  -3.631  -7.479  0.00  0.00    -0.270 OA
ATOM     27  N   UNL     1      -0.810  -3.560  -5.573  0.00  0.00    -0.264 N 
ATOM     28  H   UNL     1      -1.481  -3.120  -5.028  0.00  0.00    +0.157 HD
BRANCH  25  32
ATOM     29  C   UNL     1      -2.524   0.359  -8.270  0.00  0.00    -0.042 A 
ATOM     30  C   UNL     1      -1.566  -0.266  -9.050  0.00  0.00    +0.005 A 
ATOM     31  C   UNL     1      -0.910  -1.383  -8.577  0.00  0.00    +0.013 A 
ATOM     32  C   UNL     1      -1.213  -1.883  -7.309  0.00  0.00    +0.037 A 
ATOM     33  C   UNL     1      -2.180  -1.248  -6.528  0.00  0.00    +0.013 A 
ATOM     34  C   UNL     1      -2.829  -0.131  -7.013  0.00  0.00    +0.005 A 
BRANCH  29  36
ATOM     35  C   UNL     1      -3.981   1.222 -10.081  0.00  0.00    +0.015 C 
ATOM     36  C   UNL     1      -3.237   1.579  -8.793  0.00  0.00    -0.013 C 
ATOM     37  C   UNL     1      -4.237   2.073  -7.746  0.00  0.00    +0.015 C 
ATOM     38  C   UNL     1      -2.216   2.682  -9.083  0.00  0.00    +0.015 C 
ENDBRANCH  29  36
ENDBRANCH  25  32
ENDBRANCH  23  27
ENDBRANCH  21  23
ENDBRANCH   1  21
TORSDOF 7
