REMARK  Name = ZINC38547548
REMARK  11 active torsions:
REMARK  status: ('A' for Active; 'I' for Inactive)
REMARK    1  A    between atoms: C_1  and  C_2
REMARK    2  A    between atoms: C_6  and  N_8
REMARK    3  A    between atoms: N_8  and  C_9
REMARK    4  A    between atoms: C_9  and  C_11
REMARK    5  A    between atoms: C_9  and  C_19
REMARK    6  A    between atoms: C_14  and  O_17
REMARK    7  A    between atoms: O_17  and  C_18
REMARK    8  A    between atoms: C_20  and  C_33
REMARK    9  A    between atoms: C_21  and  C_32
REMARK   10  A    between atoms: C_23  and  N_24
REMARK   11  A    between atoms: C_25  and  C_27
REMARK                            x       y       z     vdW  Elec       q    Type
REMARK                         _______ _______ _______ _____ _____    ______ ____
ROOT
ATOM      1  C   UNL     1       0.238  -4.196   2.541  0.00  0.00    +0.135 C 
ENDROOT
BRANCH   1   2
ATOM      2  C   UNL     1      -1.002  -4.803   1.938  0.00  0.00    +0.009 A 
ATOM      3  C   UNL     1      -1.676  -5.821   2.589  0.00  0.00    -0.033 A 
ATOM      4  C   UNL     1      -2.788  -6.343   2.019  0.00  0.00    -0.008 A 
ATOM      5  S   UNL     1      -2.919  -5.392   0.515  0.00  0.00    -0.078 S 
ATOM      6  C   UNL     1      -1.485  -4.355   0.745  0.00  0.00    +0.078 A 
ATOM      7  C   UNL     1      -3.683  -7.445   2.526  0.00  0.00    +0.052 C 
ATOM      8  C   UNL     1      -1.178  -6.341   3.913  0.00  0.00    +0.045 C 
BRANCH   6   9
ATOM      9  N   UNL     1      -0.986  -3.348  -0.083  0.00  0.00    -0.273 N 
ATOM     10  C   UNL     1      -1.648  -3.009  -1.207  0.00  0.00    +0.284 C 
ATOM     11  O   UNL     1      -2.728  -3.514  -1.452  0.00  0.00    -0.266 OA
ATOM     12  H   UNL     1      -0.162  -2.891   0.150  0.00  0.00    +0.156 HD
BRANCH  10  13
ATOM     13  C   UNL     1      -1.067  -2.034  -2.135  0.00  0.00    +0.189 A 
ATOM     14  C   UNL     1      -1.670  -1.532  -3.253  0.00  0.00    +0.054 A 
ATOM     15  C   UNL     1      -0.759  -0.636  -3.835  0.00  0.00    +0.042 A 
ATOM     16  C   UNL     1       0.346  -0.631  -3.057  0.00  0.00    +0.196 A 
ATOM     17  O   UNL     1       0.154  -1.470  -2.030  0.00  0.00    -0.458 OA
ENDBRANCH  10  13
ENDBRANCH   6   9
ENDBRANCH   1   2
BRANCH   1  18
ATOM     18  C   UNL     1       1.456  -4.739   1.838  0.00  0.00    -0.023 A 
ATOM     19  C   UNL     1       1.940  -4.107   0.708  0.00  0.00    +0.009 A 
ATOM     20  C   UNL     1       3.055  -4.604   0.062  0.00  0.00    +0.046 A 
ATOM     21  C   UNL     1       3.690  -5.738   0.548  0.00  0.00    +0.120 A 
ATOM     22  C   UNL     1       3.202  -6.370   1.683  0.00  0.00    +0.046 A 
ATOM     23  C   UNL     1       2.090  -5.866   2.328  0.00  0.00    +0.009 A 
BRANCH  21  24
ATOM     24  O   UNL     1       4.787  -6.228  -0.086  0.00  0.00    -0.495 OA
ATOM     25  C   UNL     1       5.389  -7.399   0.470  0.00  0.00    +0.277 C 
ENDBRANCH  21  24
ENDBRANCH   1  18
BRANCH   1  26
ATOM     26  N   UNL     1       0.194  -2.740   2.386  0.00  0.00    -0.320 N 
ATOM     27  H   UNL     1       0.639  -2.318   1.634  0.00  0.00    +0.148 HD
BRANCH  26  33
ATOM     28  C   UNL     1      -0.945   1.631   3.972  0.00  0.00    +0.063 C 
ATOM     29  C   UNL     1      -1.050   0.133   4.102  0.00  0.00    +0.014 A 
ATOM     30  C   UNL     1      -1.804  -0.410   5.123  0.00  0.00    +0.021 A 
ATOM     31  C   UNL     1      -1.897  -1.791   5.239  0.00  0.00    +0.005 A 
ATOM     32  C   UNL     1      -1.226  -2.577   4.319  0.00  0.00    +0.041 A 
ATOM     33  C   UNL     1      -0.485  -1.962   3.316  0.00  0.00    +0.097 A 
ATOM     34  N   UNL     1      -0.425  -0.641   3.236  0.00  0.00    -0.347 N 
ATOM     35  H   UNL     1       0.095  -0.233   2.526  0.00  0.00    +0.167 HD
ENDBRANCH  26  33
ENDBRANCH   1  26
TORSDOF 7
