REMARK  Name = ZINC09013063
REMARK  11 active torsions:
REMARK  status: ('A' for Active; 'I' for Inactive)
REMARK    1  A    between atoms: C_1  and  C_2
REMARK    2  A    between atoms: C_5  and  N_8
REMARK    3  A    between atoms: C_9  and  C_11
REMARK    4  A    between atoms: C_11  and  N_12
REMARK    5  A    between atoms: C_13  and  C_15
REMARK    6  A    between atoms: C_21  and  C_23
REMARK    7  A    between atoms: C_23  and  C_25
REMARK    8  A    between atoms: C_23  and  N_26
REMARK    9  A    between atoms: N_26  and  S_27
REMARK   10  A    between atoms: S_27  and  C_30
REMARK   11  A    between atoms: C_33  and  C_36
REMARK                            x       y       z     vdW  Elec       q    Type
REMARK                         _______ _______ _______ _____ _____    ______ ____
ROOT
ATOM      1  C   UNL     1       5.257  -6.329  -1.259  0.00  0.00    +0.078 C 
ATOM      2  C   UNL     1       6.142  -5.780  -2.381  0.00  0.00    +0.032 C 
ATOM      3  C   UNL     1       7.574  -6.290  -2.192  0.00  0.00    +0.108 C 
ATOM      4  N   UNL     1       7.548  -7.756  -2.107  0.00  0.00    -0.300 N 
ATOM      5  C   UNL     1       6.661  -8.391  -1.122  0.00  0.00    +0.108 C 
ATOM      6  C   UNL     1       5.239  -7.858  -1.323  0.00  0.00    +0.032 C 
ATOM      7  C   UNL     1       8.322  -8.505  -2.917  0.00  0.00    +0.234 C 
ATOM      8  O   UNL     1       9.121  -7.971  -3.657  0.00  0.00    -0.274 OA
ENDROOT
BRANCH   1  10
ATOM      9  N   UNL     1       3.626  -4.475  -1.399  0.00  0.00    -0.306 N 
ATOM     10  C   UNL     1       3.855  -5.803  -1.423  0.00  0.00    +0.217 C 
ATOM     11  O   UNL     1       2.932  -6.574  -1.576  0.00  0.00    -0.276 OA
ATOM     12  H   UNL     1       4.365  -3.858  -1.277  0.00  0.00    +0.149 HD
BRANCH   9  13
ATOM     13  C   UNL     1       2.263  -3.963  -1.558  0.00  0.00    +0.200 C 
BRANCH  13  15
ATOM     14  N   UNL     1       1.132  -1.764  -1.619  0.00  0.00    -0.284 N 
ATOM     15  C   UNL     1       2.281  -2.458  -1.495  0.00  0.00    +0.234 C 
ATOM     16  O   UNL     1       3.329  -1.870  -1.333  0.00  0.00    -0.274 OA
ATOM     17  H   UNL     1       0.285  -2.234  -1.672  0.00  0.00    +0.155 HD
BRANCH  14  22
ATOM     18  C   UNL     1       1.246   3.904  -1.826  0.00  0.00    +0.044 C 
ATOM     19  C   UNL     1       1.216   2.398  -1.770  0.00  0.00    -0.050 A 
ATOM     20  C   UNL     1       2.260   1.667  -2.308  0.00  0.00    +0.005 A 
ATOM     21  C   UNL     1       2.235   0.287  -2.259  0.00  0.00    +0.023 A 
ATOM     22  C   UNL     1       1.160  -0.366  -1.669  0.00  0.00    +0.033 A 
ATOM     23  C   UNL     1       0.114   0.371  -1.131  0.00  0.00    +0.023 A 
ATOM     24  C   UNL     1       0.145   1.751  -1.183  0.00  0.00    +0.005 A 
ENDBRANCH  14  22
ENDBRANCH  13  15
ENDBRANCH   9  13
ENDBRANCH   1  10
BRANCH   7  25
ATOM     25  C   UNL     1       8.195 -10.007  -2.904  0.00  0.00    +0.159 C 
ATOM     26  C   UNL     1       8.896 -10.567  -1.664  0.00  0.00    +0.035 C 
BRANCH  25  27
ATOM     27  N   UNL     1       8.818 -10.560  -4.109  0.00  0.00    -0.178 NA
ATOM     28  H   UNL     1       9.610 -10.141  -4.481  0.00  0.00    +0.149 HD
BRANCH  27  29
ATOM     29  S   UNL     1       8.171 -11.900  -4.835  0.00  0.00    +0.059 S 
ATOM     30  O   UNL     1       8.972 -12.171  -5.976  0.00  0.00    -0.153 OA
ATOM     31  O   UNL     1       7.962 -12.858  -3.806  0.00  0.00    -0.153 OA
BRANCH  29  32
ATOM     32  C   UNL     1       6.576 -11.450  -5.434  0.00  0.00    +0.105 A 
ATOM     33  C   UNL     1       5.465 -11.608  -4.628  0.00  0.00    +0.029 A 
ATOM     34  C   UNL     1       4.214 -11.251  -5.096  0.00  0.00    +0.005 A 
ATOM     35  C   UNL     1       4.074 -10.743  -6.374  0.00  0.00    -0.050 A 
ATOM     36  C   UNL     1       5.185 -10.588  -7.182  0.00  0.00    +0.005 A 
ATOM     37  C   UNL     1       6.436 -10.942  -6.712  0.00  0.00    +0.029 A 
ATOM     38  C   UNL     1       2.711 -10.357  -6.887  0.00  0.00    +0.044 C 
ENDBRANCH  29  32
ENDBRANCH  27  29
ENDBRANCH  25  27
ENDBRANCH   7  25
TORSDOF 8
