REMARK  Name = ZINC09080737
REMARK  11 active torsions:
REMARK  status: ('A' for Active; 'I' for Inactive)
REMARK    1  A    between atoms: C_1  and  N_2
REMARK    2  A    between atoms: N_2  and  C_3
REMARK    3  A    between atoms: N_2  and  C_4
REMARK    4  A    between atoms: C_7  and  C_10
REMARK    5  A    between atoms: C_10  and  C_12
REMARK    6  A    between atoms: C_10  and  S_28
REMARK    7  A    between atoms: C_12  and  N_13
REMARK    8  A    between atoms: C_14  and  C_16
REMARK    9  A    between atoms: N_18  and  N_19
REMARK   10  A    between atoms: C_20  and  C_22
REMARK   11  A    between atoms: S_28  and  C_31
REMARK                            x       y       z     vdW  Elec       q    Type
REMARK                         _______ _______ _______ _____ _____    ______ ____
ROOT
ATOM      1  C   UNL     1      -2.441   0.667   0.019  0.00  0.00    +0.183 C 
ENDROOT
BRANCH   1   5
ATOM      2  C   UNL     1      -6.170   2.757   0.047  0.00  0.00    +0.029 A 
ATOM      3  C   UNL     1      -5.867   1.887  -0.993  0.00  0.00    +0.023 A 
ATOM      4  C   UNL     1      -4.661   1.213  -0.999  0.00  0.00    +0.007 A 
ATOM      5  C   UNL     1      -3.756   1.404   0.029  0.00  0.00    -0.021 A 
ATOM      6  C   UNL     1      -4.056   2.265   1.069  0.00  0.00    +0.007 A 
ATOM      7  C   UNL     1      -5.258   2.946   1.078  0.00  0.00    +0.023 A 
BRANCH   2   9
ATOM      8  C   UNL     1      -8.294   3.336  -1.090  0.00  0.00    +0.129 C 
ATOM      9  N   UNL     1      -7.388   3.439   0.056  0.00  0.00    -0.336 N 
ATOM     10  C   UNL     1      -7.760   4.258   1.212  0.00  0.00    +0.129 C 
ENDBRANCH   2   9
ENDBRANCH   1   5
BRANCH   1  11
ATOM     11  S   UNL     1      -2.316  -0.367   1.505  0.00  0.00    +0.005 S 
ATOM     12  O   UNL     1      -3.470  -1.187   1.629  0.00  0.00    -0.169 OA
ATOM     13  O   UNL     1      -1.015  -0.928   1.602  0.00  0.00    -0.169 OA
BRANCH  11  14
ATOM     14  C   UNL     1      -2.421   0.763   2.853  0.00  0.00    +0.089 A 
ATOM     15  C   UNL     1      -1.270   1.327   3.372  0.00  0.00    +0.030 A 
ATOM     16  C   UNL     1      -1.351   2.217   4.426  0.00  0.00    +0.040 A 
ATOM     17  C   UNL     1      -2.584   2.536   4.969  0.00  0.00    +0.124 A 
ATOM     18  C   UNL     1      -3.735   1.966   4.452  0.00  0.00    +0.040 A 
ATOM     19  C   UNL     1      -3.652   1.081   3.394  0.00  0.00    +0.030 A 
ATOM     20  F   UNL     1      -2.664   3.402   6.003  0.00  0.00    -0.205 F 
ENDBRANCH  11  14
ENDBRANCH   1  11
BRANCH   1  21
ATOM     21  C   UNL     1      -1.291   1.676   0.002  0.00  0.00    +0.136 C 
BRANCH  21  22
ATOM     22  N   UNL     1      -0.013   0.960  -0.007  0.00  0.00    -0.305 N 
ATOM     23  C   UNL     1       1.145   1.649  -0.028  0.00  0.00    +0.301 C 
ATOM     24  O   UNL     1       1.130   2.862  -0.034  0.00  0.00    -0.265 OA
ATOM     25  H   UNL     1      -0.001  -0.010  -0.002  0.00  0.00    +0.149 HD
BRANCH  23  26
ATOM     26  C   UNL     1       2.449   0.918  -0.044  0.00  0.00    +0.315 C 
ATOM     27  O   UNL     1       2.464  -0.295  -0.038  0.00  0.00    -0.264 OA
ATOM     28  N   UNL     1       3.607   1.607  -0.065  0.00  0.00    -0.226 N 
ATOM     29  H   UNL     1       3.595   2.577  -0.070  0.00  0.00    +0.173 HD
BRANCH  28  30
ATOM     30  N   UNL     1       4.829   0.922  -0.080  0.00  0.00    -0.230 N 
ATOM     31  C   UNL     1       5.987   1.611  -0.101  0.00  0.00    +0.260 C 
ATOM     32  O   UNL     1       5.972   2.826  -0.107  0.00  0.00    -0.269 OA
ATOM     33  H   UNL     1       4.842  -0.048  -0.075  0.00  0.00    +0.173 HD
BRANCH  31  34
ATOM     34  C   UNL     1       7.277   0.888  -0.117  0.00  0.00    +0.038 A 
ATOM     35  C   UNL     1       7.299  -0.507  -0.104  0.00  0.00    +0.013 A 
ATOM     36  C   UNL     1       8.505  -1.176  -0.125  0.00  0.00    +0.001 A 
ATOM     37  C   UNL     1       9.693  -0.466  -0.147  0.00  0.00    +0.000 A 
ATOM     38  C   UNL     1       9.678   0.918  -0.153  0.00  0.00    +0.001 A 
ATOM     39  C   UNL     1       8.479   1.598  -0.139  0.00  0.00    +0.013 A 
ENDBRANCH  31  34
ENDBRANCH  28  30
ENDBRANCH  23  26
ENDBRANCH  21  22
ENDBRANCH   1  21
TORSDOF 9
