REMARK  Name = ZINC43414323
REMARK  5 active torsions:
REMARK  status: ('A' for Active; 'I' for Inactive)
REMARK    1  A    between atoms: C_4  and  C_7
REMARK    2  A    between atoms: C_4  and  C_11
REMARK    3  A    between atoms: C_7  and  C_8
REMARK    4  A    between atoms: C_11  and  N_12
REMARK    5  A    between atoms: C_18  and  N_21
REMARK                            x       y       z     vdW  Elec       q    Type
REMARK                         _______ _______ _______ _____ _____    ______ ____
ROOT
ATOM      1  N   UNL     1       2.899  -1.962  -2.628  0.00  0.00    -0.299 N 
ATOM      2  C   UNL     1       3.412  -2.648  -3.668  0.00  0.00    +0.302 C 
ATOM      3  O   UNL     1       4.051  -2.067  -4.524  0.00  0.00    -0.253 OA
ATOM      4  N   UNL     1       3.216  -3.978  -3.761  0.00  0.00    -0.286 N 
ATOM      5  C   UNL     1       2.346  -4.675  -2.803  0.00  0.00    +0.108 C 
ATOM      6  C   UNL     1       1.294  -5.471  -3.581  0.00  0.00    +0.003 C 
ATOM      7  C   UNL     1       1.994  -6.393  -4.581  0.00  0.00    -0.072 C 
ATOM      8  C   UNL     1       2.798  -5.554  -5.577  0.00  0.00    +0.003 C 
ATOM      9  C   UNL     1       3.863  -4.758  -4.825  0.00  0.00    +0.108 C 
ATOM     10  H   UNL     1       2.454  -2.435  -1.907  0.00  0.00    +0.150 HD
ENDROOT
BRANCH   7  11
ATOM     11  N   UNL     1       0.989  -7.182  -5.306  0.00  0.00    +0.380 N 
ATOM     12  H   UNL     1       0.366  -6.561  -5.801  0.00  0.00    -0.090 HD
ATOM     13  H   UNL     1       1.450  -7.790  -5.966  0.00  0.00    -0.090 HD
ATOM     14  H   UNL     1       0.459  -7.737  -4.650  0.00  0.00    -0.090 HD
ENDBRANCH   7  11
BRANCH   1  15
ATOM     15  C   UNL     1       3.015  -0.502  -2.584  0.00  0.00    +0.113 C 
BRANCH  15  19
ATOM     16  C   UNL     1       0.700  -0.422   1.071  0.00  0.00    +0.000 C 
ATOM     17  C   UNL     1       0.034   0.072  -0.215  0.00  0.00    +0.001 C 
ATOM     18  C   UNL     1       0.802  -0.464  -1.425  0.00  0.00    +0.009 C 
ATOM     19  C   UNL     1       2.247   0.035  -1.375  0.00  0.00    -0.003 C 
ATOM     20  C   UNL     1       2.913  -0.459  -0.088  0.00  0.00    +0.009 C 
ATOM     21  C   UNL     1       2.145   0.077   1.121  0.00  0.00    +0.001 C 
BRANCH  19  22
ATOM     22  C   UNL     1       2.260   1.564  -1.400  0.00  0.00    +0.133 C 
BRANCH  22  23
ATOM     23  C   UNL     1       3.680   2.057  -1.297  0.00  0.00    +0.357 C 
ATOM     24  O   UNL     1       4.605   1.262  -1.327  0.00  0.00    -0.246 OA
ATOM     25  O   UNL     1       3.905   3.250  -1.183  0.00  0.00    -0.246 OA
ENDBRANCH  22  23
ENDBRANCH  19  22
ENDBRANCH  15  19
ENDBRANCH   1  15
TORSDOF 5
