REMARK  Name = ZINC38547999
REMARK  9 active torsions:
REMARK  status: ('A' for Active; 'I' for Inactive)
REMARK    1  A    between atoms: C_1  and  C_2
REMARK    2  A    between atoms: C_4  and  C_35
REMARK    3  A    between atoms: N_8  and  C_9
REMARK    4  A    between atoms: C_9  and  C_11
REMARK    5  A    between atoms: C_9  and  C_21
REMARK    6  A    between atoms: C_14  and  C_17
REMARK    7  A    between atoms: C_23  and  C_34
REMARK    8  A    between atoms: C_25  and  N_26
REMARK    9  A    between atoms: C_27  and  C_29
REMARK                            x       y       z     vdW  Elec       q    Type
REMARK                         _______ _______ _______ _____ _____    ______ ____
ROOT
ATOM      1  C   UNL     1      -0.045  -1.985   3.635  0.00  0.00    +0.136 C 
ENDROOT
BRANCH   1   9
ATOM      2  C   UNL     1       3.032  -5.640   5.014  0.00  0.00    +0.066 C 
ATOM      3  C   UNL     1       2.158  -5.424   3.805  0.00  0.00    +0.044 A 
ATOM      4  C   UNL     1       2.087  -6.385   2.809  0.00  0.00    +0.046 A 
ATOM      5  C   UNL     1       1.271  -6.147   1.715  0.00  0.00    +0.044 A 
ATOM      6  N   UNL     1       0.588  -5.016   1.654  0.00  0.00    -0.220 NA
ATOM      7  C   UNL     1       0.678  -4.117   2.623  0.00  0.00    +0.216 A 
ATOM      8  N   UNL     1       1.445  -4.316   3.685  0.00  0.00    -0.220 NA
ATOM      9  N   UNL     1      -0.051  -2.944   2.527  0.00  0.00    -0.303 N 
ATOM     10  C   UNL     1       1.163  -7.163   0.608  0.00  0.00    +0.066 C 
ATOM     11  H   UNL     1      -0.565  -2.757   1.726  0.00  0.00    +0.150 HD
ENDBRANCH   1   9
BRANCH   1  12
ATOM     12  C   UNL     1      -1.322  -1.185   3.613  0.00  0.00    -0.023 A 
ATOM     13  C   UNL     1      -1.792  -0.665   2.422  0.00  0.00    +0.006 A 
ATOM     14  C   UNL     1      -2.964   0.068   2.402  0.00  0.00    +0.013 A 
ATOM     15  C   UNL     1      -3.666   0.281   3.574  0.00  0.00    +0.055 A 
ATOM     16  C   UNL     1      -3.196  -0.239   4.765  0.00  0.00    +0.013 A 
ATOM     17  C   UNL     1      -2.027  -0.977   4.784  0.00  0.00    +0.006 A 
BRANCH  15  18
ATOM     18  C   UNL     1      -4.942   1.082   3.552  0.00  0.00    +0.417 C 
ATOM     19  F   UNL     1      -6.026   0.225   3.334  0.00  0.00    -0.166 F 
ATOM     20  F   UNL     1      -5.104   1.735   4.779  0.00  0.00    -0.166 F 
ATOM     21  F   UNL     1      -4.882   2.029   2.524  0.00  0.00    -0.166 F 
ENDBRANCH  15  18
ENDBRANCH   1  12
BRANCH   1  22
ATOM     22  C   UNL     1       1.132  -1.056   3.488  0.00  0.00    +0.006 A 
ATOM     23  C   UNL     1       1.691  -0.818   2.246  0.00  0.00    +0.018 A 
ATOM     24  C   UNL     1       2.748   0.023   2.150  0.00  0.00    -0.011 A 
ATOM     25  S   UNL     1       2.990   0.515   3.849  0.00  0.00    -0.078 S 
ATOM     26  C   UNL     1       1.661  -0.430   4.577  0.00  0.00    +0.078 A 
ATOM     27  C   UNL     1       3.522   0.438   0.925  0.00  0.00    +0.051 C 
BRANCH  26  28
ATOM     28  N   UNL     1       1.268  -0.509   5.914  0.00  0.00    -0.273 N 
ATOM     29  C   UNL     1       1.929   0.197   6.854  0.00  0.00    +0.284 C 
ATOM     30  O   UNL     1       2.868   0.903   6.536  0.00  0.00    -0.266 OA
ATOM     31  H   UNL     1       0.519  -1.071   6.168  0.00  0.00    +0.156 HD
BRANCH  29  32
ATOM     32  C   UNL     1       1.516   0.114   8.258  0.00  0.00    +0.189 A 
ATOM     33  C   UNL     1       2.091   0.777   9.304  0.00  0.00    +0.054 A 
ATOM     34  C   UNL     1       1.381   0.405  10.457  0.00  0.00    +0.042 A 
ATOM     35  C   UNL     1       0.416  -0.457  10.069  0.00  0.00    +0.196 A 
ATOM     36  O   UNL     1       0.497  -0.626   8.743  0.00  0.00    -0.458 OA
ENDBRANCH  29  32
ENDBRANCH  26  28
ENDBRANCH   1  22
TORSDOF 6
