REMARK  Name = ZINC13260397
REMARK  6 active torsions:
REMARK  status: ('A' for Active; 'I' for Inactive)
REMARK    1  A    between atoms: C_3  and  C_14
REMARK    2  A    between atoms: C_5  and  S_7
REMARK    3  A    between atoms: S_7  and  N_10
REMARK    4  A    between atoms: N_10  and  C_11
REMARK    5  A    between atoms: N_16  and  C_17
REMARK    6  A    between atoms: C_22  and  C_23
REMARK                            x       y       z     vdW  Elec       q    Type
REMARK                         _______ _______ _______ _____ _____    ______ ____
ROOT
ATOM      1  C   UNL     1       3.714  -1.399   0.417  0.00  0.00    +0.003 A 
ATOM      2  C   UNL     1       2.526  -0.707   0.303  0.00  0.00    +0.013 A 
ATOM      3  C   UNL     1       2.538   0.687   0.240  0.00  0.00    +0.039 A 
ATOM      4  C   UNL     1       3.752   1.373   0.302  0.00  0.00    +0.041 A 
ATOM      5  C   UNL     1       4.933   0.668   0.421  0.00  0.00    +0.106 A 
ATOM      6  C   UNL     1       4.914  -0.714   0.479  0.00  0.00    +0.028 A 
ENDROOT
BRANCH   3   7
ATOM      7  C   UNL     1       1.269   1.435   0.113  0.00  0.00    +0.248 C 
ATOM      8  O   UNL     1       1.282   2.650   0.063  0.00  0.00    -0.270 OA
ATOM      9  N   UNL     1       0.098   0.771   0.053  0.00  0.00    -0.281 N 
ATOM     10  H   UNL     1       0.091  -0.199   0.026  0.00  0.00    +0.155 HD
BRANCH   9  11
ATOM     11  C   UNL     1      -1.101   1.476   0.023  0.00  0.00    +0.048 A 
ATOM     12  C   UNL     1      -1.180   2.691  -0.646  0.00  0.00    +0.025 A 
ATOM     13  C   UNL     1      -2.370   3.389  -0.675  0.00  0.00    +0.017 A 
ATOM     14  C   UNL     1      -3.495   2.885  -0.039  0.00  0.00    +0.019 A 
ATOM     15  C   UNL     1      -3.436   1.681   0.630  0.00  0.00    +0.032 A 
ATOM     16  C   UNL     1      -2.239   0.960   0.663  0.00  0.00    +0.085 A 
ATOM     17 BR   UNL     1      -5.117   3.855  -0.088  0.00  0.00    -0.050 Br
BRANCH  16  18
ATOM     18  C   UNL     1      -2.170  -0.331   1.370  0.00  0.00    +0.388 C 
ATOM     19  O   UNL     1      -1.106  -0.905   1.483  0.00  0.00    -0.241 OA
ATOM     20  O   UNL     1      -3.288  -0.874   1.892  0.00  0.00    -0.241 OA
ENDBRANCH  16  18
ENDBRANCH   9  11
ENDBRANCH   3   7
BRANCH   5  21
ATOM     21  S   UNL     1       6.467   1.531   0.500  0.00  0.00    +0.059 S 
ATOM     22  O   UNL     1       7.467   0.622   0.061  0.00  0.00    -0.153 OA
ATOM     23  O   UNL     1       6.257   2.791  -0.122  0.00  0.00    -0.153 OA
BRANCH  21  24
ATOM     24  N   UNL     1       6.774   1.837   2.099  0.00  0.00    -0.187 NA
ATOM     25  H   UNL     1       6.798   2.752   2.421  0.00  0.00    +0.148 HD
BRANCH  24  26
ATOM     26  C   UNL     1       7.011   0.727   3.025  0.00  0.00    +0.077 C 
ATOM     27  C   UNL     1       6.526   0.894   4.466  0.00  0.00    +0.022 C 
ATOM     28  C   UNL     1       8.022   0.950   4.151  0.00  0.00    +0.022 C 
ENDBRANCH  24  26
ENDBRANCH  21  24
ENDBRANCH   5  21
TORSDOF 6
