REMARK  Name = ZINC08597778
REMARK  7 active torsions:
REMARK  status: ('A' for Active; 'I' for Inactive)
REMARK    1  A    between atoms: C_1  and  C_2
REMARK    2  A    between atoms: C_5  and  N_8
REMARK    3  A    between atoms: C_9  and  C_11
REMARK    4  A    between atoms: C_17  and  C_28
REMARK    5  A    between atoms: C_19  and  C_21
REMARK    6  A    between atoms: C_31  and  O_34
REMARK    7  A    between atoms: O_34  and  C_35
REMARK                            x       y       z     vdW  Elec       q    Type
REMARK                         _______ _______ _______ _____ _____    ______ ____
ROOT
ATOM      1  C   UNL     1       0.304  -6.311   1.122  0.00  0.00    +0.100 A 
ATOM      2  C   UNL     1       0.330  -7.142  -0.023  0.00  0.00    +0.149 A 
ATOM      3  N   UNL     1       0.455  -8.384   0.368  0.00  0.00    -0.176 NA
ATOM      4  N   UNL     1       0.511  -8.424   1.755  0.00  0.00    -0.238 N 
ATOM      5  C   UNL     1       0.432  -7.141   2.227  0.00  0.00    +0.164 A 
ATOM      6  N   UNL     1       0.457  -6.856   3.544  0.00  0.00    -0.232 NA
ATOM      7  C   UNL     1       0.859  -7.779   4.381  0.00  0.00    +0.053 C 
ATOM      8  C   UNL     1       1.371  -9.114   3.919  0.00  0.00    +0.087 C 
ATOM      9  C   UNL     1       0.632  -9.578   2.653  0.00  0.00    +0.148 C 
ENDROOT
BRANCH   9  10
ATOM     10  C   UNL     1      -0.738 -10.094   3.007  0.00  0.00    +0.013 A 
ATOM     11  C   UNL     1      -1.645  -9.268   3.644  0.00  0.00    +0.008 A 
ATOM     12  C   UNL     1      -2.903  -9.741   3.968  0.00  0.00    +0.001 A 
ATOM     13  C   UNL     1      -3.255 -11.041   3.656  0.00  0.00    +0.003 A 
ATOM     14  C   UNL     1      -2.350 -11.869   3.018  0.00  0.00    +0.039 A 
ATOM     15  C   UNL     1      -1.092 -11.394   2.688  0.00  0.00    +0.129 A 
ATOM     16  F   UNL     1      -0.208 -12.201   2.061  0.00  0.00    -0.205 F 
ENDBRANCH   9  10
BRANCH   7  17
ATOM     17  C   UNL     1       0.808  -7.499   5.822  0.00  0.00    -0.003 A 
ATOM     18  C   UNL     1       1.238  -8.465   6.740  0.00  0.00    +0.013 A 
ATOM     19  C   UNL     1       1.188  -8.198   8.089  0.00  0.00    +0.046 A 
ATOM     20  C   UNL     1       0.714  -6.972   8.541  0.00  0.00    +0.120 A 
ATOM     21  C   UNL     1       0.286  -6.009   7.633  0.00  0.00    +0.046 A 
ATOM     22  C   UNL     1       0.337  -6.263   6.282  0.00  0.00    +0.013 A 
BRANCH  20  23
ATOM     23  O   UNL     1       0.666  -6.714   9.873  0.00  0.00    -0.495 OA
ATOM     24  C   UNL     1       0.168  -5.434  10.268  0.00  0.00    +0.277 C 
ENDBRANCH  20  23
ENDBRANCH   7  17
BRANCH   1  26
ATOM     25  N   UNL     1       0.058  -4.169  -0.021  0.00  0.00    -0.281 N 
ATOM     26  C   UNL     1       0.174  -4.848   1.138  0.00  0.00    +0.253 C 
ATOM     27  O   UNL     1       0.172  -4.249   2.197  0.00  0.00    -0.270 OA
ATOM     28  H   UNL     1      -0.017  -4.651  -0.860  0.00  0.00    +0.155 HD
BRANCH  25  33
ATOM     29  C   UNL     1       0.006   1.503   0.009  0.00  0.00    +0.044 C 
ATOM     30  C   UNL     1       0.020  -0.004   0.001  0.00  0.00    -0.050 A 
ATOM     31  C   UNL     1      -0.724  -0.696  -0.938  0.00  0.00    +0.005 A 
ATOM     32  C   UNL     1      -0.713  -2.077  -0.948  0.00  0.00    +0.023 A 
ATOM     33  C   UNL     1       0.045  -2.771  -0.014  0.00  0.00    +0.034 A 
ATOM     34  C   UNL     1       0.791  -2.073   0.927  0.00  0.00    +0.023 A 
ATOM     35  C   UNL     1       0.781  -0.692   0.928  0.00  0.00    +0.005 A 
ENDBRANCH  25  33
ENDBRANCH   1  26
TORSDOF 5
