REMARK  Name = ZINC59590114
REMARK  5 active torsions:
REMARK  status: ('A' for Active; 'I' for Inactive)
REMARK    1  A    between atoms: C_3  and  O_25
REMARK    2  A    between atoms: C_6  and  C_7
REMARK    3  A    between atoms: C_13  and  S_20
REMARK    4  A    between atoms: S_20  and  N_23
REMARK    5  A    between atoms: O_25  and  C_26
REMARK                            x       y       z     vdW  Elec       q    Type
REMARK                         _______ _______ _______ _____ _____    ______ ____
ROOT
ATOM      1  C   UNL     1      -1.293  -0.774   0.011  0.00  0.00    +0.191 C 
ATOM      2  N   UNL     1      -2.328   0.001  -0.670  0.00  0.00    -0.322 N 
ATOM      3  C   UNL     1      -2.333   0.232  -2.043  0.00  0.00    +0.057 A 
ATOM      4  C   UNL     1      -3.053   1.317  -2.539  0.00  0.00    +0.047 A 
ATOM      5  C   UNL     1      -3.091   1.564  -3.896  0.00  0.00    +0.069 A 
ATOM      6  C   UNL     1      -2.415   0.734  -4.775  0.00  0.00    +0.125 A 
ATOM      7  C   UNL     1      -1.694  -0.341  -4.289  0.00  0.00    +0.060 A 
ATOM      8  C   UNL     1      -1.647  -0.585  -2.932  0.00  0.00    +0.128 A 
ATOM      9  S   UNL     1      -0.691  -1.937  -2.313  0.00  0.00    +0.062 S 
ATOM     10  O   UNL     1      -1.169  -3.111  -2.954  0.00  0.00    -0.153 OA
ATOM     11  O   UNL     1       0.671  -1.537  -2.358  0.00  0.00    -0.153 OA
ATOM     12  N   UNL     1      -1.113  -2.056  -0.700  0.00  0.00    -0.166 NA
ATOM     13 CL   UNL     1      -3.989   2.919  -4.504  0.00  0.00    -0.081 Cl
ATOM     14  H   UNL     1      -3.049   0.372  -0.138  0.00  0.00    +0.148 HD
ATOM     15  H   UNL     1      -1.234  -2.911  -0.259  0.00  0.00    +0.150 HD
ENDROOT
BRANCH   1  21
ATOM     16  C   UNL     1      -0.017   1.378   0.010  0.00  0.00    +0.010 A 
ATOM     17  C   UNL     1       1.169   2.087   0.002  0.00  0.00    +0.046 A 
ATOM     18  C   UNL     1       2.380   1.409  -0.013  0.00  0.00    +0.130 A 
ATOM     19  C   UNL     1       2.396   0.022  -0.021  0.00  0.00    +0.046 A 
ATOM     20  C   UNL     1       1.207  -0.681  -0.013  0.00  0.00    +0.010 A 
ATOM     21  C   UNL     1       0.002  -0.004   0.002  0.00  0.00    -0.011 A 
BRANCH  18  22
ATOM     22  O   UNL     1       3.548   2.104  -0.021  0.00  0.00    -0.406 OA
BRANCH  22  23
ATOM     23  C   UNL     1       4.756   1.341  -0.036  0.00  0.00    +0.575 C 
ATOM     24  F   UNL     1       4.787   0.540  -1.183  0.00  0.00    -0.133 F 
ATOM     25  F   UNL     1       5.855   2.207  -0.043  0.00  0.00    -0.133 F 
ATOM     26  F   UNL     1       4.810   0.528   1.101  0.00  0.00    -0.133 F 
ENDBRANCH  22  23
ENDBRANCH  18  22
ENDBRANCH   1  21
BRANCH   6  27
ATOM     27  S   UNL     1      -2.475   1.047  -6.508  0.00  0.00    +0.057 S 
ATOM     28  O   UNL     1      -2.180   2.426  -6.682  0.00  0.00    -0.153 OA
ATOM     29  O   UNL     1      -1.716   0.020  -7.132  0.00  0.00    -0.153 OA
BRANCH  27  30
ATOM     30  N   UNL     1      -4.045   0.834  -6.990  0.00  0.00    -0.203 NA
ATOM     31  H   UNL     1      -4.721   0.583  -6.341  0.00  0.00    +0.144 HD
ATOM     32  H   UNL     1      -4.288   0.961  -7.920  0.00  0.00    +0.144 HD
ENDBRANCH  27  30
ENDBRANCH   6  27
TORSDOF 5
