REMARK  Name = ZINC40428682
REMARK  5 active torsions:
REMARK  status: ('A' for Active; 'I' for Inactive)
REMARK    1  A    between atoms: C_6  and  C_7
REMARK    2  A    between atoms: C_8  and  C_26
REMARK    3  A    between atoms: C_12  and  C_16
REMARK    4  A    between atoms: N_19  and  C_22
REMARK    5  A    between atoms: C_22  and  C_23
REMARK                            x       y       z     vdW  Elec       q    Type
REMARK                         _______ _______ _______ _____ _____    ______ ____
ROOT
ATOM      1  C   UNL     1      -1.270  -0.765   0.011  0.00  0.00    +0.099 A 
ATOM      2  C   UNL     1      -1.504  -1.974  -0.634  0.00  0.00    +0.100 A 
ATOM      3  N   UNL     1      -2.810  -2.317  -0.360  0.00  0.00    -0.297 N 
ATOM      4  C   UNL     1      -3.573  -3.385  -0.725  0.00  0.00    +0.093 A 
ATOM      5  C   UNL     1      -4.856  -3.488  -0.314  0.00  0.00    +0.022 A 
ATOM      6  C   UNL     1      -5.420  -2.490   0.496  0.00  0.00    -0.040 A 
ATOM      7  C   UNL     1      -4.667  -1.418   0.866  0.00  0.00    +0.050 A 
ATOM      8  C   UNL     1      -3.331  -1.327   0.430  0.00  0.00    +0.139 A 
ATOM      9  N   UNL     1      -2.392  -0.412   0.644  0.00  0.00    -0.227 NA
ENDROOT
BRANCH   2  10
ATOM     10  C   UNL     1      -0.546  -2.738  -1.448  0.00  0.00    +0.095 A 
ATOM     11  C   UNL     1      -0.694  -4.124  -1.612  0.00  0.00    +0.050 A 
ATOM     12  C   UNL     1       0.230  -4.796  -2.385  0.00  0.00    +0.116 A 
ATOM     13  N   UNL     1       1.223  -4.120  -2.946  0.00  0.00    -0.223 NA
ATOM     14  C   UNL     1       1.341  -2.811  -2.776  0.00  0.00    +0.213 A 
ATOM     15  N   UNL     1       0.476  -2.123  -2.048  0.00  0.00    -0.213 NA
ATOM     16  N   UNL     1       2.394  -2.145  -3.380  0.00  0.00    -0.327 N 
ATOM     17  H   UNL     1       3.033  -2.637  -3.920  0.00  0.00    +0.145 HD
ATOM     18  H   UNL     1       2.492  -1.188  -3.264  0.00  0.00    +0.145 HD
ENDBRANCH   2  10
BRANCH   1  24
ATOM     19  C   UNL     1      -0.017   1.390   0.010  0.00  0.00    +0.013 A 
ATOM     20  C   UNL     1       1.170   2.094   0.002  0.00  0.00    +0.039 A 
ATOM     21  C   UNL     1       2.379   1.417  -0.013  0.00  0.00    +0.123 A 
ATOM     22  C   UNL     1       2.403   0.032  -0.022  0.00  0.00    +0.039 A 
ATOM     23  C   UNL     1       1.221  -0.680  -0.014  0.00  0.00    +0.013 A 
ATOM     24  C   UNL     1       0.002  -0.004   0.002  0.00  0.00    +0.003 A 
ATOM     25  F   UNL     1       3.538   2.111  -0.021  0.00  0.00    -0.205 F 
ENDBRANCH   1  24
BRANCH   6  26
ATOM     26  C   UNL     1      -6.851  -2.605   0.953  0.00  0.00    +0.016 C 
ATOM     27  C   UNL     1      -7.028  -3.891   1.766  0.00  0.00    -0.011 C 
ATOM     28  C   UNL     1      -8.499  -4.041   2.159  0.00  0.00    -0.078 C 
ATOM     29  N   UNL     1      -9.328  -4.108   0.949  0.00  0.00    +0.380 N 
ATOM     30  C   UNL     1      -9.219  -2.850   0.201  0.00  0.00    -0.078 C 
ATOM     31  C   UNL     1      -7.776  -2.653  -0.267  0.00  0.00    -0.011 C 
ATOM     32  H   UNL     1      -9.014  -4.871   0.369  0.00  0.00    -0.082 HD
BRANCH  29  33
ATOM     33  C   UNL     1     -10.729  -4.330   1.329  0.00  0.00    -0.075 C 
BRANCH  33  34
ATOM     34  C   UNL     1     -11.575  -4.524   0.069  0.00  0.00    -0.028 C 
ATOM     35  C   UNL     1     -12.661  -3.486  -0.220  0.00  0.00    +0.002 C 
ATOM     36  C   UNL     1     -13.050  -4.887   0.256  0.00  0.00    +0.002 C 
ENDBRANCH  33  34
ENDBRANCH  29  33
ENDBRANCH   6  26
TORSDOF 5
