REMARK  Name = ZINC40414856
REMARK  4 active torsions:
REMARK  status: ('A' for Active; 'I' for Inactive)
REMARK    1  A    between atoms: C_9  and  C_12
REMARK    2  A    between atoms: C_12  and  S_13
REMARK    3  A    between atoms: S_13  and  C_14
REMARK    4  A    between atoms: C_18  and  N_20
REMARK                            x       y       z     vdW  Elec       q    Type
REMARK                         _______ _______ _______ _____ _____    ______ ____
ROOT
ATOM      1  S   UNL     1       6.268  -1.822  -0.930  0.00  0.00    -0.082 S 
ENDROOT
BRANCH   1   2
ATOM      2  C   UNL     1       7.713  -2.681  -0.403  0.00  0.00    +0.192 A 
ATOM      3  N   UNL     1       7.591  -3.684   0.455  0.00  0.00    -0.207 NA
ATOM      4  C   UNL     1       8.661  -4.355   0.875  0.00  0.00    +0.122 A 
ATOM      5  C   UNL     1       9.918  -3.992   0.402  0.00  0.00    +0.086 A 
ATOM      6  C   UNL     1      10.007  -2.934  -0.498  0.00  0.00    +0.122 A 
ATOM      7  N   UNL     1       8.893  -2.311  -0.878  0.00  0.00    -0.207 NA
ATOM      8  N   UNL     1       8.524  -5.402   1.774  0.00  0.00    -0.343 N 
ATOM      9  H   UNL     1       7.645  -5.650   2.100  0.00  0.00    +0.144 HD
ATOM     10  H   UNL     1       9.308  -5.888   2.076  0.00  0.00    +0.144 HD
BRANCH   6  11
ATOM     11  N   UNL     1      11.238  -2.537  -0.996  0.00  0.00    -0.343 N 
ATOM     12  H   UNL     1      12.045  -2.998  -0.718  0.00  0.00    +0.144 HD
ATOM     13  H   UNL     1      11.293  -1.799  -1.623  0.00  0.00    +0.144 HD
ENDBRANCH   6  11
ENDBRANCH   1   2
BRANCH   1  14
ATOM     14  C   UNL     1       4.918  -2.649  -0.044  0.00  0.00    +0.125 C 
BRANCH  14  23
ATOM     15  C   UNL     1      -0.017   1.378   0.010  0.00  0.00    +0.004 A 
ATOM     16  C   UNL     1       1.170   2.088   0.002  0.00  0.00    +0.004 A 
ATOM     17  C   UNL     1       2.378   1.418  -0.012  0.00  0.00    +0.049 A 
ATOM     18  C   UNL     1       2.404   0.031  -0.019  0.00  0.00    +0.163 A 
ATOM     19  C   UNL     1       1.212  -0.683  -0.014  0.00  0.00    +0.162 A 
ATOM     20  C   UNL     1       0.002  -0.004   0.002  0.00  0.00    +0.049 A 
ATOM     21  O   UNL     1       1.214  -2.043  -0.029  0.00  0.00    -0.485 OA
ATOM     22  C   UNL     1       2.441  -2.689   0.331  0.00  0.00    +0.274 C 
ATOM     23  C   UNL     1       3.587  -1.993  -0.416  0.00  0.00    +0.221 C 
ATOM     24  O   UNL     1       3.602  -0.615  -0.029  0.00  0.00    -0.481 OA
ENDBRANCH  14  23
ENDBRANCH   1  14
TORSDOF 4
