REMARK  Name = ZINC21020606
REMARK  5 active torsions:
REMARK  status: ('A' for Active; 'I' for Inactive)
REMARK    1  A    between atoms: C_1  and  C_2
REMARK    2  A    between atoms: C_5  and  N_8
REMARK    3  A    between atoms: N_8  and  S_9
REMARK    4  A    between atoms: S_9  and  C_12
REMARK    5  A    between atoms: C_17  and  N_18
REMARK                            x       y       z     vdW  Elec       q    Type
REMARK                         _______ _______ _______ _____ _____    ______ ____
ROOT
ATOM      1  S   UNL     1       0.767  -3.033  -0.113  0.00  0.00    +0.060 S 
ATOM      2  O   UNL     1      -0.193  -3.807  -0.820  0.00  0.00    -0.153 OA
ATOM      3  O   UNL     1       2.160  -3.304  -0.176  0.00  0.00    -0.153 OA
ENDROOT
BRANCH   1   4
ATOM      4  C   UNL     1       0.554  -1.365  -0.638  0.00  0.00    +0.126 A 
ATOM      5  C   UNL     1      -0.385  -1.058  -1.603  0.00  0.00    +0.032 A 
ATOM      6  C   UNL     1      -0.554   0.251  -2.016  0.00  0.00    +0.022 A 
ATOM      7  C   UNL     1       0.219   1.258  -1.464  0.00  0.00    +0.043 A 
ATOM      8  C   UNL     1       1.160   0.958  -0.498  0.00  0.00    +0.044 A 
ATOM      9  C   UNL     1       1.331  -0.356  -0.082  0.00  0.00    +0.053 A 
ATOM     10 CL   UNL     1       0.004   2.900  -1.985  0.00  0.00    -0.083 Cl
BRANCH   9  11
ATOM     11  N   UNL     1       2.281  -0.663   0.895  0.00  0.00    -0.356 N 
ATOM     12  H   UNL     1       2.896   0.136   1.335  0.00  0.00    +0.142 HD
ATOM     13  H   UNL     1       2.415  -1.704   1.224  0.00  0.00    +0.142 HD
ENDBRANCH   9  11
ENDBRANCH   1   4
BRANCH   1  14
ATOM     14  N   UNL     1       0.343  -3.100   1.487  0.00  0.00    -0.187 NA
ATOM     15  H   UNL     1       1.132  -3.193   2.248  0.00  0.00    +0.148 HD
BRANCH  14  20
ATOM     16  C   UNL     1       0.032  -3.533   6.024  0.00  0.00    +0.007 C 
ATOM     17  C   UNL     1      -0.804  -3.198   4.788  0.00  0.00    -0.014 C 
ATOM     18  C   UNL     1      -0.787  -4.386   3.824  0.00  0.00    +0.005 C 
ATOM     19  C   UNL     1      -1.623  -4.051   2.587  0.00  0.00    +0.020 C 
ATOM     20  C   UNL     1      -1.036  -2.821   1.892  0.00  0.00    +0.077 C 
ATOM     21  C   UNL     1      -1.054  -1.633   2.856  0.00  0.00    +0.020 C 
ATOM     22  C   UNL     1      -0.217  -1.968   4.093  0.00  0.00    +0.005 C 
ENDBRANCH  14  20
ENDBRANCH   1  14
TORSDOF 4
