REMARK  Name = ZINC39676895
REMARK  8 active torsions:
REMARK  status: ('A' for Active; 'I' for Inactive)
REMARK    1  A    between atoms: C_1  and  C_2
REMARK    2  A    between atoms: C_5  and  C_36
REMARK    3  A    between atoms: C_6  and  C_8
REMARK    4  A    between atoms: C_8  and  C_9
REMARK    5  A    between atoms: C_9  and  N_10
REMARK    6  A    between atoms: C_11  and  C_13
REMARK    7  A    between atoms: C_24  and  C_26
REMARK    8  A    between atoms: C_29  and  C_32
REMARK                            x       y       z     vdW  Elec       q    Type
REMARK                         _______ _______ _______ _____ _____    ______ ____
ROOT
ATOM      1  C   UNL     1       2.448  -5.398   6.525  0.00  0.00    +0.100 C 
ATOM      2  C   UNL     1       1.639  -6.627   6.054  0.00  0.00    +0.121 C 
ATOM      3  N   UNL     1       2.663  -7.626   5.670  0.00  0.00    -0.296 N 
ATOM      4  C   UNL     1       3.721  -7.482   6.699  0.00  0.00    +0.115 C 
ATOM      5  C   UNL     1       3.813  -5.964   6.950  0.00  0.00    -0.004 C 
ATOM      6  C   UNL     1       4.926  -5.356   6.101  0.00  0.00    -0.010 C 
ATOM      7  C   UNL     1       6.278  -5.891   6.581  0.00  0.00    -0.082 C 
ATOM      8  N   UNL     1       6.469  -5.545   7.994  0.00  0.00    +0.379 N 
ATOM      9  C   UNL     1       5.450  -6.209   8.815  0.00  0.00    -0.082 C 
ATOM     10  C   UNL     1       4.062  -5.688   8.430  0.00  0.00    -0.010 C 
ATOM     11  C   UNL     1       2.639  -8.474   4.623  0.00  0.00    +0.247 C 
ATOM     12  O   UNL     1       1.758  -8.387   3.791  0.00  0.00    -0.270 OA
ATOM     13  H   UNL     1       7.386  -5.845   8.291  0.00  0.00    -0.086 HD
ATOM     14  H   UNL     1       6.392  -4.546   8.108  0.00  0.00    -0.086 HD
ENDROOT
BRANCH  11  15
ATOM     15  C   UNL     1       3.685  -9.511   4.487  0.00  0.00    +0.037 A 
ATOM     16  C   UNL     1       4.424  -9.912   5.601  0.00  0.00    +0.013 A 
ATOM     17  C   UNL     1       5.398 -10.880   5.467  0.00  0.00    +0.013 A 
ATOM     18  C   UNL     1       5.643 -11.452   4.232  0.00  0.00    +0.055 A 
ATOM     19  C   UNL     1       4.915 -11.059   3.123  0.00  0.00    +0.013 A 
ATOM     20  C   UNL     1       3.934 -10.096   3.244  0.00  0.00    +0.013 A 
BRANCH  18  21
ATOM     21  C   UNL     1       6.709 -12.508   4.093  0.00  0.00    +0.417 C 
ATOM     22  F   UNL     1       6.145 -13.771   4.306  0.00  0.00    -0.166 F 
ATOM     23  F   UNL     1       7.256 -12.453   2.806  0.00  0.00    -0.166 F 
ATOM     24  F   UNL     1       7.716 -12.282   5.037  0.00  0.00    -0.166 F 
ENDBRANCH  18  21
ENDBRANCH  11  15
BRANCH   1  26
ATOM     25  N   UNL     1       2.849  -3.115   5.660  0.00  0.00    -0.315 N 
ATOM     26  C   UNL     1       2.617  -4.416   5.394  0.00  0.00    +0.218 C 
ATOM     27  O   UNL     1       2.544  -4.796   4.245  0.00  0.00    -0.275 OA
ATOM     28  H   UNL     1       2.908  -2.811   6.579  0.00  0.00    +0.149 HD
BRANCH  25  29
ATOM     29  C   UNL     1       3.013  -2.161   4.561  0.00  0.00    +0.109 C 
BRANCH  29  30
ATOM     30  C   UNL     1       3.264  -0.764   5.132  0.00  0.00    +0.054 C 
BRANCH  30  36
ATOM     31  C   UNL     1       6.232   1.788   2.014  0.00  0.00    +0.044 C 
ATOM     32  C   UNL     1       4.853   1.439   2.510  0.00  0.00    -0.050 A 
ATOM     33  C   UNL     1       3.742   2.020   1.927  0.00  0.00    +0.003 A 
ATOM     34  C   UNL     1       2.476   1.701   2.382  0.00  0.00    +0.004 A 
ATOM     35  C   UNL     1       2.321   0.800   3.419  0.00  0.00    -0.047 A 
ATOM     36  C   UNL     1       3.432   0.218   4.001  0.00  0.00    -0.043 A 
ATOM     37  C   UNL     1       4.698   0.534   3.543  0.00  0.00    +0.007 A 
ATOM     38  C   UNL     1       0.942   0.452   3.916  0.00  0.00    +0.044 C 
ENDBRANCH  30  36
ENDBRANCH  29  30
ENDBRANCH  25  29
ENDBRANCH   1  26
TORSDOF 6
