REMARK  Name = ZINC43398798
REMARK  5 active torsions:
REMARK  status: ('A' for Active; 'I' for Inactive)
REMARK    1  A    between atoms: C_1  and  C_2
REMARK    2  A    between atoms: C_5  and  C_17
REMARK    3  A    between atoms: C_6  and  O_8
REMARK    4  A    between atoms: O_8  and  C_9
REMARK    5  A    between atoms: C_17  and  N_19
REMARK                            x       y       z     vdW  Elec       q    Type
REMARK                         _______ _______ _______ _____ _____    ______ ____
ROOT
ATOM      1  C   UNL     1       0.144   1.497   0.001  0.00  0.00    +0.066 C 
ATOM      2  C   UNL     1       0.120  -0.010  -0.004  0.00  0.00    +0.042 A 
ATOM      3  C   UNL     1       0.124  -0.686  -1.211  0.00  0.00    +0.024 A 
ATOM      4  C   UNL     1       0.101  -2.069  -1.217  0.00  0.00    +0.017 A 
ATOM      5  C   UNL     1       0.076  -2.739   0.012  0.00  0.00    +0.065 A 
ATOM      6  C   UNL     1       0.073  -1.982   1.194  0.00  0.00    +0.230 A 
ATOM      7  N   UNL     1       0.101  -0.661   1.143  0.00  0.00    -0.217 NA
ENDROOT
BRANCH   5   8
ATOM      8  C   UNL     1       0.051  -4.211   0.064  0.00  0.00    +0.082 C 
ATOM      9  S   UNL     1       0.019  -5.014   1.576  0.00  0.00    -0.035 S 
BRANCH   8  10
ATOM     10  N   UNL     1       0.052  -4.926  -1.079  0.00  0.00    -0.352 N 
ATOM     11  H   UNL     1       0.070  -4.471  -1.935  0.00  0.00    +0.143 HD
ATOM     12  H   UNL     1       0.036  -5.895  -1.045  0.00  0.00    +0.143 HD
ENDBRANCH   8  10
ENDBRANCH   5   8
BRANCH   6  13
ATOM     13  O   UNL     1       0.048  -2.609   2.395  0.00  0.00    -0.437 OA
BRANCH  13  14
ATOM     14  C   UNL     1       0.148  -1.846   3.515  0.00  0.00    +0.133 A 
ATOM     15  C   UNL     1      -0.951  -1.130   3.968  0.00  0.00    +0.066 A 
ATOM     16  C   UNL     1      -0.848  -0.355   5.108  0.00  0.00    +0.046 A 
ATOM     17  C   UNL     1       0.350  -0.293   5.797  0.00  0.00    +0.040 A 
ATOM     18  C   UNL     1       1.448  -1.006   5.348  0.00  0.00    +0.046 A 
ATOM     19  C   UNL     1       1.347  -1.787   4.211  0.00  0.00    +0.066 A 
ATOM     20 CL   UNL     1       2.949  -0.926   6.214  0.00  0.00    -0.083 Cl
ATOM     21 CL   UNL     1      -2.222   0.542   5.674  0.00  0.00    -0.083 Cl
ENDBRANCH  13  14
ENDBRANCH   6  13
TORSDOF 4
