REMARK  Name = ZINC36311939
REMARK  5 active torsions:
REMARK  status: ('A' for Active; 'I' for Inactive)
REMARK    1  A    between atoms: C_3  and  C_8
REMARK    2  A    between atoms: N_13  and  C_16
REMARK    3  A    between atoms: C_16  and  C_18
REMARK    4  A    between atoms: C_16  and  C_23
REMARK    5  A    between atoms: N_25  and  C_26
REMARK                            x       y       z     vdW  Elec       q    Type
REMARK                         _______ _______ _______ _____ _____    ______ ____
ROOT
ATOM      1  C   UNL     1       7.575  -0.648   1.695  0.00  0.00    +0.023 C 
ENDROOT
BRANCH   1   7
ATOM      2  C   UNL     1       2.618   1.494   2.048  0.00  0.00    +0.247 C 
ATOM      3  O   UNL     1       1.813   0.881   2.721  0.00  0.00    -0.270 OA
ATOM      4  N   UNL     1       3.674   0.853   1.509  0.00  0.00    -0.301 N 
ATOM      5  C   UNL     1       3.823  -0.604   1.646  0.00  0.00    +0.089 C 
ATOM      6  C   UNL     1       5.237  -0.901   2.158  0.00  0.00    -0.058 C 
ATOM      7  N   UNL     1       6.221  -0.272   1.268  0.00  0.00    +0.390 N 
ATOM      8  C   UNL     1       6.080   1.189   1.321  0.00  0.00    -0.058 C 
ATOM      9  C   UNL     1       4.706   1.589   0.763  0.00  0.00    +0.089 C 
ATOM     10  H   UNL     1       6.069  -0.589   0.322  0.00  0.00    -0.081 HD
BRANCH   2  13
ATOM     11  C   UNL     1       2.609   4.860   0.381  0.00  0.00    +0.002 A 
ATOM     12  C   UNL     1       2.779   3.507   0.588  0.00  0.00    +0.013 A 
ATOM     13  C   UNL     1       2.438   2.944   1.819  0.00  0.00    +0.038 A 
ATOM     14  C   UNL     1       1.927   3.756   2.833  0.00  0.00    +0.028 A 
ATOM     15  C   UNL     1       1.762   5.108   2.613  0.00  0.00    +0.019 A 
ATOM     16  C   UNL     1       2.102   5.660   1.389  0.00  0.00    +0.015 A 
ATOM     17 BR   UNL     1       1.070   6.210   3.985  0.00  0.00    -0.050 Br
ENDBRANCH   2  13
ENDBRANCH   1   7
BRANCH   1  18
ATOM     18  C   UNL     1       8.602   0.011   0.771  0.00  0.00    -0.016 C 
ATOM     19  C   UNL     1       8.403  -0.482  -0.677  0.00  0.00    +0.002 C 
ATOM     20  C   UNL     1       9.842  -0.598  -1.240  0.00  0.00    +0.000 C 
ATOM     21  C   UNL     1      10.641  -1.133  -0.026  0.00  0.00    +0.000 C 
ATOM     22  C   UNL     1      10.025  -0.403   1.185  0.00  0.00    +0.002 C 
ENDBRANCH   1  18
BRANCH   1  23
ATOM     23  C   UNL     1       7.726  -2.146   1.626  0.00  0.00    +0.204 C 
ATOM     24  O   UNL     1       7.082  -2.784   0.820  0.00  0.00    -0.277 OA
ATOM     25  N   UNL     1       8.576  -2.776   2.461  0.00  0.00    -0.287 N 
ATOM     26  H   UNL     1       9.045  -2.274   3.146  0.00  0.00    +0.155 HD
BRANCH  25  27
ATOM     27  C   UNL     1       8.782  -4.157   2.339  0.00  0.00    +0.037 A 
ATOM     28  C   UNL     1       8.771  -4.752   1.085  0.00  0.00    +0.027 A 
ATOM     29  C   UNL     1       8.975  -6.114   0.963  0.00  0.00    +0.051 A 
ATOM     30  C   UNL     1       9.190  -6.888   2.091  0.00  0.00    +0.166 A 
ATOM     31  C   UNL     1       9.202  -6.293   3.351  0.00  0.00    +0.168 A 
ATOM     32  C   UNL     1       9.004  -4.928   3.471  0.00  0.00    +0.072 A 
ATOM     33  O   UNL     1       9.431  -7.260   4.287  0.00  0.00    -0.453 OA
ATOM     34  C   UNL     1       9.152  -8.509   3.628  0.00  0.00    +0.466 C 
ATOM     35  O   UNL     1       9.412  -8.228   2.240  0.00  0.00    -0.453 OA
ENDBRANCH  25  27
ENDBRANCH   1  23
TORSDOF 5
