REMARK  Name = ZINC39894534
REMARK  9 active torsions:
REMARK  status: ('A' for Active; 'I' for Inactive)
REMARK    1  A    between atoms: C_1  and  C_2
REMARK    2  A    between atoms: C_3  and  C_27
REMARK    3  A    between atoms: N_6  and  C_23
REMARK    4  A    between atoms: C_9  and  C_10
REMARK    5  A    between atoms: N_11  and  C_12
REMARK    6  A    between atoms: C_15  and  N_19
REMARK    7  A    between atoms: C_23  and  C_24
REMARK    8  A    between atoms: C_24  and  C_25
REMARK    9  A    between atoms: C_24  and  C_26
REMARK                            x       y       z     vdW  Elec       q    Type
REMARK                         _______ _______ _______ _____ _____    ______ ____
ROOT
ATOM      1  C   UNL     1      -0.018   1.503   0.010  0.00  0.00    +0.046 C 
ATOM      2  C   UNL     1       0.002  -0.004   0.002  0.00  0.00    -0.014 A 
ATOM      3  C   UNL     1       0.006  -0.705  -1.200  0.00  0.00    +0.120 A 
ATOM      4  C   UNL     1       0.026  -2.123  -1.178  0.00  0.00    +0.272 A 
ATOM      5  O   UNL     1       0.030  -2.745  -2.226  0.00  0.00    -0.266 OA
ATOM      6  N   UNL     1       0.041  -2.786  -0.007  0.00  0.00    -0.274 N 
ATOM      7  C   UNL     1       0.037  -2.124   1.175  0.00  0.00    +0.263 A 
ATOM      8  O   UNL     1       0.052  -2.818   2.329  0.00  0.00    -0.267 OA
ATOM      9  C   UNL     1       0.023  -0.725   1.208  0.00  0.00    +0.062 A 
ENDROOT
BRANCH   9  10
ATOM     10  C   UNL     1       0.026  -0.016   2.493  0.00  0.00    +0.125 C 
ATOM     11  N   UNL     1       0.046  -0.691   3.611  0.00  0.00    -0.253 NA
BRANCH  11  12
ATOM     12  C   UNL     1       0.048  -0.029   4.809  0.00  0.00    +0.092 A 
ATOM     13  C   UNL     1       1.257   0.331   5.410  0.00  0.00    +0.046 A 
ATOM     14  C   UNL     1       1.251   0.999   6.618  0.00  0.00    +0.050 A 
ATOM     15  C   UNL     1       0.052   1.310   7.235  0.00  0.00    +0.128 A 
ATOM     16  C   UNL     1      -1.149   0.956   6.646  0.00  0.00    +0.050 A 
ATOM     17  C   UNL     1      -1.159   0.293   5.435  0.00  0.00    +0.046 A 
ATOM     18 BR   UNL     1      -2.802  -0.183   4.629  0.00  0.00    -0.048 Br
ATOM     19 BR   UNL     1       2.897  -0.094   4.569  0.00  0.00    -0.048 Br
BRANCH  15  20
ATOM     20  N   UNL     1       0.055   2.026   8.531  0.00  0.00    +0.056 N 
ATOM     21  O   UNL     1       1.103   2.336   9.048  0.00  0.00    -0.126 OA
ATOM     22  O   UNL     1      -0.991   2.299   9.072  0.00  0.00    -0.126 OA
ENDBRANCH  15  20
ENDBRANCH  11  12
ENDBRANCH   9  10
BRANCH   3  23
ATOM     23  C   UNL     1      -0.010  -0.001  -2.447  0.00  0.00    +0.105 C 
ATOM     24  N   UNL     1      -0.023   0.557  -3.437  0.00  0.00    -0.191 NA
ENDBRANCH   3  23
BRANCH   6  25
ATOM     25  C   UNL     1       0.061  -4.251  -0.011  0.00  0.00    +0.131 C 
BRANCH  25  26
ATOM     26  C   UNL     1       1.510  -4.742  -0.019  0.00  0.00    +0.003 C 
ATOM     27  C   UNL     1       1.533  -6.266   0.102  0.00  0.00    +0.009 C 
ATOM     28  C   UNL     1       2.182  -4.324  -1.329  0.00  0.00    +0.009 C 
ENDBRANCH  25  26
ENDBRANCH   6  25
TORSDOF 6
