REMARK  Name = ZINC39531944
REMARK  11 active torsions:
REMARK  status: ('A' for Active; 'I' for Inactive)
REMARK    1  A    between atoms: C_1  and  C_2
REMARK    2  A    between atoms: C_7  and  C_12
REMARK    3  A    between atoms: C_17  and  C_20
REMARK    4  A    between atoms: C_20  and  C_22
REMARK    5  A    between atoms: C_20  and  N_29
REMARK    6  A    between atoms: C_22  and  C_23
REMARK    7  A    between atoms: N_29  and  C_30
REMARK    8  A    between atoms: N_29  and  C_31
REMARK    9  A    between atoms: C_31  and  C_32
REMARK   10  A    between atoms: N_34  and  C_39
REMARK   11  A    between atoms: C_36  and  C_38
REMARK                            x       y       z     vdW  Elec       q    Type
REMARK                         _______ _______ _______ _____ _____    ______ ____
ROOT
ATOM      1  C   UNL     1      -5.777  -0.508  -9.828  0.00  0.00    -0.061 C 
ENDROOT
BRANCH   1   7
ATOM      2  C   UNL     1      -9.978   0.408 -13.179  0.00  0.00    +0.263 C 
ATOM      3  O   UNL     1     -10.793   1.267 -12.900  0.00  0.00    -0.268 OA
ATOM      4  N   UNL     1      -8.709   0.514 -12.737  0.00  0.00    -0.296 N 
ATOM      5  C   UNL     1      -7.682  -0.442 -13.173  0.00  0.00    +0.108 C 
ATOM      6  C   UNL     1      -7.009  -1.042 -11.935  0.00  0.00    +0.021 C 
ATOM      7  C   UNL     1      -6.480   0.088 -11.049  0.00  0.00    -0.021 C 
ATOM      8  C   UNL     1      -7.646   0.966 -10.588  0.00  0.00    +0.021 C 
ATOM      9  C   UNL     1      -8.325   1.592 -11.816  0.00  0.00    +0.108 C 
BRANCH   2  16
ATOM     10  C   UNL     1     -13.221  -5.306 -16.682  0.00  0.00    +0.044 C 
ATOM     11  C   UNL     1     -12.196  -4.289 -16.251  0.00  0.00    -0.050 A 
ATOM     12  C   UNL     1     -10.927  -4.308 -16.815  0.00  0.00    +0.005 A 
ATOM     13  C   UNL     1      -9.976  -3.388 -16.436  0.00  0.00    +0.026 A 
ATOM     14  C   UNL     1     -10.286  -2.427 -15.478  0.00  0.00    +0.047 A 
ATOM     15  N   UNL     1      -9.570  -1.401 -14.907  0.00  0.00    -0.351 N 
ATOM     16  C   UNL     1     -10.378  -0.747 -13.997  0.00  0.00    +0.103 A 
ATOM     17  H   UNL     1      -8.649  -1.175 -15.110  0.00  0.00    +0.166 HD
ATOM     18  C   UNL     1     -11.600  -1.340 -13.979  0.00  0.00    +0.040 A 
ATOM     19  C   UNL     1     -11.574  -2.409 -14.907  0.00  0.00    +0.001 A 
ATOM     20  C   UNL     1     -12.526  -3.353 -15.313  0.00  0.00    +0.013 A 
ENDBRANCH   2  16
ENDBRANCH   1   7
BRANCH   1  21
ATOM     21  N   UNL     1      -4.426  -0.945 -10.205  0.00  0.00    +0.383 N 
ATOM     22  C   UNL     1      -4.514  -1.905 -11.314  0.00  0.00    -0.095 C 
ATOM     23  H   UNL     1      -3.883  -0.146 -10.495  0.00  0.00    -0.081 HD
BRANCH  21  24
ATOM     24  C   UNL     1      -3.779  -1.586  -9.053  0.00  0.00    -0.045 C 
BRANCH  24  25
ATOM     25  C   UNL     1      -2.404  -2.059  -9.448  0.00  0.00    -0.053 C 
ATOM     26  C   UNL     1      -2.048  -3.297  -9.725  0.00  0.00    +0.086 C 
ATOM     27  N   UNL     1      -0.709  -3.383 -10.052  0.00  0.00    -0.277 N 
ATOM     28  N   UNL     1      -0.111  -2.157 -10.000  0.00  0.00    -0.234 NA
ATOM     29  C   UNL     1      -1.166  -1.202  -9.609  0.00  0.00    +0.095 C 
ATOM     30  C   UNL     1      -0.808  -0.525  -8.284  0.00  0.00    +0.030 C 
ATOM     31  C   UNL     1      -0.022  -4.627 -10.408  0.00  0.00    +0.149 C 
ATOM     32  H   UNL     1       0.649  -2.154  -9.335  0.00  0.00    +0.145 HD
ENDBRANCH  24  25
ENDBRANCH  21  24
ENDBRANCH   1  21
BRANCH   1  33
ATOM     33  C   UNL     1      -5.681   0.551  -8.727  0.00  0.00    +0.020 C 
BRANCH  33  34
ATOM     34  C   UNL     1      -5.347  -0.116  -7.417  0.00  0.00    -0.049 A 
ATOM     35  C   UNL     1      -4.191   0.228  -6.742  0.00  0.00    +0.003 A 
ATOM     36  C   UNL     1      -3.884  -0.383  -5.541  0.00  0.00    +0.000 A 
ATOM     37  C   UNL     1      -4.734  -1.337  -5.014  0.00  0.00    +0.000 A 
ATOM     38  C   UNL     1      -5.891  -1.680  -5.689  0.00  0.00    +0.000 A 
ATOM     39  C   UNL     1      -6.200  -1.066  -6.888  0.00  0.00    +0.003 A 
ENDBRANCH  33  34
ENDBRANCH   1  33
TORSDOF 7
