REMARK  Name = ZINC35337677
REMARK  8 active torsions:
REMARK  status: ('A' for Active; 'I' for Inactive)
REMARK    1  A    between atoms: C_1  and  C_2
REMARK    2  A    between atoms: C_3  and  C_29
REMARK    3  A    between atoms: C_4  and  C_13
REMARK    4  A    between atoms: C_17  and  N_19
REMARK    5  A    between atoms: C_20  and  C_22
REMARK    6  A    between atoms: C_22  and  C_23
REMARK    7  A    between atoms: C_23  and  C_24
REMARK    8  A    between atoms: N_31  and  C_32
REMARK                            x       y       z     vdW  Elec       q    Type
REMARK                         _______ _______ _______ _____ _____    ______ ____
ROOT
ATOM      1  C   UNL     1       0.878   0.975   1.549  0.00  0.00    +0.064 C 
ATOM      2  C   UNL     1       0.521  -0.401   1.047  0.00  0.00    +0.025 C 
ATOM      3  C   UNL     1      -0.783  -0.794   1.040  0.00  0.00    +0.058 C 
ATOM      4  C   UNL     1      -1.144  -2.143   0.469  0.00  0.00    +0.143 C 
ATOM      5  N   UNL     1       0.027  -3.033   0.573  0.00  0.00    -0.300 N 
ATOM      6  C   UNL     1      -0.206  -4.435   0.898  0.00  0.00    +0.109 C 
ATOM      7  C   UNL     1       0.683  -5.385   0.111  0.00  0.00    +0.030 C 
ATOM      8  C   UNL     1       2.147  -5.164   0.519  0.00  0.00    +0.078 C 
ATOM      9  S   UNL     1       2.635  -3.516  -0.076  0.00  0.00    -0.092 S 
ATOM     10  C   UNL     1       1.270  -2.502   0.399  0.00  0.00    +0.135 C 
ATOM     11  N   UNL     1       1.482  -1.210   0.612  0.00  0.00    -0.341 N 
ATOM     12  H   UNL     1       2.366  -0.844   0.451  0.00  0.00    +0.167 HD
ENDROOT
BRANCH   4  13
ATOM     13  C   UNL     1      -1.538  -1.991  -0.977  0.00  0.00    -0.021 A 
ATOM     14  C   UNL     1      -0.563  -1.885  -1.952  0.00  0.00    +0.006 A 
ATOM     15  C   UNL     1      -0.921  -1.745  -3.280  0.00  0.00    +0.002 A 
ATOM     16  C   UNL     1      -2.255  -1.711  -3.637  0.00  0.00    +0.023 A 
ATOM     17  C   UNL     1      -3.237  -1.817  -2.661  0.00  0.00    +0.034 A 
ATOM     18  C   UNL     1      -2.874  -1.962  -1.328  0.00  0.00    +0.029 A 
BRANCH  17  19
ATOM     19  N   UNL     1      -4.589  -1.782  -3.019  0.00  0.00    -0.285 N 
ATOM     20  C   UNL     1      -4.987  -2.298  -4.199  0.00  0.00    +0.217 C 
ATOM     21  O   UNL     1      -4.190  -2.876  -4.908  0.00  0.00    -0.275 OA
ATOM     22  H   UNL     1      -5.240  -1.386  -2.419  0.00  0.00    +0.155 HD
BRANCH  20  23
ATOM     23  C   UNL     1      -6.422  -2.158  -4.637  0.00  0.00    +0.096 C 
BRANCH  23  24
ATOM     24  C   UNL     1      -6.606  -2.826  -6.001  0.00  0.00    +0.013 C 
BRANCH  24  25
ATOM     25  C   UNL     1      -8.063  -2.684  -6.446  0.00  0.00    -0.011 C 
ATOM     26  C   UNL     1      -8.979  -3.523  -5.530  0.00  0.00    +0.003 C 
ATOM     27  C   UNL     1     -10.060  -4.085  -6.487  0.00  0.00    +0.000 C 
ATOM     28  C   UNL     1      -9.252  -4.398  -7.770  0.00  0.00    +0.000 C 
ATOM     29  C   UNL     1      -8.236  -3.241  -7.870  0.00  0.00    +0.003 C 
ENDBRANCH  24  25
ENDBRANCH  23  24
ENDBRANCH  20  23
ENDBRANCH  17  19
ENDBRANCH   4  13
BRANCH   3  30
ATOM     30  C   UNL     1      -1.782   0.048   1.559  0.00  0.00    +0.248 C 
ATOM     31  O   UNL     1      -1.484   1.137   2.019  0.00  0.00    -0.270 OA
ATOM     32  N   UNL     1      -3.071  -0.348   1.549  0.00  0.00    -0.282 N 
ATOM     33  H   UNL     1      -3.300  -1.243   1.252  0.00  0.00    +0.155 HD
BRANCH  32  34
ATOM     34  C   UNL     1      -4.076   0.530   1.965  0.00  0.00    +0.034 A 
ATOM     35  C   UNL     1      -3.947   1.894   1.736  0.00  0.00    +0.023 A 
ATOM     36  C   UNL     1      -4.942   2.758   2.149  0.00  0.00    +0.002 A 
ATOM     37  C   UNL     1      -6.065   2.268   2.789  0.00  0.00    +0.000 A 
ATOM     38  C   UNL     1      -6.196   0.910   3.019  0.00  0.00    +0.002 A 
ATOM     39  C   UNL     1      -5.208   0.039   2.603  0.00  0.00    +0.023 A 
ENDBRANCH  32  34
ENDBRANCH   3  30
TORSDOF 7
