REMARK  Name = ZINC19818672
REMARK  6 active torsions:
REMARK  status: ('A' for Active; 'I' for Inactive)
REMARK    1  A    between atoms: N_10  and  C_13
REMARK    2  A    between atoms: C_13  and  C_14
REMARK    3  A    between atoms: C_22  and  C_24
REMARK    4  A    between atoms: C_24  and  C_25
REMARK    5  A    between atoms: N_27  and  C_28
REMARK    6  A    between atoms: C_32  and  C_34
REMARK                            x       y       z     vdW  Elec       q    Type
REMARK                         _______ _______ _______ _____ _____    ______ ____
ROOT
ATOM      1  C   UNL     1       0.498  -6.557   0.949  0.00  0.00    +0.230 C 
ATOM      2  O   UNL     1      -0.467  -6.476   0.219  0.00  0.00    -0.274 OA
ATOM      3  N   UNL     1       0.591  -7.570   1.834  0.00  0.00    -0.287 N 
ATOM      4  C   UNL     1       1.698  -7.642   2.803  0.00  0.00    +0.127 C 
ATOM      5  C   UNL     1       1.104  -7.584   4.211  0.00  0.00    +0.123 C 
ATOM      6  N   UNL     1      -0.027  -8.494   4.333  0.00  0.00    -0.312 N 
ATOM      7  C   UNL     1      -0.745  -8.950   3.306  0.00  0.00    +0.234 C 
ATOM      8  O   UNL     1      -1.714  -9.641   3.539  0.00  0.00    -0.274 OA
ATOM      9  C   UNL     1      -0.412  -8.644   1.875  0.00  0.00    +0.171 C 
ATOM     10  H   UNL     1      -0.275  -8.789   5.223  0.00  0.00    +0.149 HD
ENDROOT
BRANCH   1  11
ATOM     11  C   UNL     1       1.593  -5.526   0.866  0.00  0.00    +0.180 C 
BRANCH  11  21
ATOM     12  C   UNL     1       1.722   1.434  -1.926  0.00  0.00    +0.005 A 
ATOM     13  C   UNL     1       0.466   2.009  -1.788  0.00  0.00    +0.018 A 
ATOM     14  C   UNL     1      -0.621   1.202  -1.520  0.00  0.00    +0.084 A 
ATOM     15  N   UNL     1      -0.480  -0.104  -1.395  0.00  0.00    -0.350 N 
ATOM     16  C   UNL     1       0.701  -0.690  -1.519  0.00  0.00    +0.099 A 
ATOM     17  C   UNL     1       1.839   0.062  -1.789  0.00  0.00    +0.042 A 
ATOM     18  N   UNL     1       0.804  -2.069  -1.379  0.00  0.00    -0.314 N 
ATOM     19  C   UNL     1       2.074  -2.762  -1.644  0.00  0.00    +0.122 C 
ATOM     20  C   UNL     1       2.400  -3.656  -0.443  0.00  0.00    +0.104 C 
ATOM     21  N   UNL     1       1.258  -4.537  -0.167  0.00  0.00    -0.291 NA
ATOM     22  C   UNL     1       0.068  -3.763   0.212  0.00  0.00    +0.104 C 
ATOM     23  C   UNL     1      -0.353  -2.874  -0.957  0.00  0.00    +0.122 C 
ATOM     24  H   UNL     1      -1.261  -0.649  -1.207  0.00  0.00    +0.166 HD
ENDBRANCH  11  21
ENDBRANCH   1  11
BRANCH   9  25
ATOM     25  C   UNL     1      -1.676  -8.194   1.140  0.00  0.00    +0.128 C 
BRANCH  25  26
ATOM     26  C   UNL     1      -2.221  -6.950   1.795  0.00  0.00    +0.219 C 
ATOM     27  O   UNL     1      -1.714  -6.529   2.812  0.00  0.00    -0.275 OA
ATOM     28  N   UNL     1      -3.272  -6.307   1.249  0.00  0.00    -0.285 N 
ATOM     29  H   UNL     1      -3.723  -6.683   0.477  0.00  0.00    +0.155 HD
BRANCH  28  30
ATOM     30  C   UNL     1      -3.712  -5.096   1.795  0.00  0.00    +0.034 A 
ATOM     31  C   UNL     1      -4.213  -4.100   0.967  0.00  0.00    +0.023 A 
ATOM     32  C   UNL     1      -4.646  -2.906   1.510  0.00  0.00    +0.002 A 
ATOM     33  C   UNL     1      -4.582  -2.702   2.876  0.00  0.00    +0.012 A 
ATOM     34  C   UNL     1      -4.084  -3.692   3.703  0.00  0.00    +0.057 A 
ATOM     35  C   UNL     1      -3.655  -4.891   3.167  0.00  0.00    +0.035 A 
BRANCH  34  36
ATOM     36  C   UNL     1      -4.016  -3.466   5.191  0.00  0.00    +0.417 C 
ATOM     37  F   UNL     1      -4.508  -2.191   5.492  0.00  0.00    -0.166 F 
ATOM     38  F   UNL     1      -4.788  -4.431   5.846  0.00  0.00    -0.166 F 
ATOM     39  F   UNL     1      -2.687  -3.564   5.618  0.00  0.00    -0.166 F 
ENDBRANCH  34  36
ENDBRANCH  28  30
ENDBRANCH  25  26
ENDBRANCH   9  25
TORSDOF 6
