REMARK  Name = ZINC35729437
REMARK  8 active torsions:
REMARK  status: ('A' for Active; 'I' for Inactive)
REMARK    1  A    between atoms: C_1  and  C_2
REMARK    2  A    between atoms: C_2  and  C_3
REMARK    3  A    between atoms: C_3  and  C_5
REMARK    4  A    between atoms: C_3  and  C_6
REMARK    5  A    between atoms: C_6  and  C_8
REMARK    6  A    between atoms: C_6  and  N_25
REMARK    7  A    between atoms: C_14  and  C_16
REMARK    8  A    between atoms: N_28  and  C_29
REMARK                            x       y       z     vdW  Elec       q    Type
REMARK                         _______ _______ _______ _____ _____    ______ ____
ROOT
ATOM      1  C   UNL     1      -2.033  -0.561  -1.664  0.00  0.00    +0.163 C 
ENDROOT
BRANCH   1   2
ATOM      2  C   UNL     1      -3.421  -1.072  -1.949  0.00  0.00    +0.239 C 
ATOM      3  O   UNL     1      -4.319  -0.291  -2.184  0.00  0.00    -0.273 OA
ATOM      4  N   UNL     1      -3.666  -2.397  -1.943  0.00  0.00    -0.262 N 
ATOM      5  C   UNL     1      -4.919  -2.874  -2.308  0.00  0.00    +0.188 A 
ATOM      6  N   UNL     1      -6.002  -2.214  -2.697  0.00  0.00    -0.125 NA
ATOM      7  N   UNL     1      -7.074  -2.809  -2.997  0.00  0.00    -0.140 NA
ATOM      8  C   UNL     1      -7.181  -4.131  -2.941  0.00  0.00    +0.134 A 
ATOM      9  S   UNL     1      -5.530  -4.555  -2.395  0.00  0.00    -0.030 S 
ATOM     10  H   UNL     1      -2.967  -3.018  -1.685  0.00  0.00    +0.157 HD
BRANCH   8  11
ATOM     11  C   UNL     1      -8.334  -5.003  -3.248  0.00  0.00    +0.013 A 
ATOM     12  C   UNL     1      -8.219  -6.388  -3.111  0.00  0.00    +0.014 A 
ATOM     13  C   UNL     1      -9.296  -7.201  -3.397  0.00  0.00    +0.050 A 
ATOM     14  C   UNL     1     -10.495  -6.647  -3.821  0.00  0.00    +0.166 A 
ATOM     15  C   UNL     1     -10.616  -5.265  -3.960  0.00  0.00    +0.167 A 
ATOM     16  C   UNL     1      -9.541  -4.445  -3.670  0.00  0.00    +0.060 A 
ATOM     17  O   UNL     1     -11.881  -4.979  -4.386  0.00  0.00    -0.453 OA
ATOM     18  C   UNL     1     -12.404  -6.219  -4.898  0.00  0.00    +0.466 C 
ATOM     19  O   UNL     1     -11.685  -7.224  -4.160  0.00  0.00    -0.453 OA
ENDBRANCH   8  11
ENDBRANCH   1   2
BRANCH   1  20
ATOM     20  N   UNL     1      -2.024   0.902  -1.749  0.00  0.00    -0.288 N 
ATOM     21  C   UNL     1      -0.924   1.545  -2.190  0.00  0.00    +0.305 C 
ATOM     22  O   UNL     1       0.026   0.909  -2.604  0.00  0.00    -0.252 OA
ATOM     23  N   UNL     1      -0.878   2.891  -2.171  0.00  0.00    -0.267 N 
ATOM     24  H   UNL     1      -2.809   1.407  -1.488  0.00  0.00    +0.151 HD
ATOM     25  H   UNL     1      -1.600   3.396  -1.764  0.00  0.00    +0.156 HD
BRANCH  23  26
ATOM     26  C   UNL     1       0.213   3.563  -2.740  0.00  0.00    +0.070 A 
ATOM     27  C   UNL     1       0.939   2.970  -3.763  0.00  0.00    +0.029 A 
ATOM     28  C   UNL     1       2.014   3.633  -4.322  0.00  0.00    +0.040 A 
ATOM     29  C   UNL     1       2.368   4.891  -3.863  0.00  0.00    +0.126 A 
ATOM     30  C   UNL     1       1.647   5.486  -2.842  0.00  0.00    +0.078 A 
ATOM     31  C   UNL     1       0.567   4.828  -2.283  0.00  0.00    +0.147 A 
ATOM     32  F   UNL     1      -0.141   5.411  -1.291  0.00  0.00    -0.203 F 
ATOM     33  F   UNL     1       3.420   5.537  -4.412  0.00  0.00    -0.205 F 
ENDBRANCH  23  26
ENDBRANCH   1  20
BRANCH   1  34
ATOM     34  C   UNL     1      -1.608  -0.993  -0.259  0.00  0.00    +0.015 C 
ATOM     35  C   UNL     1      -0.145  -0.612  -0.029  0.00  0.00    +0.010 C 
BRANCH  34  37
ATOM     36  C   UNL     1      -3.914  -0.835   0.690  0.00  0.00    +0.004 C 
ATOM     37  C   UNL     1      -2.487  -0.290   0.777  0.00  0.00    +0.002 C 
ENDBRANCH  34  37
ENDBRANCH   1  34
TORSDOF 6
