REMARK  Name = ZINC20571345
REMARK  9 active torsions:
REMARK  status: ('A' for Active; 'I' for Inactive)
REMARK    1  A    between atoms: C_1  and  C_2
REMARK    2  A    between atoms: C_5  and  S_8
REMARK    3  A    between atoms: S_8  and  N_11
REMARK    4  A    between atoms: N_11  and  C_12
REMARK    5  A    between atoms: C_15  and  C_18
REMARK    6  A    between atoms: N_20  and  C_21
REMARK    7  A    between atoms: C_22  and  C_30
REMARK    8  A    between atoms: C_30  and  O_32
REMARK    9  A    between atoms: O_32  and  C_33
REMARK                            x       y       z     vdW  Elec       q    Type
REMARK                         _______ _______ _______ _____ _____    ______ ____
ROOT
ATOM      1  C   UNL     1       1.125   2.395  -0.183  0.00  0.00    +0.048 A 
ATOM      2  C   UNL     1       2.310   2.002   0.431  0.00  0.00    +0.025 A 
ATOM      3  C   UNL     1       3.461   2.733   0.243  0.00  0.00    +0.015 A 
ATOM      4  C   UNL     1       3.436   3.878  -0.559  0.00  0.00    +0.037 A 
ATOM      5  C   UNL     1       2.242   4.274  -1.170  0.00  0.00    +0.015 A 
ATOM      6  C   UNL     1       1.096   3.535  -0.982  0.00  0.00    +0.025 A 
ENDROOT
BRANCH   4   7
ATOM      7  C   UNL     1       4.665   4.667  -0.759  0.00  0.00    +0.249 C 
ATOM      8  O   UNL     1       4.642   5.663  -1.457  0.00  0.00    -0.270 OA
ATOM      9  N   UNL     1       5.815   4.284  -0.169  0.00  0.00    -0.275 N 
ATOM     10  H   UNL     1       5.836   3.384   0.462  0.00  0.00    +0.156 HD
BRANCH   9  11
ATOM     11  C   UNL     1       6.970   5.025  -0.357  0.00  0.00    +0.087 A 
ATOM     12  C   UNL     1       8.236   4.797   0.166  0.00  0.00    +0.091 A 
ATOM     13  C   UNL     1       9.289   5.733  -0.194  0.00  0.00    -0.021 A 
ATOM     14  C   UNL     1       8.908   6.745  -1.003  0.00  0.00    -0.004 A 
ATOM     15  S   UNL     1       7.184   6.466  -1.296  0.00  0.00    -0.077 S 
ATOM     16  C   UNL     1       9.766   7.853  -1.529  0.00  0.00    +0.043 C 
ATOM     17  C   UNL     1      11.067   7.887  -0.713  0.00  0.00    +0.005 C 
ATOM     18  C   UNL     1      11.624   6.464  -0.614  0.00  0.00    +0.005 C 
ATOM     19  C   UNL     1      10.728   5.617   0.292  0.00  0.00    +0.037 C 
BRANCH  12  20
ATOM     20  C   UNL     1       8.502   3.655   1.042  0.00  0.00    +0.342 C 
ATOM     21  O   UNL     1       8.854   2.592   0.566  0.00  0.00    -0.245 OA
BRANCH  20  22
ATOM     22  O   UNL     1       8.357   3.781   2.377  0.00  0.00    -0.464 OA
ATOM     23  C   UNL     1       8.638   2.607   3.184  0.00  0.00    +0.280 C 
ENDBRANCH  20  22
ENDBRANCH  12  20
ENDBRANCH   9  11
ENDBRANCH   4   7
BRANCH   1  24
ATOM     24  N   UNL     1      -0.035   1.651   0.005  0.00  0.00    -0.216 N 
ATOM     25  H   UNL     1      -0.984   2.160   0.228  0.00  0.00    +0.174 HD
BRANCH  24  26
ATOM     26  S   UNL     1       0.014  -0.000  -0.105  0.00  0.00    +0.072 S 
ATOM     27  O   UNL     1       1.068  -0.433   0.745  0.00  0.00    -0.150 OA
ATOM     28  O   UNL     1      -1.323  -0.457   0.046  0.00  0.00    -0.150 OA
BRANCH  26  33
ATOM     29  C   UNL     1       1.676  -1.364  -5.743  0.00  0.00    +0.044 C 
ATOM     30  C   UNL     1       1.261  -1.023  -4.335  0.00  0.00    -0.050 A 
ATOM     31  C   UNL     1       2.208  -0.968  -3.329  0.00  0.00    +0.005 A 
ATOM     32  C   UNL     1       1.827  -0.656  -2.038  0.00  0.00    +0.029 A 
ATOM     33  C   UNL     1       0.500  -0.398  -1.752  0.00  0.00    +0.109 A 
ATOM     34  C   UNL     1      -0.448  -0.458  -2.756  0.00  0.00    +0.029 A 
ATOM     35  C   UNL     1      -0.067  -0.766  -4.049  0.00  0.00    +0.005 A 
ENDBRANCH  26  33
ENDBRANCH  24  26
ENDBRANCH   1  24
TORSDOF 7
