REMARK  Name = ZINC08979937
REMARK  3 active torsions:
REMARK  status: ('A' for Active; 'I' for Inactive)
REMARK    1  A    between atoms: C_5  and  N_7
REMARK    2  A    between atoms: C_13  and  C_15
REMARK    3  A    between atoms: N_23  and  C_24
REMARK                            x       y       z     vdW  Elec       q    Type
REMARK                         _______ _______ _______ _____ _____    ______ ____
ROOT
ATOM      1  C   UNL     1       4.912   8.024   0.389  0.00  0.00    +0.135 A 
ATOM      2  C   UNL     1       5.928   7.120   0.549  0.00  0.00    +0.081 A 
ATOM      3  S   UNL     1       5.135   5.628   0.152  0.00  0.00    -0.060 S 
ATOM      4  C   UNL     1       3.518   6.298  -0.197  0.00  0.00    +0.166 A 
ATOM      5  N   UNL     1       3.710   7.585   0.007  0.00  0.00    -0.220 NA
ATOM      6  N   UNL     1       2.361   5.637  -0.589  0.00  0.00    -0.248 N 
ATOM      7  C   UNL     1       2.372   4.299  -0.751  0.00  0.00    +0.310 C 
ATOM      8  O   UNL     1       3.394   3.671  -0.555  0.00  0.00    -0.252 OA
ATOM      9  N   UNL     1       1.249   3.657  -1.131  0.00  0.00    -0.269 N 
ATOM     10  H   UNL     1       1.545   6.138  -0.745  0.00  0.00    +0.158 HD
ATOM     11  H   UNL     1       0.452   4.164  -1.351  0.00  0.00    +0.156 HD
ENDROOT
BRANCH   1  18
ATOM     12  N   UNL     1       2.071  11.752   2.006  0.00  0.00    -0.325 N 
ATOM     13  C   UNL     1       3.469  12.151   2.216  0.00  0.00    +0.124 C 
ATOM     14  C   UNL     1       4.304  11.732   1.001  0.00  0.00    +0.127 C 
ATOM     15  N   UNL     1       4.096  10.295   0.764  0.00  0.00    -0.293 N 
ATOM     16  C   UNL     1       2.714   9.798   0.674  0.00  0.00    +0.127 C 
ATOM     17  C   UNL     1       1.942  10.292   1.907  0.00  0.00    +0.124 C 
ATOM     18  C   UNL     1       5.143   9.458   0.628  0.00  0.00    +0.266 C 
ATOM     19  O   UNL     1       6.278   9.887   0.704  0.00  0.00    -0.268 OA
BRANCH  12  24
ATOM     20  C   UNL     1       0.342  14.131   4.214  0.00  0.00    +0.002 A 
ATOM     21  C   UNL     1      -0.379  13.267   5.017  0.00  0.00    +0.003 A 
ATOM     22  C   UNL     1      -0.290  11.901   4.824  0.00  0.00    +0.040 A 
ATOM     23  C   UNL     1       0.521  11.394   3.826  0.00  0.00    +0.144 A 
ATOM     24  C   UNL     1       1.248  12.261   3.017  0.00  0.00    +0.065 A 
ATOM     25  C   UNL     1       1.159  13.631   3.218  0.00  0.00    +0.026 A 
ATOM     26  F   UNL     1       0.609  10.059   3.638  0.00  0.00    -0.204 F 
ENDBRANCH  12  24
ENDBRANCH   1  18
BRANCH   9  27
ATOM     27  C   UNL     1       1.234   2.260  -1.207  0.00  0.00    +0.035 A 
ATOM     28  C   UNL     1       2.004   1.507  -0.331  0.00  0.00    +0.025 A 
ATOM     29  C   UNL     1       1.987   0.128  -0.407  0.00  0.00    +0.022 A 
ATOM     30  C   UNL     1       1.203  -0.503  -1.357  0.00  0.00    +0.041 A 
ATOM     31  C   UNL     1       0.434   0.244  -2.231  0.00  0.00    +0.022 A 
ATOM     32  C   UNL     1       0.448   1.623  -2.158  0.00  0.00    +0.025 A 
ATOM     33 CL   UNL     1       1.184  -2.237  -1.452  0.00  0.00    -0.084 Cl
ENDBRANCH   9  27
TORSDOF 3
