REMARK  Name = ZINC02853633
REMARK  11 active torsions:
REMARK  status: ('A' for Active; 'I' for Inactive)
REMARK    1  A    between atoms: C_1  and  C_2
REMARK    2  A    between atoms: C_2  and  O_3
REMARK    3  A    between atoms: O_3  and  C_4
REMARK    4  A    between atoms: C_4  and  C_6
REMARK    5  A    between atoms: C_10  and  N_11
REMARK    6  A    between atoms: N_11  and  C_12
REMARK    7  A    between atoms: C_12  and  N_14
REMARK    8  A    between atoms: N_14  and  C_15
REMARK    9  A    between atoms: C_16  and  C_28
REMARK   10  A    between atoms: N_17  and  C_27
REMARK   11  A    between atoms: N_18  and  C_21
REMARK                            x       y       z     vdW  Elec       q    Type
REMARK                         _______ _______ _______ _____ _____    ______ ____
ROOT
ATOM      1  N   UNL     1      -0.970  -2.480   4.075  0.00  0.00    -0.291 N 
ATOM      2  H   UNL     1      -0.757  -3.048   3.318  0.00  0.00    +0.154 HD
ENDROOT
BRANCH   1   7
ATOM      3  C   UNL     1      -0.892  -4.342   5.731  0.00  0.00    +0.091 A 
ATOM      4  C   UNL     1      -1.022  -4.671   7.157  0.00  0.00    -0.021 A 
ATOM      5  C   UNL     1      -1.346  -3.622   7.931  0.00  0.00    -0.004 A 
ATOM      6  S   UNL     1      -1.426  -2.228   6.836  0.00  0.00    -0.077 S 
ATOM      7  C   UNL     1      -1.062  -3.025   5.345  0.00  0.00    +0.086 A 
ATOM      8  C   UNL     1      -1.651  -3.600   9.403  0.00  0.00    +0.043 C 
ATOM      9  C   UNL     1      -3.110  -4.062   9.560  0.00  0.00    +0.005 C 
ATOM     10  C   UNL     1      -3.266  -5.410   8.845  0.00  0.00    +0.000 C 
ATOM     11  C   UNL     1      -2.336  -6.359   9.570  0.00  0.00    +0.000 C 
ATOM     12  C   UNL     1      -0.891  -6.282   9.110  0.00  0.00    +0.005 C 
ATOM     13  C   UNL     1      -0.765  -6.111   7.602  0.00  0.00    +0.037 C 
BRANCH   3  14
ATOM     14  C   UNL     1      -0.586  -5.381   4.746  0.00  0.00    +0.342 C 
ATOM     15  O   UNL     1       0.572  -5.639   4.474  0.00  0.00    -0.245 OA
BRANCH  14  16
ATOM     16  O   UNL     1      -1.587  -6.051   4.140  0.00  0.00    -0.461 OA
BRANCH  16  18
ATOM     17  C   UNL     1      -2.469  -7.715   2.596  0.00  0.00    +0.048 C 
ATOM     18  C   UNL     1      -1.209  -7.068   3.174  0.00  0.00    +0.229 C 
ENDBRANCH  16  18
ENDBRANCH  14  16
ENDBRANCH   3  14
ENDBRANCH   1   7
BRANCH   1  19
ATOM     19  C   UNL     1      -1.177  -1.161   3.891  0.00  0.00    +0.139 C 
ATOM     20  S   UNL     1      -1.553  -0.159   5.227  0.00  0.00    -0.018 S 
BRANCH  19  21
ATOM     21  N   UNL     1      -1.087  -0.631   2.655  0.00  0.00    -0.291 N 
ATOM     22  H   UNL     1      -0.938  -1.207   1.890  0.00  0.00    +0.154 HD
BRANCH  21  23
ATOM     23  C   UNL     1      -1.210   0.762   2.476  0.00  0.00    +0.121 A 
ATOM     24  C   UNL     1      -0.288   1.584   1.928  0.00  0.00    +0.059 A 
ATOM     25  N   UNL     1      -0.781   2.863   1.938  0.00  0.00    -0.282 N 
ATOM     26  N   UNL     1      -2.062   2.856   2.502  0.00  0.00    -0.216 N 
ATOM     27  C   UNL     1      -2.360   1.587   2.848  0.00  0.00    +0.293 A 
ATOM     28  O   UNL     1      -3.390   1.201   3.370  0.00  0.00    -0.264 OA
ATOM     29  C   UNL     1      -0.080   4.048   1.436  0.00  0.00    +0.171 C 
ATOM     30  C   UNL     1       1.060   1.166   1.400  0.00  0.00    +0.067 C 
BRANCH  26  31
ATOM     31  C   UNL     1      -2.886   3.972   2.681  0.00  0.00    +0.067 A 
ATOM     32  C   UNL     1      -3.524   4.178   3.897  0.00  0.00    +0.028 A 
ATOM     33  C   UNL     1      -4.333   5.283   4.072  0.00  0.00    +0.002 A 
ATOM     34  C   UNL     1      -4.518   6.178   3.034  0.00  0.00    +0.000 A 
ATOM     35  C   UNL     1      -3.889   5.973   1.820  0.00  0.00    +0.002 A 
ATOM     36  C   UNL     1      -3.074   4.872   1.641  0.00  0.00    +0.028 A 
ENDBRANCH  26  31
ENDBRANCH  21  23
ENDBRANCH  19  21
ENDBRANCH   1  19
TORSDOF 8
