REMARK  Name = ZINC13129018
REMARK  14 active torsions:
REMARK  status: ('A' for Active; 'I' for Inactive)
REMARK    1  A    between atoms: C_1  and  C_2
REMARK    2  A    between atoms: C_4  and  C_34
REMARK    3  A    between atoms: C_5  and  N_9
REMARK    4  A    between atoms: C_6  and  C_8
REMARK    5  A    between atoms: C_10  and  C_12
REMARK    6  A    between atoms: C_12  and  O_13
REMARK    7  A    between atoms: O_13  and  C_14
REMARK    8  A    between atoms: C_14  and  C_16
REMARK    9  A    between atoms: C_16  and  C_18
REMARK   10  A    between atoms: C_16  and  N_22
REMARK   11  A    between atoms: C_18  and  C_20
REMARK   12  A    between atoms: C_18  and  O_21
REMARK   13  A    between atoms: N_22  and  S_23
REMARK   14  A    between atoms: S_23  and  C_26
REMARK                            x       y       z     vdW  Elec       q    Type
REMARK                         _______ _______ _______ _____ _____    ______ ____
ROOT
ATOM      1  C   UNL     1       4.450   5.723  -1.188  0.00  0.00    +0.213 C 
ENDROOT
BRANCH   1   2
ATOM      2  C   UNL     1       4.948   5.667  -2.609  0.00  0.00    +0.329 C 
ATOM      3  O   UNL     1       5.872   4.942  -2.898  0.00  0.00    -0.249 OA
BRANCH   2   4
ATOM      4  O   UNL     1       4.367   6.421  -3.555  0.00  0.00    -0.454 OA
BRANCH   4   5
ATOM      5  C   UNL     1       4.898   6.316  -4.902  0.00  0.00    +0.328 C 
BRANCH   5   7
ATOM      6  N   UNL     1       4.446   7.296  -7.127  0.00  0.00    -0.282 N 
ATOM      7  C   UNL     1       4.126   7.228  -5.820  0.00  0.00    +0.255 C 
ATOM      8  O   UNL     1       3.217   7.900  -5.382  0.00  0.00    -0.272 OA
ATOM      9  H   UNL     1       5.206   6.798  -7.468  0.00  0.00    +0.155 HD
BRANCH   6  14
ATOM     10  C   UNL     1       1.345  10.491 -10.643  0.00  0.00    +0.044 C 
ATOM     11  C   UNL     1       2.169   9.643  -9.710  0.00  0.00    -0.050 A 
ATOM     12  C   UNL     1       3.542   9.798  -9.666  0.00  0.00    +0.008 A 
ATOM     13  C   UNL     1       4.300   9.021  -8.811  0.00  0.00    -0.029 A 
ATOM     14  C   UNL     1       3.681   8.084  -7.994  0.00  0.00    +0.039 A 
ATOM     15  C   UNL     1       2.302   7.928  -8.043  0.00  0.00    -0.029 A 
ATOM     16  C   UNL     1       1.549   8.710  -8.897  0.00  0.00    +0.008 A 
ATOM     17  C   UNL     1       1.627   6.908  -7.163  0.00  0.00    +0.045 C 
ATOM     18  C   UNL     1       5.796   9.191  -8.765  0.00  0.00    +0.045 C 
ENDBRANCH   6  14
ENDBRANCH   5   7
ENDBRANCH   4   5
ENDBRANCH   2   4
ENDBRANCH   1   2
BRANCH   1  19
ATOM     19  C   UNL     1       2.980   5.300  -1.146  0.00  0.00    +0.141 C 
ATOM     20  C   UNL     1       2.134   6.319  -1.912  0.00  0.00    +0.040 C 
BRANCH  19  21
ATOM     21  O   UNL     1       2.838   4.013  -1.749  0.00  0.00    -0.390 OA
ATOM     22  H   UNL     1       1.929   3.681  -1.757  0.00  0.00    +0.210 HD
ENDBRANCH  19  21
ENDBRANCH   1  19
BRANCH   1  23
ATOM     23  N   UNL     1       5.244   4.815  -0.356  0.00  0.00    -0.174 NA
ATOM     24  H   UNL     1       5.570   3.980  -0.725  0.00  0.00    +0.149 HD
BRANCH  23  25
ATOM     25  S   UNL     1       5.584   5.216   1.214  0.00  0.00    +0.059 S 
ATOM     26  O   UNL     1       6.072   6.550   1.196  0.00  0.00    -0.153 OA
ATOM     27  O   UNL     1       6.335   4.137   1.755  0.00  0.00    -0.153 OA
BRANCH  25  28
ATOM     28  C   UNL     1       4.053   5.251   2.086  0.00  0.00    +0.107 A 
ATOM     29  C   UNL     1       3.326   6.425   2.160  0.00  0.00    +0.030 A 
ATOM     30  C   UNL     1       2.126   6.454   2.843  0.00  0.00    +0.023 A 
ATOM     31  C   UNL     1       1.650   5.307   3.455  0.00  0.00    +0.059 A 
ATOM     32  C   UNL     1       2.378   4.132   3.381  0.00  0.00    +0.061 A 
ATOM     33  C   UNL     1       3.579   4.105   2.696  0.00  0.00    +0.050 A 
ATOM     34 CL   UNL     1       1.783   2.693   4.148  0.00  0.00    -0.082 Cl
ATOM     35 CL   UNL     1       0.141   5.343   4.313  0.00  0.00    -0.082 Cl
ENDBRANCH  25  28
ENDBRANCH  23  25
ENDBRANCH   1  23
TORSDOF 10
