REMARK  Name = ZINC63773013
REMARK  4 active torsions:
REMARK  status: ('A' for Active; 'I' for Inactive)
REMARK    1  A    between atoms: C_7  and  C_18
REMARK    2  A    between atoms: C_9  and  C_11
REMARK    3  A    between atoms: N_20  and  N_21
REMARK    4  A    between atoms: C_22  and  C_23
REMARK                            x       y       z     vdW  Elec       q    Type
REMARK                         _______ _______ _______ _____ _____    ______ ____
ROOT
ATOM      1  C   UNL     1      -0.017   1.359  -0.035  0.00  0.00    +0.001 A 
ATOM      2  C   UNL     1       1.170   2.089  -0.042  0.00  0.00    +0.002 A 
ATOM      3  C   UNL     1       2.379   1.465  -0.042  0.00  0.00    +0.028 A 
ATOM      4  C   UNL     1       2.438   0.059  -0.036  0.00  0.00    +0.072 A 
ATOM      5  C   UNL     1       1.228  -0.678  -0.029  0.00  0.00    +0.013 A 
ATOM      6  C   UNL     1       0.002  -0.004  -0.028  0.00  0.00    +0.011 A 
ATOM      7  C   UNL     1       1.296  -2.140  -0.022  0.00  0.00    +0.050 A 
ATOM      8  C   UNL     1       2.558  -2.719  -0.023  0.00  0.00    +0.042 A 
ATOM      9  C   UNL     1       3.693  -1.895  -0.030  0.00  0.00    +0.072 A 
ATOM     10  N   UNL     1       3.609  -0.581  -0.036  0.00  0.00    -0.247 NA
ENDROOT
BRANCH   9  11
ATOM     11  C   UNL     1       5.035  -2.525  -0.032  0.00  0.00    +0.000 A 
ATOM     12  C   UNL     1       5.156  -3.914  -0.031  0.00  0.00    +0.011 A 
ATOM     13  C   UNL     1       6.407  -4.495  -0.032  0.00  0.00    +0.016 A 
ATOM     14  C   UNL     1       7.542  -3.702  -0.033  0.00  0.00    +0.018 A 
ATOM     15  C   UNL     1       7.428  -2.323  -0.034  0.00  0.00    +0.016 A 
ATOM     16  C   UNL     1       6.181  -1.731  -0.039  0.00  0.00    +0.011 A 
ATOM     17 BR   UNL     1       9.253  -4.506  -0.033  0.00  0.00    -0.050 Br
ENDBRANCH   9  11
BRANCH   7  18
ATOM     18  C   UNL     1       0.071  -2.967  -0.014  0.00  0.00    +0.264 C 
ATOM     19  O   UNL     1      -1.018  -2.439   0.092  0.00  0.00    -0.268 OA
ATOM     20  N   UNL     1       0.163  -4.307  -0.123  0.00  0.00    -0.203 N 
ATOM     21  H   UNL     1       1.032  -4.729  -0.207  0.00  0.00    +0.178 HD
BRANCH  20  22
ATOM     22  N   UNL     1      -0.998  -5.091  -0.115  0.00  0.00    -0.188 NA
ATOM     23  C   UNL     1      -0.910  -6.394  -0.221  0.00  0.00    +0.136 C 
BRANCH  23  24
ATOM     24  C   UNL     1      -2.071  -7.178  -0.214  0.00  0.00    +0.000 C 
ATOM     25  C   UNL     1      -2.151  -8.566  -0.311  0.00  0.00    +0.004 A 
ATOM     26  C   UNL     1      -1.169  -9.572  -0.440  0.00  0.00    +0.010 A 
ATOM     27  C   UNL     1      -1.544 -10.874  -0.514  0.00  0.00    +0.001 A 
ATOM     28  C   UNL     1      -2.889 -11.252  -0.466  0.00  0.00    +0.002 A 
ATOM     29  C   UNL     1      -3.884 -10.342  -0.344  0.00  0.00    +0.026 A 
ATOM     30  C   UNL     1      -3.570  -8.960  -0.260  0.00  0.00    +0.043 A 
ATOM     31  N   UNL     1      -4.338  -7.897  -0.139  0.00  0.00    -0.380 N 
ATOM     32  C   UNL     1      -3.500  -6.696  -0.091  0.00  0.00    +0.150 C 
ATOM     33  H   UNL     1      -5.307  -7.909  -0.085  0.00  0.00    +0.160 HD
ENDBRANCH  23  24
ENDBRANCH  20  22
ENDBRANCH   7  18
TORSDOF 4
