REMARK  Name = ZINC02544093
REMARK  7 active torsions:
REMARK  status: ('A' for Active; 'I' for Inactive)
REMARK    1  A    between atoms: C_4  and  C_7
REMARK    2  A    between atoms: C_7  and  O_9
REMARK    3  A    between atoms: O_9  and  C_10
REMARK    4  A    between atoms: C_15  and  C_16
REMARK    5  A    between atoms: N_17  and  N_18
REMARK    6  A    between atoms: C_19  and  C_21
REMARK    7  A    between atoms: N_23  and  C_24
REMARK                            x       y       z     vdW  Elec       q    Type
REMARK                         _______ _______ _______ _____ _____    ______ ____
ROOT
ATOM      1  C   UNL     1       1.703   4.256  -0.162  0.00  0.00    +0.141 A 
ATOM      2  C   UNL     1       2.843   5.041  -0.215  0.00  0.00    +0.048 A 
ATOM      3  C   UNL     1       4.092   4.449  -0.229  0.00  0.00    +0.019 A 
ATOM      4  C   UNL     1       4.214   3.070  -0.186  0.00  0.00    +0.019 A 
ATOM      5  C   UNL     1       3.089   2.273  -0.128  0.00  0.00    +0.028 A 
ATOM      6  C   UNL     1       1.821   2.860  -0.113  0.00  0.00    +0.038 A 
ATOM      7 BR   UNL     1       5.930   2.276  -0.206  0.00  0.00    -0.050 Br
ENDROOT
BRANCH   6   8
ATOM      8  C   UNL     1       0.616   2.016  -0.051  0.00  0.00    +0.142 C 
ATOM      9  N   UNL     1      -0.557   2.565   0.051  0.00  0.00    -0.187 NA
BRANCH   9  10
ATOM     10  N   UNL     1      -1.695   1.763   0.211  0.00  0.00    -0.199 N 
ATOM     11  C   UNL     1      -2.920   2.324   0.213  0.00  0.00    +0.318 C 
ATOM     12  O   UNL     1      -3.045   3.510  -0.016  0.00  0.00    -0.263 OA
ATOM     13  H   UNL     1      -1.601   0.804   0.320  0.00  0.00    +0.178 HD
BRANCH  11  14
ATOM     14  C   UNL     1      -4.122   1.489   0.496  0.00  0.00    +0.305 C 
ATOM     15  O   UNL     1      -3.997   0.303   0.725  0.00  0.00    -0.265 OA
ATOM     16  N   UNL     1      -5.348   2.050   0.499  0.00  0.00    -0.278 N 
ATOM     17  H   UNL     1      -5.457   2.978   0.238  0.00  0.00    +0.155 HD
BRANCH  16  18
ATOM     18  C   UNL     1      -6.461   1.295   0.876  0.00  0.00    +0.034 A 
ATOM     19  C   UNL     1      -7.690   1.514   0.265  0.00  0.00    +0.023 A 
ATOM     20  C   UNL     1      -8.787   0.762   0.637  0.00  0.00    +0.002 A 
ATOM     21  C   UNL     1      -8.667  -0.200   1.623  0.00  0.00    +0.000 A 
ATOM     22  C   UNL     1      -7.447  -0.416   2.237  0.00  0.00    +0.002 A 
ATOM     23  C   UNL     1      -6.344   0.328   1.866  0.00  0.00    +0.023 A 
ENDBRANCH  16  18
ENDBRANCH  11  14
ENDBRANCH   9  10
ENDBRANCH   6   8
BRANCH   1  24
ATOM     24  O   UNL     1       0.475   4.837  -0.154  0.00  0.00    -0.422 OA
BRANCH  24  25
ATOM     25  C   UNL     1      -0.059   5.121   1.050  0.00  0.00    +0.344 C 
ATOM     26  O   UNL     1       0.506   4.764   2.065  0.00  0.00    -0.245 OA
BRANCH  25  30
ATOM     27  C   UNL     1      -3.715   7.266   1.299  0.00  0.00    +0.000 A 
ATOM     28  C   UNL     1      -3.025   6.946   2.455  0.00  0.00    +0.001 A 
ATOM     29  C   UNL     1      -1.836   6.249   2.381  0.00  0.00    +0.015 A 
ATOM     30  C   UNL     1      -1.331   5.867   1.137  0.00  0.00    +0.059 A 
ATOM     31  C   UNL     1      -2.030   6.199  -0.025  0.00  0.00    +0.015 A 
ATOM     32  C   UNL     1      -3.220   6.891   0.063  0.00  0.00    +0.001 A 
ENDBRANCH  25  30
ENDBRANCH  24  25
ENDBRANCH   1  24
TORSDOF 7
