REMARK  Name = ZINC40306655
REMARK  3 active torsions:
REMARK  status: ('A' for Active; 'I' for Inactive)
REMARK    1  A    between atoms: C_2  and  N_20
REMARK    2  A    between atoms: C_6  and  C_7
REMARK    3  A    between atoms: C_13  and  C_16
REMARK                            x       y       z     vdW  Elec       q    Type
REMARK                         _______ _______ _______ _____ _____    ______ ____
ROOT
ATOM      1  C   UNL     1      -1.170  -0.886   0.009  0.00  0.00    +0.263 C 
ATOM      2  O   UNL     1      -2.288  -0.406   0.026  0.00  0.00    -0.268 OA
ATOM      3  N   UNL     1      -1.010  -2.219  -0.101  0.00  0.00    -0.296 N 
ATOM      4  C   UNL     1       0.333  -2.814  -0.114  0.00  0.00    +0.108 C 
ATOM      5  C   UNL     1       0.470  -3.697  -1.358  0.00  0.00    +0.020 C 
ATOM      6  C   UNL     1      -0.670  -4.718  -1.382  0.00  0.00    +0.015 C 
ATOM      7  C   UNL     1      -2.012  -3.986  -1.454  0.00  0.00    +0.110 C 
ATOM      8  C   UNL     1      -2.177  -3.107  -0.206  0.00  0.00    +0.120 C 
ENDROOT
BRANCH   1  14
ATOM      9  C   UNL     1       0.087   1.293  -0.329  0.00  0.00    +0.055 A 
ATOM     10  C   UNL     1       1.382   1.745  -0.036  0.00  0.00    +0.043 A 
ATOM     11  C   UNL     1       2.051   0.726   0.563  0.00  0.00    +0.106 A 
ATOM     12  N   UNL     1       1.221  -0.348   0.656  0.00  0.00    -0.355 N 
ATOM     13  H   UNL     1       1.450  -1.207   1.044  0.00  0.00    +0.166 HD
ATOM     14  C   UNL     1       0.004  -0.013   0.108  0.00  0.00    +0.104 A 
BRANCH  10  15
ATOM     15  N   UNL     1       1.896   3.025  -0.314  0.00  0.00    -0.357 N 
ATOM     16  H   UNL     1       1.337   3.689  -0.748  0.00  0.00    +0.142 HD
ATOM     17  H   UNL     1       2.809   3.244  -0.071  0.00  0.00    +0.142 HD
ENDBRANCH  10  15
ENDBRANCH   1  14
BRANCH   7  18
ATOM     18  C   UNL     1      -3.149  -5.008  -1.512  0.00  0.00    +0.394 C 
ATOM     19  F   UNL     1      -3.116  -5.807  -0.365  0.00  0.00    -0.170 F 
ATOM     20  F   UNL     1      -4.375  -4.338  -1.579  0.00  0.00    -0.170 F 
ATOM     21  F   UNL     1      -2.996  -5.813  -2.646  0.00  0.00    -0.170 F 
ENDBRANCH   7  18
TORSDOF 3
