REMARK  Name = ZINC59170739
REMARK  9 active torsions:
REMARK  status: ('A' for Active; 'I' for Inactive)
REMARK    1  A    between atoms: C_1  and  C_2
REMARK    2  A    between atoms: C_5  and  S_8
REMARK    3  A    between atoms: S_8  and  N_11
REMARK    4  A    between atoms: N_11  and  N_12
REMARK    5  A    between atoms: C_14  and  C_26
REMARK    6  A    between atoms: C_18  and  N_23
REMARK    7  A    between atoms: N_28  and  C_29
REMARK    8  A    between atoms: C_34  and  O_35
REMARK    9  A    between atoms: O_35  and  C_36
REMARK                            x       y       z     vdW  Elec       q    Type
REMARK                         _______ _______ _______ _____ _____    ______ ____
ROOT
ATOM      1  N   UNL     1       2.294  -4.407   0.532  0.00  0.00    -0.260 N 
ATOM      2  C   UNL     1       3.577  -4.862   0.441  0.00  0.00    +0.225 A 
ATOM      3  C   UNL     1       4.456  -4.622   1.496  0.00  0.00    +0.099 A 
ATOM      4  C   UNL     1       5.787  -5.083   1.425  0.00  0.00    +0.030 A 
ATOM      5  C   UNL     1       6.182  -5.778   0.274  0.00  0.00    +0.020 A 
ATOM      6  C   UNL     1       7.490  -6.274   0.119  0.00  0.00    +0.044 A 
ATOM      7  C   UNL     1       7.822  -6.942  -1.020  0.00  0.00    +0.127 A 
ATOM      8  C   UNL     1       6.892  -7.147  -2.037  0.00  0.00    +0.036 A 
ATOM      9  C   UNL     1       5.601  -6.683  -1.937  0.00  0.00    +0.049 A 
ATOM     10  C   UNL     1       5.203  -5.992  -0.795  0.00  0.00    +0.138 A 
ATOM     11  O   UNL     1       3.952  -5.529  -0.655  0.00  0.00    -0.437 OA
ATOM     12  H   UNL     1       1.984  -3.989   1.351  0.00  0.00    +0.189 HD
ENDROOT
BRANCH   3  13
ATOM     13  C   UNL     1       3.992  -3.882   2.693  0.00  0.00    +0.253 C 
ATOM     14  O   UNL     1       3.346  -4.455   3.549  0.00  0.00    -0.270 OA
ATOM     15  N   UNL     1       4.286  -2.575   2.833  0.00  0.00    -0.278 N 
ATOM     16  H   UNL     1       4.744  -2.102   2.120  0.00  0.00    +0.155 HD
BRANCH  15  17
ATOM     17  C   UNL     1       3.931  -1.899   4.006  0.00  0.00    +0.076 A 
ATOM     18  C   UNL     1       3.650  -2.613   5.162  0.00  0.00    +0.027 A 
ATOM     19  C   UNL     1       3.300  -1.944   6.319  0.00  0.00    +0.002 A 
ATOM     20  C   UNL     1       3.227  -0.563   6.328  0.00  0.00    +0.004 A 
ATOM     21  C   UNL     1       3.504   0.156   5.180  0.00  0.00    +0.047 A 
ATOM     22  C   UNL     1       3.863  -0.507   4.017  0.00  0.00    +0.141 A 
BRANCH  22  23
ATOM     23  O   UNL     1       4.142   0.198   2.889  0.00  0.00    -0.493 OA
ATOM     24  C   UNL     1       4.164   1.622   3.003  0.00  0.00    +0.277 C 
ENDBRANCH  22  23
ENDBRANCH  15  17
ENDBRANCH   3  13
BRANCH   7  25
ATOM     25  N   UNL     1       9.198  -7.462  -1.181  0.00  0.00    +0.056 N 
ATOM     26  O   UNL     1      10.088  -7.276  -0.228  0.00  0.00    -0.126 OA
ATOM     27  O   UNL     1       9.533  -8.111  -2.277  0.00  0.00    -0.126 OA
ENDBRANCH   7  25
BRANCH   1  28
ATOM     28  N   UNL     1       1.492  -4.533  -0.470  0.00  0.00    -0.157 N 
ATOM     29  H   UNL     1       1.777  -5.017  -1.261  0.00  0.00    +0.194 HD
BRANCH  28  30
ATOM     30  S   UNL     1      -0.024  -3.869  -0.407  0.00  0.00    +0.085 S 
ATOM     31  O   UNL     1      -0.626  -4.344   0.788  0.00  0.00    -0.149 OA
ATOM     32  O   UNL     1      -0.608  -4.068  -1.687  0.00  0.00    -0.149 OA
BRANCH  30  37
ATOM     33  C   UNL     1       0.664   2.088   0.262  0.00  0.00    +0.044 C 
ATOM     34  C   UNL     1       0.492   0.601   0.095  0.00  0.00    -0.050 A 
ATOM     35  C   UNL     1       0.532   0.038  -1.167  0.00  0.00    +0.005 A 
ATOM     36  C   UNL     1       0.375  -1.327  -1.321  0.00  0.00    +0.029 A 
ATOM     37  C   UNL     1       0.178  -2.129  -0.212  0.00  0.00    +0.110 A 
ATOM     38  C   UNL     1       0.139  -1.566   1.050  0.00  0.00    +0.029 A 
ATOM     39  C   UNL     1       0.301  -0.202   1.204  0.00  0.00    +0.005 A 
ENDBRANCH  30  37
ENDBRANCH  28  30
ENDBRANCH   1  28
TORSDOF 7
