REMARK  Name = ZINC02265761
REMARK  5 active torsions:
REMARK  status: ('A' for Active; 'I' for Inactive)
REMARK    1  A    between atoms: C_4  and  N_7
REMARK    2  A    between atoms: C_8  and  C_10
REMARK    3  A    between atoms: N_21  and  N_24
REMARK    4  A    between atoms: C_22  and  N_23
REMARK    5  A    between atoms: C_25  and  C_26
REMARK                            x       y       z     vdW  Elec       q    Type
REMARK                         _______ _______ _______ _____ _____    ______ ____
ROOT
ATOM      1  C   UNL     1       5.340   7.007   0.900  0.00  0.00    +0.105 A 
ATOM      2  C   UNL     1       5.282   7.199  -0.558  0.00  0.00    +0.124 A 
ATOM      3  C   UNL     1       4.117   6.431  -1.006  0.00  0.00    +0.183 A 
ATOM      4  N   UNL     1       3.806   6.412  -2.284  0.00  0.00    -0.224 NA
ATOM      5  C   UNL     1       4.555   7.092  -3.163  0.00  0.00    +0.092 A 
ATOM      6  C   UNL     1       4.230   7.078  -4.532  0.00  0.00    +0.030 A 
ATOM      7  C   UNL     1       4.996   7.771  -5.417  0.00  0.00    +0.002 A 
ATOM      8  C   UNL     1       6.104   8.500  -4.989  0.00  0.00    +0.002 A 
ATOM      9  C   UNL     1       6.450   8.538  -3.673  0.00  0.00    +0.030 A 
ATOM     10  C   UNL     1       5.681   7.834  -2.728  0.00  0.00    +0.090 A 
ATOM     11  N   UNL     1       6.013   7.864  -1.431  0.00  0.00    -0.241 NA
ATOM     12  N   UNL     1       3.561   5.850   0.118  0.00  0.00    -0.198 N 
ATOM     13  C   UNL     1       4.268   6.187   1.234  0.00  0.00    +0.134 A 
ENDROOT
BRANCH   1  15
ATOM     14  N   UNL     1       7.431   6.875   2.063  0.00  0.00    -0.281 N 
ATOM     15  C   UNL     1       6.299   7.554   1.791  0.00  0.00    +0.254 C 
ATOM     16  O   UNL     1       6.099   8.638   2.309  0.00  0.00    -0.270 OA
ATOM     17  H   UNL     1       7.556   5.980   1.712  0.00  0.00    +0.155 HD
BRANCH  14  21
ATOM     18  C   UNL     1      10.393   8.622   4.414  0.00  0.00    +0.000 A 
ATOM     19  C   UNL     1      10.183   7.256   4.471  0.00  0.00    +0.002 A 
ATOM     20  C   UNL     1       9.202   6.674   3.693  0.00  0.00    +0.023 A 
ATOM     21  C   UNL     1       8.425   7.462   2.853  0.00  0.00    +0.034 A 
ATOM     22  C   UNL     1       8.642   8.833   2.794  0.00  0.00    +0.023 A 
ATOM     23  C   UNL     1       9.621   9.409   3.579  0.00  0.00    +0.002 A 
ENDBRANCH  14  21
ENDBRANCH   1  15
BRANCH  13  24
ATOM     24  N   UNL     1       3.966   5.773   2.506  0.00  0.00    -0.342 N 
ATOM     25  H   UNL     1       3.200   5.197   2.660  0.00  0.00    +0.144 HD
ATOM     26  H   UNL     1       4.517   6.055   3.252  0.00  0.00    +0.144 HD
ENDBRANCH  13  24
BRANCH  12  27
ATOM     27  N   UNL     1       2.423   5.033   0.112  0.00  0.00    -0.171 NA
ATOM     28  C   UNL     1       2.547   3.749  -0.036  0.00  0.00    +0.141 C 
BRANCH  28  29
ATOM     29  C   UNL     1       1.349   2.889  -0.043  0.00  0.00    -0.004 A 
ATOM     30  C   UNL     1       1.479   1.507  -0.202  0.00  0.00    +0.009 A 
ATOM     31  C   UNL     1       0.355   0.708  -0.207  0.00  0.00    +0.002 A 
ATOM     32  C   UNL     1      -0.900   1.272  -0.061  0.00  0.00    +0.015 A 
ATOM     33  C   UNL     1      -1.036   2.640   0.103  0.00  0.00    +0.018 A 
ATOM     34  C   UNL     1       0.080   3.451   0.110  0.00  0.00    +0.024 A 
ATOM     35 BR   UNL     1      -2.756   3.398   0.310  0.00  0.00    -0.050 Br
ENDBRANCH  28  29
ENDBRANCH  12  27
TORSDOF 5
