REMARK  Name = ZINC39006685
REMARK  8 active torsions:
REMARK  status: ('A' for Active; 'I' for Inactive)
REMARK    1  A    between atoms: C_1  and  C_2
REMARK    2  A    between atoms: N_4  and  C_5
REMARK    3  A    between atoms: C_9  and  N_11
REMARK    4  A    between atoms: N_11  and  C_12
REMARK    5  A    between atoms: N_15  and  S_16
REMARK    6  A    between atoms: S_16  and  C_19
REMARK    7  A    between atoms: C_30  and  O_34
REMARK    8  A    between atoms: O_34  and  C_35
REMARK                            x       y       z     vdW  Elec       q    Type
REMARK                         _______ _______ _______ _____ _____    ______ ____
ROOT
ATOM      1  C   UNL     1      -3.255  -6.449   0.360  0.00  0.00    +0.237 C 
ATOM      2  C   UNL     1      -4.171  -7.099  -0.651  0.00  0.00    +0.192 C 
ATOM      3  N   UNL     1      -4.003  -6.893  -1.923  0.00  0.00    -0.110 NA
ATOM      4  N   UNL     1      -5.162  -7.895  -0.215  0.00  0.00    -0.226 NA
ATOM      5  C   UNL     1      -5.354  -8.120   1.066  0.00  0.00    +0.089 A 
ATOM      6  C   UNL     1      -6.413  -8.967   1.488  0.00  0.00    +0.033 A 
ATOM      7  C   UNL     1      -6.617  -9.204   2.800  0.00  0.00    +0.048 A 
ATOM      8  C   UNL     1      -5.810  -8.637   3.810  0.00  0.00    +0.122 A 
ATOM      9  C   UNL     1      -4.772  -7.814   3.513  0.00  0.00    +0.073 A 
ATOM     10  C   UNL     1      -4.489  -7.510   2.107  0.00  0.00    +0.066 A 
ATOM     11  N   UNL     1      -3.499  -6.723   1.784  0.00  0.00    -0.359 N 
ATOM     12  H   UNL     1      -2.937  -6.327   2.469  0.00  0.00    +0.162 HD
ENDROOT
BRANCH   3  13
ATOM     13  S   UNL     1      -5.014  -7.612  -3.020  0.00  0.00    +0.100 S 
ATOM     14  O   UNL     1      -4.776  -9.011  -2.936  0.00  0.00    -0.146 OA
ATOM     15  O   UNL     1      -6.301  -7.045  -2.818  0.00  0.00    -0.146 OA
BRANCH  13  16
ATOM     16  C   UNL     1      -4.487  -7.107  -4.624  0.00  0.00    +0.113 A 
ATOM     17  C   UNL     1      -5.009  -5.962  -5.194  0.00  0.00    +0.030 A 
ATOM     18  C   UNL     1      -4.596  -5.565  -6.452  0.00  0.00    +0.022 A 
ATOM     19  C   UNL     1      -3.660  -6.316  -7.141  0.00  0.00    +0.041 A 
ATOM     20  C   UNL     1      -3.138  -7.463  -6.569  0.00  0.00    +0.022 A 
ATOM     21  C   UNL     1      -3.547  -7.855  -5.309  0.00  0.00    +0.030 A 
ATOM     22 CL   UNL     1      -3.141  -5.819  -8.721  0.00  0.00    -0.084 Cl
ENDBRANCH  13  16
ENDBRANCH   3  13
BRANCH   1  23
ATOM     23  N   UNL     1      -3.331  -4.999   0.164  0.00  0.00    -0.318 N 
ATOM     24  H   UNL     1      -4.194  -4.557   0.139  0.00  0.00    +0.148 HD
BRANCH  23  29
ATOM     25  C   UNL     1      -1.067  -2.172  -0.488  0.00  0.00    +0.035 A 
ATOM     26  C   UNL     1       0.167  -2.777  -0.285  0.00  0.00    +0.023 A 
ATOM     27  C   UNL     1       0.235  -4.111   0.065  0.00  0.00    +0.004 A 
ATOM     28  C   UNL     1      -0.923  -4.850   0.214  0.00  0.00    +0.023 A 
ATOM     29  C   UNL     1      -2.160  -4.252   0.013  0.00  0.00    +0.031 A 
ATOM     30  C   UNL     1      -2.233  -2.909  -0.333  0.00  0.00    +0.046 A 
BRANCH  25  34
ATOM     31  C   UNL     1      -2.116   1.440  -0.626  0.00  0.00    +0.109 C 
ATOM     32  C   UNL     1      -2.103  -0.037  -0.327  0.00  0.00    +0.214 C 
ATOM     33  O   UNL     1      -2.964  -0.520   0.377  0.00  0.00    -0.276 OA
ATOM     34  N   UNL     1      -1.136  -0.821  -0.843  0.00  0.00    -0.286 N 
ATOM     35  H   UNL     1      -0.487  -0.448  -1.459  0.00  0.00    +0.155 HD
ENDBRANCH  25  34
ENDBRANCH  23  29
ENDBRANCH   1  23
BRANCH   8  36
ATOM     36  O   UNL     1      -6.078  -8.921   5.110  0.00  0.00    -0.495 OA
ATOM     37  C   UNL     1      -7.181  -9.792   5.369  0.00  0.00    +0.277 C 
ENDBRANCH   8  36
TORSDOF 6
