REMARK  Name = ZINC08386049
REMARK  6 active torsions:
REMARK  status: ('A' for Active; 'I' for Inactive)
REMARK    1  A    between atoms: C_4  and  C_7
REMARK    2  A    between atoms: C_7  and  C_26
REMARK    3  A    between atoms: C_9  and  C_11
REMARK    4  A    between atoms: N_13  and  N_14
REMARK    5  A    between atoms: C_15  and  C_16
REMARK    6  A    between atoms: C_18  and  N_23
REMARK                            x       y       z     vdW  Elec       q    Type
REMARK                         _______ _______ _______ _____ _____    ______ ____
ROOT
ATOM      1  C   UNL     1       5.970  -0.443  -0.805  0.00  0.00    +0.236 C 
ATOM      2  O   UNL     1       7.011   0.177  -0.870  0.00  0.00    -0.274 OA
ATOM      3  N   UNL     1       4.807   0.212  -0.620  0.00  0.00    -0.207 N 
ATOM      4  H   UNL     1       3.974  -0.283  -0.569  0.00  0.00    +0.177 HD
ENDROOT
BRANCH   1   7
ATOM      5  C   UNL     1       7.337  -2.647  -0.921  0.00  0.00    +0.033 C 
ATOM      6  C   UNL     1       6.543  -2.541  -2.224  0.00  0.00    +0.031 C 
ATOM      7  C   UNL     1       5.978  -1.944  -0.933  0.00  0.00    +0.093 C 
BRANCH   5  11
ATOM      8  C   UNL     1      10.819  -0.204  -0.526  0.00  0.00    +0.000 A 
ATOM      9  C   UNL     1       9.962  -0.366   0.547  0.00  0.00    +0.000 A 
ATOM     10  C   UNL     1       8.835  -1.156   0.419  0.00  0.00    +0.004 A 
ATOM     11  C   UNL     1       8.565  -1.785  -0.782  0.00  0.00    -0.036 A 
ATOM     12  C   UNL     1       9.424  -1.629  -1.853  0.00  0.00    +0.004 A 
ATOM     13  C   UNL     1      10.549  -0.834  -1.727  0.00  0.00    +0.000 A 
ENDBRANCH   5  11
BRANCH   5  14
ATOM     14  C   UNL     1       7.414  -4.001  -0.262  0.00  0.00    -0.036 A 
ATOM     15  C   UNL     1       6.266  -4.600   0.222  0.00  0.00    +0.004 A 
ATOM     16  C   UNL     1       6.336  -5.844   0.822  0.00  0.00    +0.000 A 
ATOM     17  C   UNL     1       7.555  -6.483   0.947  0.00  0.00    +0.000 A 
ATOM     18  C   UNL     1       8.704  -5.881   0.469  0.00  0.00    +0.000 A 
ATOM     19  C   UNL     1       8.633  -4.639  -0.136  0.00  0.00    +0.004 A 
ENDBRANCH   5  14
ENDBRANCH   1   7
BRANCH   3  20
ATOM     20  N   UNL     1       4.800   1.608  -0.501  0.00  0.00    -0.188 NA
ATOM     21  C   UNL     1       3.702   2.227  -0.191  0.00  0.00    +0.142 C 
BRANCH  21  22
ATOM     22  C   UNL     1       2.535   1.464   0.286  0.00  0.00    +0.044 A 
ATOM     23  C   UNL     1       2.711   0.222   0.901  0.00  0.00    +0.046 A 
ATOM     24  C   UNL     1       1.615  -0.487   1.344  0.00  0.00    +0.128 A 
ATOM     25  C   UNL     1       0.339   0.026   1.182  0.00  0.00    +0.051 A 
ATOM     26  C   UNL     1       0.151   1.254   0.576  0.00  0.00    +0.067 A 
ATOM     27  C   UNL     1       1.242   1.980   0.125  0.00  0.00    +0.202 A 
ATOM     28 BR   UNL     1      -1.596   1.944   0.362  0.00  0.00    -0.046 Br
ATOM     29  O   UNL     1       1.059   3.187  -0.471  0.00  0.00    -0.286 OA
BRANCH  24  30
ATOM     30  N   UNL     1       1.804  -1.800   2.000  0.00  0.00    +0.056 N 
ATOM     31  O   UNL     1       0.838  -2.427   2.397  0.00  0.00    -0.126 OA
ATOM     32  O   UNL     1       2.925  -2.254   2.144  0.00  0.00    -0.126 OA
ENDBRANCH  24  30
ENDBRANCH  21  22
ENDBRANCH   3  20
TORSDOF 6
