REMARK  Name = ZINC04155831
REMARK  5 active torsions:
REMARK  status: ('A' for Active; 'I' for Inactive)
REMARK    1  A    between atoms: C_1  and  C_2
REMARK    2  A    between atoms: N_4  and  C_5
REMARK    3  A    between atoms: C_8  and  N_11
REMARK    4  A    between atoms: C_12  and  C_14
REMARK    5  A    between atoms: C_23  and  C_25
REMARK                            x       y       z     vdW  Elec       q    Type
REMARK                         _______ _______ _______ _____ _____    ______ ____
ROOT
ATOM      1  N   UNL     1      -1.148  -6.308   1.108  0.00  0.00    -0.285 N 
ATOM      2  C   UNL     1      -2.152  -6.955   0.484  0.00  0.00    +0.221 C 
ATOM      3  O   UNL     1      -3.064  -6.327  -0.011  0.00  0.00    -0.275 OA
ATOM      4  H   UNL     1      -0.458  -6.811   1.567  0.00  0.00    +0.155 HD
ENDROOT
BRANCH   2   5
ATOM      5  C   UNL     1      -2.141  -8.460   0.401  0.00  0.00    +0.092 C 
ATOM      6  C   UNL     1      -1.922  -8.922  -1.072  0.00  0.00    +0.002 C 
ATOM      7  C   UNL     1      -2.927  -8.066  -1.903  0.00  0.00    +0.004 C 
ATOM      8  C   UNL     1      -4.319  -8.619  -1.523  0.00  0.00    +0.004 C 
ATOM      9  C   UNL     1      -4.025  -9.757  -0.498  0.00  0.00    +0.004 C 
ATOM     10  C   UNL     1      -2.646 -10.315  -1.050  0.00  0.00    +0.008 C 
ATOM     11  C   UNL     1      -3.524  -9.031   0.791  0.00  0.00    +0.117 C 
BRANCH  11  12
ATOM     12  C   UNL     1      -4.474  -7.915   1.139  0.00  0.00    +0.360 C 
ATOM     13  O   UNL     1      -5.579  -7.872   0.625  0.00  0.00    -0.246 OA
ATOM     14  O   UNL     1      -4.138  -7.054   1.934  0.00  0.00    -0.246 OA
ENDBRANCH  11  12
ENDBRANCH   2   5
BRANCH   1  18
ATOM     15  C   UNL     1      -1.010  -2.140   1.064  0.00  0.00    +0.033 A 
ATOM     16  C   UNL     1      -0.531  -2.840   2.164  0.00  0.00    +0.025 A 
ATOM     17  C   UNL     1      -0.577  -4.219   2.179  0.00  0.00    +0.025 A 
ATOM     18  C   UNL     1      -1.102  -4.908   1.093  0.00  0.00    +0.034 A 
ATOM     19  C   UNL     1      -1.581  -4.209  -0.007  0.00  0.00    +0.025 A 
ATOM     20  C   UNL     1      -1.540  -2.829  -0.020  0.00  0.00    +0.025 A 
BRANCH  15  24
ATOM     21  C   UNL     1      -1.953   1.466   0.530  0.00  0.00    +0.109 C 
ATOM     22  C   UNL     1      -1.956  -0.039   0.467  0.00  0.00    +0.214 C 
ATOM     23  O   UNL     1      -2.852  -0.620  -0.109  0.00  0.00    -0.276 OA
ATOM     24  N   UNL     1      -0.963  -0.741   1.049  0.00  0.00    -0.286 N 
ATOM     25  H   UNL     1      -0.216  -0.276   1.458  0.00  0.00    +0.155 HD
ENDBRANCH  15  24
ENDBRANCH   1  18
TORSDOF 4
