REMARK  Name = ZINC65301190
REMARK  8 active torsions:
REMARK  status: ('A' for Active; 'I' for Inactive)
REMARK    1  A    between atoms: C_1  and  C_2
REMARK    2  A    between atoms: C_5  and  N_9
REMARK    3  A    between atoms: C_7  and  C_8
REMARK    4  A    between atoms: C_10  and  C_12
REMARK    5  A    between atoms: N_15  and  C_18
REMARK    6  A    between atoms: C_19  and  C_28
REMARK    7  A    between atoms: C_24  and  C_27
REMARK    8  A    between atoms: C_33  and  C_36
REMARK                            x       y       z     vdW  Elec       q    Type
REMARK                         _______ _______ _______ _____ _____    ______ ____
ROOT
ATOM      1  C   UNL     1       1.822  -9.934  -2.800  0.00  0.00    +0.055 A 
ATOM      2  C   UNL     1       3.094  -9.781  -3.370  0.00  0.00    +0.074 A 
ATOM      3  C   UNL     1       3.838 -10.910  -3.734  0.00  0.00    +0.098 A 
ATOM      4  N   UNL     1       3.352 -12.119  -3.547  0.00  0.00    -0.353 N 
ATOM      5  C   UNL     1       2.163 -12.312  -3.016  0.00  0.00    +0.107 A 
ATOM      6  C   UNL     1       1.324 -11.249  -2.603  0.00  0.00    +0.050 A 
ATOM      7  C   UNL     1       0.107 -11.693  -2.059  0.00  0.00    +0.058 A 
ATOM      8  N   UNL     1      -0.155 -12.961  -1.968  0.00  0.00    -0.213 NA
ATOM      9  S   UNL     1       1.184 -13.736  -2.613  0.00  0.00    +0.030 S 
ATOM     10  C   UNL     1      -0.904 -10.686  -1.575  0.00  0.00    +0.067 C 
ATOM     11  H   UNL     1       3.884 -12.887  -3.807  0.00  0.00    +0.166 HD
ENDROOT
BRANCH   2  12
ATOM     12  C   UNL     1       3.647  -8.434  -3.585  0.00  0.00    +0.250 C 
ATOM     13  O   UNL     1       3.810  -7.685  -2.640  0.00  0.00    -0.270 OA
ATOM     14  N   UNL     1       3.973  -8.030  -4.829  0.00  0.00    -0.297 N 
ATOM     15  C   UNL     1       3.676  -8.877  -5.993  0.00  0.00    +0.108 C 
ATOM     16  C   UNL     1       2.877  -8.055  -7.010  0.00  0.00    +0.022 C 
ATOM     17  C   UNL     1       3.647  -6.776  -7.343  0.00  0.00    -0.011 C 
ATOM     18  C   UNL     1       3.821  -5.937  -6.075  0.00  0.00    +0.022 C 
ATOM     19  C   UNL     1       4.625  -6.732  -5.048  0.00  0.00    +0.108 C 
ATOM     20  C   UNL     1       2.868  -5.969  -8.385  0.00  0.00    +0.007 C 
ENDBRANCH   2  12
BRANCH   1  24
ATOM     21  C   UNL     1       0.438  -6.100  -2.085  0.00  0.00    +0.078 C 
ATOM     22  C   UNL     1       1.504  -6.766  -1.212  0.00  0.00    +0.031 C 
ATOM     23  C   UNL     1       1.195  -8.261  -1.087  0.00  0.00    +0.106 C 
ATOM     24  N   UNL     1       1.074  -8.834  -2.434  0.00  0.00    -0.329 N 
ATOM     25  C   UNL     1       0.143  -8.212  -3.386  0.00  0.00    +0.106 C 
ATOM     26  C   UNL     1       0.464  -6.718  -3.485  0.00  0.00    +0.031 C 
BRANCH  21  28
ATOM     27  N   UNL     1       0.749  -3.867  -1.067  0.00  0.00    -0.285 N 
ATOM     28  C   UNL     1       0.721  -4.623  -2.183  0.00  0.00    +0.220 C 
ATOM     29  O   UNL     1       0.923  -4.115  -3.265  0.00  0.00    -0.275 OA
ATOM     30  H   UNL     1       0.662  -4.285  -0.196  0.00  0.00    +0.155 HD
BRANCH  27  35
ATOM     31  C   UNL     1       1.373   1.757  -1.467  0.00  0.00    +0.044 C 
ATOM     32  C   UNL     1       1.207   0.263  -1.361  0.00  0.00    -0.047 A 
ATOM     33  C   UNL     1       0.571  -0.434  -2.372  0.00  0.00    +0.005 A 
ATOM     34  C   UNL     1       0.417  -1.803  -2.277  0.00  0.00    +0.023 A 
ATOM     35  C   UNL     1       0.903  -2.480  -1.166  0.00  0.00    +0.034 A 
ATOM     36  C   UNL     1       1.542  -1.777  -0.153  0.00  0.00    +0.027 A 
ATOM     37  C   UNL     1       1.697  -0.408  -0.256  0.00  0.00    -0.046 A 
ATOM     38  C   UNL     1       2.395   0.354   0.841  0.00  0.00    +0.044 C 
ENDBRANCH  27  35
ENDBRANCH  21  28
ENDBRANCH   1  24
TORSDOF 4
