REMARK  Name = ZINC38970725
REMARK  6 active torsions:
REMARK  status: ('A' for Active; 'I' for Inactive)
REMARK    1  A    between atoms: C_1  and  C_2
REMARK    2  A    between atoms: C_5  and  C_31
REMARK    3  A    between atoms: C_6  and  S_8
REMARK    4  A    between atoms: S_8  and  N_11
REMARK    5  A    between atoms: C_13  and  N_23
REMARK    6  A    between atoms: N_23  and  C_24
REMARK                            x       y       z     vdW  Elec       q    Type
REMARK                         _______ _______ _______ _____ _____    ______ ____
ROOT
ATOM      1  N   UNL     1      -1.262  -3.919   2.382  0.00  0.00    -0.110 NA
ATOM      2  C   UNL     1      -1.520  -4.474   3.529  0.00  0.00    +0.192 C 
ATOM      3  C   UNL     1      -2.843  -5.167   3.766  0.00  0.00    +0.237 C 
ATOM      4  N   UNL     1      -3.074  -5.776   5.085  0.00  0.00    -0.359 N 
ATOM      5  C   UNL     1      -2.132  -5.690   5.983  0.00  0.00    +0.063 A 
ATOM      6  C   UNL     1      -2.312  -6.282   7.317  0.00  0.00    +0.027 A 
ATOM      7  C   UNL     1      -1.313  -6.173   8.220  0.00  0.00    +0.002 A 
ATOM      8  C   UNL     1      -0.112  -5.511   7.917  0.00  0.00    +0.002 A 
ATOM      9  C   UNL     1       0.126  -4.943   6.715  0.00  0.00    +0.030 A 
ATOM     10  C   UNL     1      -0.853  -4.997   5.691  0.00  0.00    +0.089 A 
ATOM     11  N   UNL     1      -0.614  -4.446   4.519  0.00  0.00    -0.226 NA
ATOM     12  H   UNL     1      -3.907  -6.231   5.283  0.00  0.00    +0.162 HD
ENDROOT
BRANCH   1  13
ATOM     13  S   UNL     1       0.193  -3.170   2.134  0.00  0.00    +0.101 S 
ATOM     14  O   UNL     1       1.186  -4.186   2.175  0.00  0.00    -0.146 OA
ATOM     15  O   UNL     1       0.222  -2.041   2.997  0.00  0.00    -0.146 OA
BRANCH  13  21
ATOM     16  C   UNL     1       0.260   0.798  -1.268  0.00  0.00    +0.044 C 
ATOM     17  C   UNL     1       0.214  -0.688  -1.027  0.00  0.00    -0.049 A 
ATOM     18  C   UNL     1       0.164  -1.561  -2.098  0.00  0.00    +0.004 A 
ATOM     19  C   UNL     1       0.123  -2.925  -1.876  0.00  0.00    +0.005 A 
ATOM     20  C   UNL     1       0.132  -3.416  -0.584  0.00  0.00    -0.024 A 
ATOM     21  C   UNL     1       0.182  -2.544   0.487  0.00  0.00    +0.116 A 
ATOM     22  C   UNL     1       0.228  -1.180   0.265  0.00  0.00    +0.032 A 
ATOM     23  C   UNL     1       0.086  -4.903  -0.343  0.00  0.00    +0.046 C 
ENDBRANCH  13  21
ENDBRANCH   1  13
BRANCH   3  24
ATOM     24  N   UNL     1      -2.983  -6.220   2.758  0.00  0.00    -0.317 N 
ATOM     25  H   UNL     1      -2.229  -6.792   2.546  0.00  0.00    +0.148 HD
BRANCH  24  26
ATOM     26  C   UNL     1      -4.203  -6.402   2.101  0.00  0.00    +0.043 A 
ATOM     27  C   UNL     1      -5.319  -5.673   2.492  0.00  0.00    +0.024 A 
ATOM     28  C   UNL     1      -6.524  -5.854   1.841  0.00  0.00    +0.002 A 
ATOM     29  C   UNL     1      -6.620  -6.760   0.801  0.00  0.00    +0.001 A 
ATOM     30  C   UNL     1      -5.512  -7.487   0.408  0.00  0.00    +0.017 A 
ATOM     31  C   UNL     1      -4.302  -7.307   1.052  0.00  0.00    +0.039 A 
ATOM     32 BR   UNL     1      -2.785  -8.298   0.510  0.00  0.00    -0.048 Br
ENDBRANCH  24  26
ENDBRANCH   3  24
TORSDOF 4
