REMARK  Name = ZINC46839050
REMARK  9 active torsions:
REMARK  status: ('A' for Active; 'I' for Inactive)
REMARK    1  A    between atoms: C_1  and  C_2
REMARK    2  A    between atoms: N_8  and  C_9
REMARK    3  A    between atoms: C_9  and  C_10
REMARK    4  A    between atoms: C_13  and  C_16
REMARK    5  A    between atoms: C_16  and  N_17
REMARK    6  A    between atoms: C_18  and  C_20
REMARK    7  A    between atoms: N_28  and  C_29
REMARK    8  A    between atoms: C_29  and  C_30
REMARK    9  A    between atoms: C_29  and  C_31
REMARK                            x       y       z     vdW  Elec       q    Type
REMARK                         _______ _______ _______ _____ _____    ______ ____
ROOT
ATOM      1  N   UNL     1       3.811  -2.281   6.925  0.00  0.00    -0.311 N 
ATOM      2  C   UNL     1       4.215  -2.756   8.119  0.00  0.00    +0.216 C 
ATOM      3  O   UNL     1       5.326  -2.495   8.532  0.00  0.00    -0.276 OA
ATOM      4  H   UNL     1       2.923  -2.491   6.595  0.00  0.00    +0.149 HD
ENDROOT
BRANCH   2   5
ATOM      5  C   UNL     1       3.289  -3.614   8.943  0.00  0.00    +0.078 C 
ATOM      6  C   UNL     1       2.917  -4.869   8.150  0.00  0.00    +0.032 C 
ATOM      7  C   UNL     1       1.948  -5.721   8.976  0.00  0.00    +0.110 C 
ATOM      8  N   UNL     1       2.555  -5.992  10.286  0.00  0.00    -0.286 N 
ATOM      9  C   UNL     1       3.031  -4.859  11.092  0.00  0.00    +0.110 C 
ATOM     10  C   UNL     1       3.988  -4.017  10.243  0.00  0.00    +0.032 C 
ATOM     11  C   UNL     1       2.672  -7.255  10.740  0.00  0.00    +0.302 C 
ATOM     12  O   UNL     1       2.193  -8.176  10.107  0.00  0.00    -0.253 OA
ATOM     13  N   UNL     1       3.322  -7.498  11.896  0.00  0.00    -0.297 N 
ATOM     14  H   UNL     1       3.640  -6.760  12.438  0.00  0.00    +0.150 HD
BRANCH  13  15
ATOM     15  C   UNL     1       3.547  -8.878  12.334  0.00  0.00    +0.068 C 
ATOM     16  C   UNL     1       4.767  -8.929  13.255  0.00  0.00    +0.027 C 
ATOM     17  C   UNL     1       2.315  -9.380  13.090  0.00  0.00    +0.027 C 
ENDBRANCH  13  15
ENDBRANCH   2   5
BRANCH   1  18
ATOM     18  C   UNL     1       4.712  -1.448   6.125  0.00  0.00    +0.139 C 
BRANCH  18  22
ATOM     19  C   UNL     1       2.763  -0.319   2.495  0.00  0.00    -0.064 A 
ATOM     20  C   UNL     1       2.647   0.478   3.618  0.00  0.00    +0.002 A 
ATOM     21  C   UNL     1       3.277   0.112   4.793  0.00  0.00    +0.005 A 
ATOM     22  C   UNL     1       4.023  -1.050   4.844  0.00  0.00    -0.030 A 
ATOM     23  C   UNL     1       4.138  -1.848   3.721  0.00  0.00    +0.005 A 
ATOM     24  C   UNL     1       3.504  -1.485   2.548  0.00  0.00    +0.002 A 
BRANCH  19  25
ATOM     25  C   UNL     1       2.075   0.079   1.214  0.00  0.00    -0.043 C 
BRANCH  25  32
ATOM     26  C   UNL     1      -0.008   1.522   0.005  0.00  0.00    -0.013 C 
ATOM     27  C   UNL     1       0.012  -0.007  -0.003  0.00  0.00    -0.071 C 
ATOM     28  C   UNL     1      -1.424  -0.535   0.006  0.00  0.00    -0.016 C 
ATOM     29  C   UNL     1      -1.400  -2.067  -0.002  0.00  0.00    -0.003 C 
ATOM     30  C   UNL     1      -0.592  -2.561   1.202  0.00  0.00    -0.019 C 
ATOM     31  C   UNL     1       0.813  -1.958   1.149  0.00  0.00    -0.078 C 
ATOM     32  N   UNL     1       0.722  -0.493   1.186  0.00  0.00    +0.384 N 
ATOM     33  H   UNL     1       0.222  -0.209   2.015  0.00  0.00    -0.081 HD
ENDBRANCH  25  32
ENDBRANCH  19  25
ENDBRANCH  18  22
ENDBRANCH   1  18
TORSDOF 6
