REMARK  Name = ZINC35425609
REMARK  9 active torsions:
REMARK  status: ('A' for Active; 'I' for Inactive)
REMARK    1  A    between atoms: C_1  and  C_2
REMARK    2  A    between atoms: C_2  and  C_4
REMARK    3  A    between atoms: C_2  and  N_15
REMARK    4  A    between atoms: N_6  and  C_7
REMARK    5  A    between atoms: C_10  and  C_12
REMARK    6  A    between atoms: C_16  and  C_18
REMARK    7  A    between atoms: C_18  and  C_19
REMARK    8  A    between atoms: C_18  and  C_20
REMARK    9  A    between atoms: C_18  and  C_21
REMARK                            x       y       z     vdW  Elec       q    Type
REMARK                         _______ _______ _______ _____ _____    ______ ____
ROOT
ATOM      1  C   UNL     1       0.707  -0.490  -1.238  0.00  0.00    +0.238 C 
ATOM      2  O   UNL     1       0.120  -1.191  -2.034  0.00  0.00    -0.273 OA
ATOM      3  N   UNL     1       1.991  -0.146  -1.462  0.00  0.00    -0.278 N 
ATOM      4  H   UNL     1       2.461   0.415  -0.825  0.00  0.00    +0.155 HD
ENDROOT
BRANCH   3   5
ATOM      5  C   UNL     1       2.641  -0.593  -2.603  0.00  0.00    +0.072 A 
ATOM      6  C   UNL     1       3.940  -0.348  -2.990  0.00  0.00    +0.032 A 
ATOM      7  C   UNL     1       4.389  -0.890  -4.163  0.00  0.00    +0.025 A 
ATOM      8  C   UNL     1       3.468  -1.655  -4.872  0.00  0.00    +0.102 A 
ATOM      9  S   UNL     1       2.026  -1.564  -3.829  0.00  0.00    -0.067 S 
BRANCH   8  10
ATOM     10  C   UNL     1       3.634  -2.332  -6.100  0.00  0.00    +0.393 C 
ATOM     11  O   UNL     1       4.710  -2.287  -6.684  0.00  0.00    -0.240 OA
ATOM     12  O   UNL     1       2.701  -2.965  -6.582  0.00  0.00    -0.240 OA
ENDBRANCH   8  10
ENDBRANCH   3   5
BRANCH   1  14
ATOM     13  C   UNL     1      -0.019   1.526   0.010  0.00  0.00    +0.038 C 
ATOM     14  C   UNL     1       0.002  -0.004   0.002  0.00  0.00    +0.156 C 
BRANCH  14  15
ATOM     15  N   UNL     1      -1.372  -0.511   0.012  0.00  0.00    -0.304 N 
ATOM     16  C   UNL     1      -2.029  -0.655   1.181  0.00  0.00    +0.219 C 
ATOM     17  O   UNL     1      -1.481  -0.365   2.224  0.00  0.00    -0.275 OA
ATOM     18  H   UNL     1      -1.810  -0.743  -0.822  0.00  0.00    +0.149 HD
BRANCH  16  19
ATOM     19  C   UNL     1      -3.442  -1.177   1.191  0.00  0.00    +0.039 C 
ATOM     20  C   UNL     1      -3.951  -1.243   2.633  0.00  0.00    +0.020 C 
ATOM     21  C   UNL     1      -4.338  -0.240   0.378  0.00  0.00    +0.020 C 
ATOM     22  C   UNL     1      -3.474  -2.577   0.575  0.00  0.00    +0.020 C 
ENDBRANCH  16  19
ENDBRANCH  14  15
ENDBRANCH   1  14
TORSDOF 5
