REMARK  Name = ZINC67587137
REMARK  5 active torsions:
REMARK  status: ('A' for Active; 'I' for Inactive)
REMARK    1  A    between atoms: C_1  and  O_2
REMARK    2  A    between atoms: O_2  and  C_3
REMARK    3  A    between atoms: C_6  and  N_9
REMARK    4  A    between atoms: C_10  and  C_12
REMARK    5  A    between atoms: C_24  and  C_26
REMARK                            x       y       z     vdW  Elec       q    Type
REMARK                         _______ _______ _______ _____ _____    ______ ____
ROOT
ATOM      1  C   UNL     1      -6.279  -4.617  -0.172  0.00  0.00    +0.164 C 
ATOM      2  C   UNL     1      -6.801  -4.536  -1.621  0.00  0.00    +0.033 C 
ATOM      3  C   UNL     1      -6.379  -5.904  -2.220  0.00  0.00    +0.021 C 
ATOM      4  C   UNL     1      -6.555  -6.844  -1.002  0.00  0.00    +0.110 C 
ATOM      5  N   UNL     1      -6.130  -6.041   0.163  0.00  0.00    -0.274 N 
ATOM      6  C   UNL     1      -5.678  -6.530   1.335  0.00  0.00    +0.309 C 
ATOM      7  O   UNL     1      -5.353  -5.769   2.226  0.00  0.00    -0.252 OA
ATOM      8  N   UNL     1      -5.587  -7.862   1.520  0.00  0.00    -0.247 N 
ATOM      9  C   UNL     1      -5.121  -8.366   2.729  0.00  0.00    +0.189 A 
ATOM     10  N   UNL     1      -4.730  -7.714   3.806  0.00  0.00    -0.125 NA
ATOM     11  N   UNL     1      -4.328  -8.316   4.842  0.00  0.00    -0.139 NA
ATOM     12  C   UNL     1      -4.298  -9.633   4.847  0.00  0.00    +0.169 A 
ATOM     13  S   UNL     1      -4.915  -9.970   3.204  0.00  0.00    -0.030 S 
ATOM     14  H   UNL     1      -5.846  -8.469   0.809  0.00  0.00    +0.158 HD
ENDROOT
BRANCH   1  16
ATOM     15  N   UNL     1      -4.890  -2.581   0.035  0.00  0.00    -0.284 N 
ATOM     16  C   UNL     1      -4.945  -3.924  -0.068  0.00  0.00    +0.238 C 
ATOM     17  O   UNL     1      -3.921  -4.574  -0.076  0.00  0.00    -0.273 OA
ATOM     18  H   UNL     1      -5.708  -2.067   0.119  0.00  0.00    +0.155 HD
BRANCH  15  22
ATOM     19  C   UNL     1      -1.202  -0.636  -0.009  0.00  0.00    +0.120 A 
ATOM     20  C   UNL     1      -1.385  -1.793  -0.752  0.00  0.00    +0.047 A 
ATOM     21  C   UNL     1      -2.606  -2.437  -0.738  0.00  0.00    +0.027 A 
ATOM     22  C   UNL     1      -3.651  -1.928   0.021  0.00  0.00    +0.034 A 
ATOM     23  C   UNL     1      -3.467  -0.770   0.765  0.00  0.00    +0.027 A 
ATOM     24  C   UNL     1      -2.244  -0.129   0.754  0.00  0.00    +0.047 A 
BRANCH  19  26
ATOM     25  C   UNL     1       1.029  -0.579  -0.831  0.00  0.00    +0.277 C 
ATOM     26  O   UNL     1       0.001  -0.002  -0.023  0.00  0.00    -0.495 OA
ENDBRANCH  19  26
ENDBRANCH  15  22
ENDBRANCH   1  16
BRANCH  12  27
ATOM     27  C   UNL     1      -3.869 -10.586   5.933  0.00  0.00    +0.398 C 
ATOM     28  F   UNL     1      -4.115 -10.010   7.183  0.00  0.00    -0.202 F 
ATOM     29  F   UNL     1      -4.591 -11.779   5.819  0.00  0.00    -0.202 F 
ENDBRANCH  12  27
TORSDOF 4
