REMARK  Name = ZINC49546823
REMARK  10 active torsions:
REMARK  status: ('A' for Active; 'I' for Inactive)
REMARK    1  A    between atoms: C_1  and  O_2
REMARK    2  A    between atoms: O_2  and  C_3
REMARK    3  A    between atoms: C_6  and  C_13
REMARK    4  A    between atoms: C_7  and  O_11
REMARK    5  A    between atoms: C_8  and  O_9
REMARK    6  A    between atoms: O_9  and  C_10
REMARK    7  A    between atoms: O_11  and  C_12
REMARK    8  A    between atoms: C_16  and  O_33
REMARK    9  A    between atoms: N_20  and  C_26
REMARK   10  A    between atoms: C_22  and  C_23
REMARK                            x       y       z     vdW  Elec       q    Type
REMARK                         _______ _______ _______ _____ _____    ______ ____
ROOT
ATOM      1  C   UNL     1       2.399  -2.510  -4.433  0.00  0.00    +0.081 C 
ATOM      2  C   UNL     1       1.620  -2.188  -5.713  0.00  0.00    +0.110 C 
ATOM      3  C   UNL     1       1.859  -0.777  -6.164  0.00  0.00    +0.189 C 
ATOM      4  N   UNL     1       2.985  -0.153  -5.985  0.00  0.00    -0.215 NA
ATOM      5  C   UNL     1       3.996  -0.796  -5.324  0.00  0.00    +0.103 A 
ATOM      6  C   UNL     1       3.780  -1.916  -4.569  0.00  0.00    +0.058 A 
ATOM      7  N   UNL     1       4.960  -2.321  -4.036  0.00  0.00    -0.317 N 
ATOM      8  C   UNL     1       5.960  -1.498  -4.423  0.00  0.00    +0.109 A 
ATOM      9  C   UNL     1       5.427  -0.510  -5.240  0.00  0.00    +0.107 A 
ENDROOT
BRANCH   7  10
ATOM     10  C   UNL     1       5.120  -3.434  -3.200  0.00  0.00    +0.046 A 
ATOM     11  C   UNL     1       4.386  -3.534  -2.026  0.00  0.00    +0.027 A 
ATOM     12  C   UNL     1       4.545  -4.632  -1.204  0.00  0.00    +0.022 A 
ATOM     13  C   UNL     1       5.436  -5.633  -1.550  0.00  0.00    +0.041 A 
ATOM     14  C   UNL     1       6.169  -5.536  -2.720  0.00  0.00    +0.022 A 
ATOM     15  C   UNL     1       6.009  -4.443  -3.548  0.00  0.00    +0.027 A 
ATOM     16 CL   UNL     1       5.634  -7.013  -0.515  0.00  0.00    -0.084 Cl
ENDBRANCH   7  10
BRANCH   1  20
ATOM     17  C   UNL     1       0.412  -0.788  -1.056  0.00  0.00    +0.165 A 
ATOM     18  C   UNL     1       1.274  -0.020  -1.826  0.00  0.00    +0.050 A 
ATOM     19  C   UNL     1       1.914  -0.580  -2.916  0.00  0.00    +0.012 A 
ATOM     20  C   UNL     1       1.699  -1.905  -3.243  0.00  0.00    +0.007 A 
ATOM     21  C   UNL     1       0.839  -2.679  -2.478  0.00  0.00    +0.169 A 
ATOM     22  C   UNL     1       0.198  -2.122  -1.378  0.00  0.00    +0.204 A 
BRANCH  17  24
ATOM     23  C   UNL     1       0.050   1.141   0.287  0.00  0.00    +0.277 C 
ATOM     24  O   UNL     1      -0.218  -0.236   0.015  0.00  0.00    -0.491 OA
ENDBRANCH  17  24
BRANCH  22  25
ATOM     25  O   UNL     1      -0.642  -2.880  -0.622  0.00  0.00    -0.488 OA
ATOM     26  C   UNL     1      -2.018  -2.905  -1.008  0.00  0.00    +0.277 C 
ENDBRANCH  22  25
BRANCH  21  27
ATOM     27  O   UNL     1       0.628  -3.983  -2.802  0.00  0.00    -0.491 OA
ATOM     28  C   UNL     1       1.403  -4.959  -2.103  0.00  0.00    +0.277 C 
ENDBRANCH  21  27
ENDBRANCH   1  20
BRANCH   9  29
ATOM     29  C   UNL     1       6.149   0.590  -5.884  0.00  0.00    +0.390 C 
ATOM     30  O   UNL     1       7.357   0.707  -5.724  0.00  0.00    -0.240 OA
ATOM     31  O   UNL     1       5.545   1.393  -6.584  0.00  0.00    -0.240 OA
ENDBRANCH   9  29
BRANCH   3  32
ATOM     32  O   UNL     1       0.854  -0.123  -6.786  0.00  0.00    -0.495 OA
ATOM     33  H   UNL     1       1.077   0.780  -7.050  0.00  0.00    +0.293 HD
ENDBRANCH   3  32
TORSDOF 7
