REMARK  Name = ZINC23009445
REMARK  6 active torsions:
REMARK  status: ('A' for Active; 'I' for Inactive)
REMARK    1  A    between atoms: C_3  and  S_6
REMARK    2  A    between atoms: S_6  and  N_9
REMARK    3  A    between atoms: C_13  and  C_16
REMARK    4  A    between atoms: N_18  and  C_19
REMARK    5  A    between atoms: C_21  and  C_31
REMARK    6  A    between atoms: C_24  and  N_25
REMARK                            x       y       z     vdW  Elec       q    Type
REMARK                         _______ _______ _______ _____ _____    ______ ____
ROOT
ATOM      1  C   UNL     1      -0.523   6.107   4.281  0.00  0.00    +0.222 C 
ATOM      2  O   UNL     1      -0.114   7.105   3.725  0.00  0.00    -0.275 OA
ATOM      3  N   UNL     1      -0.475   6.018   5.625  0.00  0.00    -0.284 N 
ATOM      4  H   UNL     1      -0.913   5.146   6.134  0.00  0.00    +0.155 HD
ENDROOT
BRANCH   1   9
ATOM      5  N   UNL     1      -1.691   4.262   1.214  0.00  0.00    -0.175 NA
ATOM      6  C   UNL     1      -3.066   3.888   1.575  0.00  0.00    +0.109 C 
ATOM      7  C   UNL     1      -3.102   3.546   3.072  0.00  0.00    +0.018 C 
ATOM      8  C   UNL     1      -2.541   4.723   3.872  0.00  0.00    +0.015 C 
ATOM      9  C   UNL     1      -1.085   4.968   3.469  0.00  0.00    +0.091 C 
ATOM     10  C   UNL     1      -1.024   5.323   1.980  0.00  0.00    +0.122 C 
BRANCH   5  11
ATOM     11  S   UNL     1      -0.912   3.507  -0.037  0.00  0.00    +0.067 S 
ATOM     12  O   UNL     1       0.086   4.407  -0.496  0.00  0.00    -0.152 OA
ATOM     13  O   UNL     1      -1.923   2.990  -0.892  0.00  0.00    -0.152 OA
BRANCH  11  16
ATOM     14  C   UNL     1       0.345  -0.091   1.359  0.00  0.00    +0.010 A 
ATOM     15  C   UNL     1      -0.502   0.844   0.794  0.00  0.00    +0.036 A 
ATOM     16  C   UNL     1      -0.065   2.118   0.639  0.00  0.00    +0.143 A 
ATOM     17  S   UNL     1       1.594   2.021   1.290  0.00  0.00    -0.077 S 
ATOM     18  C   UNL     1       1.591   0.291   1.732  0.00  0.00    +0.047 A 
ENDBRANCH  11  16
ENDBRANCH   5  11
ENDBRANCH   1   9
BRANCH   3  19
ATOM     19  C   UNL     1       0.131   7.035   6.374  0.00  0.00    +0.055 A 
ATOM     20  C   UNL     1       0.039   8.350   5.957  0.00  0.00    +0.038 A 
ATOM     21  C   UNL     1       0.641   9.362   6.710  0.00  0.00    +0.038 A 
ATOM     22  C   UNL     1       1.343   9.041   7.875  0.00  0.00    +0.015 A 
ATOM     23  C   UNL     1       1.438   7.729   8.284  0.00  0.00    +0.026 A 
ATOM     24  C   UNL     1       0.835   6.721   7.540  0.00  0.00    +0.051 A 
BRANCH  24  25
ATOM     25  N   UNL     1       0.932   5.396   7.957  0.00  0.00    -0.328 N 
ATOM     26  C   UNL     1       0.257   5.199   9.246  0.00  0.00    +0.105 C 
ATOM     27  C   UNL     1       0.258   3.711   9.601  0.00  0.00    +0.019 C 
ATOM     28  C   UNL     1       1.703   3.210   9.680  0.00  0.00    +0.003 C 
ATOM     29  C   UNL     1       2.398   3.471   8.341  0.00  0.00    +0.019 C 
ATOM     30  C   UNL     1       2.335   4.967   8.022  0.00  0.00    +0.105 C 
ENDBRANCH  24  25
BRANCH  21  31
ATOM     31  C   UNL     1       0.540  10.768   6.272  0.00  0.00    +0.242 C 
ATOM     32  O   UNL     1      -0.072  11.046   5.259  0.00  0.00    -0.270 OA
ATOM     33  N   UNL     1       1.125  11.742   6.996  0.00  0.00    -0.325 N 
ATOM     34  H   UNL     1       1.050  12.790   6.669  0.00  0.00    +0.145 HD
ATOM     35  H   UNL     1       1.679  11.490   7.912  0.00  0.00    +0.145 HD
ENDBRANCH  21  31
ENDBRANCH   3  19
TORSDOF 6
