REMARK  Name = ZINC40232071
REMARK  3 active torsions:
REMARK  status: ('A' for Active; 'I' for Inactive)
REMARK    1  A    between atoms: C_5  and  C_6
REMARK    2  A    between atoms: N_8  and  C_9
REMARK    3  A    between atoms: C_11  and  C_17
REMARK                            x       y       z     vdW  Elec       q    Type
REMARK                         _______ _______ _______ _____ _____    ______ ____
ROOT
ATOM      1  C   UNL     1      -1.929  -3.208   0.095  0.00  0.00    +0.070 A 
ATOM      2  C   UNL     1      -3.246  -2.784   0.098  0.00  0.00    +0.042 A 
ATOM      3  C   UNL     1      -4.277  -3.721   0.194  0.00  0.00    +0.074 A 
ATOM      4  C   UNL     1      -3.972  -5.083   0.285  0.00  0.00    +0.138 A 
ATOM      5  C   UNL     1      -2.653  -5.496   0.280  0.00  0.00    +0.079 A 
ATOM      6  C   UNL     1      -1.633  -4.566   0.180  0.00  0.00    +0.147 A 
ATOM      7  F   UNL     1      -0.346  -4.977   0.171  0.00  0.00    -0.203 F 
ATOM      8  F   UNL     1      -4.965  -5.994   0.378  0.00  0.00    -0.205 F 
ENDROOT
BRANCH   3   9
ATOM      9  C   UNL     1      -5.684  -3.276   0.199  0.00  0.00    +0.244 C 
ATOM     10  O   UNL     1      -6.580  -4.093   0.282  0.00  0.00    -0.270 OA
ATOM     11  N   UNL     1      -5.976  -1.963   0.111  0.00  0.00    -0.325 N 
ATOM     12  H   UNL     1      -5.261  -1.310   0.045  0.00  0.00    +0.145 HD
ATOM     13  H   UNL     1      -6.901  -1.670   0.114  0.00  0.00    +0.145 HD
ENDBRANCH   3   9
BRANCH   1  16
ATOM     14  C   UNL     1      -1.021  -1.061   0.580  0.00  0.00    +0.255 C 
ATOM     15  O   UNL     1      -2.068  -0.753   1.119  0.00  0.00    -0.269 OA
ATOM     16  N   UNL     1      -0.892  -2.270  -0.001  0.00  0.00    -0.279 N 
ATOM     17  H   UNL     1      -0.082  -2.492  -0.486  0.00  0.00    +0.155 HD
BRANCH  14  22
ATOM     18  C   UNL     1       0.174   1.160   1.099  0.00  0.00    +0.022 A 
ATOM     19  C   UNL     1       1.372   1.810   0.925  0.00  0.00    +0.024 A 
ATOM     20  C   UNL     1       2.375   1.180   0.263  0.00  0.00    +0.056 A 
ATOM     21  S   UNL     1       1.723  -0.314  -0.145  0.00  0.00    -0.077 S 
ATOM     22  C   UNL     1       0.100  -0.118   0.565  0.00  0.00    +0.075 A 
ATOM     23 BR   UNL     1       4.108   1.834  -0.116  0.00  0.00    -0.043 Br
ENDBRANCH  14  22
ENDBRANCH   1  16
TORSDOF 3
