REMARK  Name = ZINC08881799
REMARK  11 active torsions:
REMARK  status: ('A' for Active; 'I' for Inactive)
REMARK    1  A    between atoms: C_1  and  C_2
REMARK    2  A    between atoms: N_5  and  S_11
REMARK    3  A    between atoms: C_7  and  C_10
REMARK    4  A    between atoms: S_11  and  C_14
REMARK    5  A    between atoms: C_17  and  C_20
REMARK    6  A    between atoms: N_22  and  C_23
REMARK    7  A    between atoms: C_24  and  C_35
REMARK    8  A    between atoms: C_28  and  C_33
REMARK    9  A    between atoms: C_28  and  C_34
REMARK   10  A    between atoms: C_29  and  C_31
REMARK   11  A    between atoms: C_29  and  C_32
REMARK                            x       y       z     vdW  Elec       q    Type
REMARK                         _______ _______ _______ _____ _____    ______ ____
ROOT
ATOM      1  C   UNL     1       1.805  -1.833  -6.338  0.00  0.00    +0.249 C 
ATOM      2  O   UNL     1       1.074  -2.144  -7.259  0.00  0.00    -0.270 OA
ATOM      3  N   UNL     1       3.006  -2.429  -6.202  0.00  0.00    -0.275 N 
ATOM      4  H   UNL     1       3.590  -2.182  -5.468  0.00  0.00    +0.156 HD
ENDROOT
BRANCH   3   5
ATOM      5  C   UNL     1       3.408  -3.396  -7.111  0.00  0.00    +0.090 A 
ATOM      6  C   UNL     1       4.598  -4.114  -7.136  0.00  0.00    +0.084 A 
ATOM      7  C   UNL     1       4.771  -5.077  -8.201  0.00  0.00    -0.021 A 
ATOM      8  C   UNL     1       3.741  -5.170  -9.077  0.00  0.00    -0.015 A 
ATOM      9  S   UNL     1       2.551  -4.000  -8.491  0.00  0.00    -0.078 S 
ATOM     10  C   UNL     1       3.666  -6.067 -10.269  0.00  0.00    -0.041 C 
ATOM     11  C   UNL     1       5.486  -7.274  -9.058  0.00  0.00    -0.069 C 
ATOM     12  C   UNL     1       5.982  -5.976  -8.408  0.00  0.00    +0.024 C 
ATOM     13  C   UNL     1       4.612  -8.037  -8.059  0.00  0.00    -0.010 C 
ATOM     14  C   UNL     1       6.717  -8.146  -9.370  0.00  0.00    -0.010 C 
ATOM     15  C   UNL     1       2.319  -6.804 -10.267  0.00  0.00    -0.005 C 
ATOM     16  C   UNL     1       3.728  -5.195 -11.537  0.00  0.00    -0.005 C 
ATOM     17  N   UNL     1       4.782  -7.053 -10.347  0.00  0.00    +0.389 N 
ATOM     18  H   UNL     1       5.466  -6.713 -11.034  0.00  0.00    -0.084 HD
ATOM     19  H   UNL     1       4.398  -7.952 -10.663  0.00  0.00    -0.084 HD
BRANCH   6  20
ATOM     20  C   UNL     1       5.605  -3.898  -6.141  0.00  0.00    +0.102 C 
ATOM     21  N   UNL     1       6.404  -3.726  -5.352  0.00  0.00    -0.191 NA
ENDBRANCH   6  20
ENDBRANCH   3   5
BRANCH   1  25
ATOM     22  C   UNL     1       0.576   1.129  -3.554  0.00  0.00    +0.106 A 
ATOM     23  C   UNL     1       1.812   0.523  -3.414  0.00  0.00    +0.029 A 
ATOM     24  C   UNL     1       2.215  -0.444  -4.312  0.00  0.00    +0.015 A 
ATOM     25  C   UNL     1       1.377  -0.803  -5.369  0.00  0.00    +0.037 A 
ATOM     26  C   UNL     1       0.134  -0.184  -5.508  0.00  0.00    +0.015 A 
ATOM     27  C   UNL     1      -0.260   0.777  -4.600  0.00  0.00    +0.029 A 
BRANCH  22  28
ATOM     28  S   UNL     1       0.066   2.357  -2.399  0.00  0.00    +0.061 S 
ATOM     29  O   UNL     1      -0.896   3.165  -3.063  0.00  0.00    -0.153 OA
ATOM     30  O   UNL     1       1.251   2.897  -1.830  0.00  0.00    -0.153 OA
BRANCH  28  34
ATOM     31  C   UNL     1      -4.289   1.452   0.112  0.00  0.00    +0.039 C 
ATOM     32  C   UNL     1      -2.811   1.844   0.072  0.00  0.00    +0.131 C 
ATOM     33  C   UNL     1      -2.188   1.357  -1.242  0.00  0.00    +0.140 C 
ATOM     34  N   UNL     1      -0.734   1.578  -1.176  0.00  0.00    -0.172 NA
ATOM     35  C   UNL     1      -0.013   1.086   0.008  0.00  0.00    +0.140 C 
ATOM     36  C   UNL     1      -0.741   1.585   1.261  0.00  0.00    +0.131 C 
ATOM     37  O   UNL     1      -2.125   1.238   1.170  0.00  0.00    -0.371 OA
ATOM     38  C   UNL     1      -0.129   0.932   2.502  0.00  0.00    +0.039 C 
ENDBRANCH  28  34
ENDBRANCH  22  28
ENDBRANCH   1  25
TORSDOF 5
