REMARK  Name = ZINC09425251
REMARK  9 active torsions:
REMARK  status: ('A' for Active; 'I' for Inactive)
REMARK    1  A    between atoms: C_1  and  C_2
REMARK    2  A    between atoms: C_3  and  C_36
REMARK    3  A    between atoms: C_8  and  C_27
REMARK    4  A    between atoms: C_10  and  C_11
REMARK    5  A    between atoms: C_11  and  C_12
REMARK    6  A    between atoms: C_30  and  C_33
REMARK    7  A    between atoms: C_33  and  C_34
REMARK    8  A    between atoms: C_33  and  C_35
REMARK    9  A    between atoms: C_36  and  C_38
REMARK                            x       y       z     vdW  Elec       q    Type
REMARK                         _______ _______ _______ _____ _____    ______ ____
ROOT
ATOM      1  C   UNL     1      -1.881   2.164   1.506  0.00  0.00    +0.067 C 
ATOM      2  C   UNL     1      -1.385   0.794   1.121  0.00  0.00    +0.058 A 
ATOM      3  C   UNL     1      -1.171   0.436  -0.209  0.00  0.00    +0.078 A 
ATOM      4  S   UNL     1      -0.608  -1.247  -0.009  0.00  0.00    -0.049 S 
ATOM      5  C   UNL     1      -0.697  -1.325   1.669  0.00  0.00    +0.169 A 
ATOM      6  N   UNL     1      -1.126  -0.123   2.015  0.00  0.00    -0.229 NA
ATOM      7  N   UNL     1      -0.388  -2.390   2.492  0.00  0.00    -0.232 N 
ATOM      8  C   UNL     1      -0.489  -2.408   3.956  0.00  0.00    +0.152 C 
ATOM      9  C   UNL     1      -0.045  -3.786   4.391  0.00  0.00    +0.077 C 
ATOM     10  C   UNL     1       0.272  -4.468   3.265  0.00  0.00    +0.250 C 
ATOM     11  O   UNL     1       0.716  -5.745   3.221  0.00  0.00    -0.282 OA
ATOM     12  C   UNL     1       0.052  -3.597   2.092  0.00  0.00    +0.293 C 
ATOM     13  O   UNL     1       0.242  -3.923   0.937  0.00  0.00    -0.266 OA
ENDROOT
BRANCH   8  14
ATOM     14  C   UNL     1      -1.914  -2.165   4.381  0.00  0.00    -0.022 A 
ATOM     15  C   UNL     1      -2.951  -2.790   3.713  0.00  0.00    +0.006 A 
ATOM     16  C   UNL     1      -4.258  -2.566   4.103  0.00  0.00    +0.004 A 
ATOM     17  C   UNL     1      -4.529  -1.718   5.160  0.00  0.00    -0.045 A 
ATOM     18  C   UNL     1      -3.492  -1.093   5.828  0.00  0.00    +0.004 A 
ATOM     19  C   UNL     1      -2.184  -1.320   5.441  0.00  0.00    +0.006 A 
BRANCH  17  20
ATOM     20  C   UNL     1      -5.954  -1.473   5.584  0.00  0.00    +0.013 C 
ATOM     21  C   UNL     1      -6.135  -1.911   7.039  0.00  0.00    +0.012 C 
ATOM     22  C   UNL     1      -6.276   0.017   5.456  0.00  0.00    +0.012 C 
ENDBRANCH  17  20
ENDBRANCH   8  14
BRANCH   3  23
ATOM     23  C   UNL     1      -1.349   1.192  -1.385  0.00  0.00    +0.168 C 
ATOM     24  O   UNL     1      -1.747   2.338  -1.316  0.00  0.00    -0.292 OA
ATOM     25  C   UNL     1      -1.048   0.579  -2.728  0.00  0.00    +0.092 C 
ENDBRANCH   3  23
BRANCH   9  26
ATOM     26  C   UNL     1       0.027  -4.287   5.767  0.00  0.00    +0.195 C 
ATOM     27  O   UNL     1      -0.686  -5.209   6.117  0.00  0.00    -0.287 OA
BRANCH  26  28
ATOM     28  C   UNL     1       0.965  -3.674   6.728  0.00  0.00    +0.026 A 
ATOM     29  C   UNL     1       1.864  -2.691   6.301  0.00  0.00    +0.015 A 
ATOM     30  C   UNL     1       2.738  -2.122   7.199  0.00  0.00    +0.050 A 
ATOM     31  C   UNL     1       2.731  -2.519   8.531  0.00  0.00    +0.162 A 
ATOM     32  C   UNL     1       1.837  -3.496   8.964  0.00  0.00    +0.163 A 
ATOM     33  C   UNL     1       0.954  -4.069   8.068  0.00  0.00    +0.061 A 
ATOM     34  O   UNL     1       1.813  -3.890  10.267  0.00  0.00    -0.485 OA
ATOM     35  C   UNL     1       2.958  -3.559  11.060  0.00  0.00    +0.270 C 
ATOM     36  C   UNL     1       3.319  -2.091  10.794  0.00  0.00    +0.270 C 
ATOM     37  O   UNL     1       3.606  -1.946   9.400  0.00  0.00    -0.485 OA
ENDBRANCH  26  28
ENDBRANCH   9  26
TORSDOF 5
