REMARK  Name = ZINC09406911
REMARK  6 active torsions:
REMARK  status: ('A' for Active; 'I' for Inactive)
REMARK    1  A    between atoms: C_1  and  C_2
REMARK    2  A    between atoms: C_7  and  N_8
REMARK    3  A    between atoms: C_9  and  C_11
REMARK    4  A    between atoms: N_16  and  S_18
REMARK    5  A    between atoms: S_18  and  C_21
REMARK    6  A    between atoms: C_28  and  C_31
REMARK                            x       y       z     vdW  Elec       q    Type
REMARK                         _______ _______ _______ _____ _____    ______ ____
ROOT
ATOM      1  S   UNL     1       9.769   1.843  -0.502  0.00  0.00    +0.061 S 
ATOM      2  O   UNL     1      10.909   2.231   0.251  0.00  0.00    -0.153 OA
ATOM      3  O   UNL     1       9.648   0.556  -1.093  0.00  0.00    -0.153 OA
ENDROOT
BRANCH   1   4
ATOM      4  C   UNL     1       9.605   3.014  -1.808  0.00  0.00    +0.108 A 
ATOM      5  C   UNL     1      10.153   4.282  -1.666  0.00  0.00    +0.030 A 
ATOM      6  C   UNL     1      10.035   5.211  -2.678  0.00  0.00    +0.030 A 
ATOM      7  C   UNL     1       9.365   4.876  -3.846  0.00  0.00    +0.067 A 
ATOM      8  C   UNL     1       8.810   3.591  -3.990  0.00  0.00    +0.091 A 
ATOM      9  C   UNL     1       8.947   2.664  -2.952  0.00  0.00    +0.058 A 
ATOM     10  N   UNL     1       8.224   3.543  -5.211  0.00  0.00    -0.228 NA
ATOM     11  C   UNL     1       8.378   4.694  -5.819  0.00  0.00    +0.139 A 
ATOM     12  N   UNL     1       9.078   5.553  -5.016  0.00  0.00    -0.338 N 
ATOM     13  H   UNL     1       9.334   6.494  -5.234  0.00  0.00    +0.167 HD
BRANCH  11  14
ATOM     14  C   UNL     1       7.872   5.016  -7.171  0.00  0.00    +0.017 A 
ATOM     15  C   UNL     1       8.090   6.281  -7.718  0.00  0.00    +0.011 A 
ATOM     16  C   UNL     1       7.620   6.573  -8.982  0.00  0.00    +0.001 A 
ATOM     17  C   UNL     1       6.923   5.619  -9.702  0.00  0.00    +0.000 A 
ATOM     18  C   UNL     1       6.698   4.365  -9.163  0.00  0.00    +0.001 A 
ATOM     19  C   UNL     1       7.168   4.058  -7.902  0.00  0.00    +0.011 A 
ENDBRANCH  11  14
ENDBRANCH   1   4
BRANCH   1  24
ATOM     20  C   UNL     1       6.048   2.244   0.173  0.00  0.00    +0.091 C 
ATOM     21  C   UNL     1       6.019   3.114   1.432  0.00  0.00    +0.015 C 
ATOM     22  C   UNL     1       7.314   3.925   1.523  0.00  0.00    +0.018 C 
ATOM     23  C   UNL     1       8.506   2.967   1.624  0.00  0.00    +0.109 C 
ATOM     24  N   UNL     1       8.458   2.032   0.492  0.00  0.00    -0.176 NA
ATOM     25  C   UNL     1       7.225   1.268   0.259  0.00  0.00    +0.122 C 
BRANCH  20  27
ATOM     26  N   UNL     1       3.585   2.126  -0.020  0.00  0.00    -0.285 N 
ATOM     27  C   UNL     1       4.759   1.470   0.067  0.00  0.00    +0.222 C 
ATOM     28  O   UNL     1       4.778   0.258   0.061  0.00  0.00    -0.275 OA
ATOM     29  H   UNL     1       3.574   3.093  -0.096  0.00  0.00    +0.155 HD
BRANCH  26  36
ATOM     30  C   UNL     1       1.302   3.307  -1.240  0.00  0.00    +0.046 C 
ATOM     31  C   UNL     1       1.243   1.951  -0.586  0.00  0.00    -0.027 A 
ATOM     32  C   UNL     1       0.056   1.245  -0.566  0.00  0.00    +0.043 A 
ATOM     33  C   UNL     1       0.001  -0.001   0.035  0.00  0.00    +0.124 A 
ATOM     34  C   UNL     1       1.135  -0.542   0.618  0.00  0.00    +0.040 A 
ATOM     35  C   UNL     1       2.323   0.161   0.600  0.00  0.00    +0.026 A 
ATOM     36  C   UNL     1       2.381   1.411  -0.002  0.00  0.00    +0.036 A 
ATOM     37  F   UNL     1      -1.161  -0.691   0.053  0.00  0.00    -0.205 F 
ENDBRANCH  26  36
ENDBRANCH  20  27
ENDBRANCH   1  24
TORSDOF 5
