REMARK  Name = ZINC12152624
REMARK  8 active torsions:
REMARK  status: ('A' for Active; 'I' for Inactive)
REMARK    1  A    between atoms: C_1  and  C_2
REMARK    2  A    between atoms: C_7  and  C_8
REMARK    3  A    between atoms: C_8  and  C_10
REMARK    4  A    between atoms: C_8  and  N_67
REMARK    5  A    between atoms: C_16  and  N_67
REMARK    6  A    between atoms: N_19  and  C_22
REMARK    7  A    between atoms: C_25  and  N_28
REMARK    8  A    between atoms: C_29  and  C_31
REMARK                            x       y       z     vdW  Elec       q    Type
REMARK                         _______ _______ _______ _____ _____    ______ ____
ROOT
ATOM      1  C   UNL     1      -8.629  -5.576  -1.515  0.00  0.00    -0.068 C 
ATOM      2  C   UNL     1      -8.562  -4.588  -0.347  0.00  0.00    +0.003 C 
ATOM      3  C   UNL     1      -7.236  -3.826  -0.404  0.00  0.00    +0.103 C 
ATOM      4  N   UNL     1      -6.120  -4.778  -0.328  0.00  0.00    -0.330 N 
ATOM      5  C   UNL     1      -6.136  -5.707  -1.464  0.00  0.00    +0.103 C 
ATOM      6  C   UNL     1      -7.429  -6.524  -1.439  0.00  0.00    +0.003 C 
ENDROOT
BRANCH   4   7
ATOM      7  C   UNL     1      -4.895  -4.108  -0.244  0.00  0.00    +0.030 A 
ATOM      8  C   UNL     1      -3.712  -4.831  -0.163  0.00  0.00    +0.025 A 
ATOM      9  C   UNL     1      -2.503  -4.170  -0.082  0.00  0.00    +0.025 A 
ATOM     10  C   UNL     1      -2.469  -2.782  -0.081  0.00  0.00    +0.034 A 
ATOM     11  C   UNL     1      -3.652  -2.058  -0.156  0.00  0.00    +0.025 A 
ATOM     12  C   UNL     1      -4.861  -2.719  -0.243  0.00  0.00    +0.025 A 
BRANCH  10  13
ATOM     13  N   UNL     1      -1.242  -2.111   0.002  0.00  0.00    -0.281 N 
ATOM     14  C   UNL     1      -0.150  -2.627  -0.596  0.00  0.00    +0.251 C 
ATOM     15  O   UNL     1      -0.210  -3.715  -1.135  0.00  0.00    -0.270 OA
ATOM     16  H   UNL     1      -1.178  -1.275   0.490  0.00  0.00    +0.155 HD
BRANCH  14  17
ATOM     17  C   UNL     1       1.118  -1.871  -0.596  0.00  0.00    +0.072 A 
ATOM     18  C   UNL     1       1.191  -0.621   0.022  0.00  0.00    +0.016 A 
ATOM     19  C   UNL     1       2.378   0.079   0.019  0.00  0.00    +0.001 A 
ATOM     20  C   UNL     1       3.499  -0.453  -0.596  0.00  0.00    +0.003 A 
ATOM     21  C   UNL     1       3.438  -1.689  -1.211  0.00  0.00    +0.039 A 
ATOM     22  C   UNL     1       2.253  -2.404  -1.216  0.00  0.00    +0.135 A 
ATOM     23  F   UNL     1       2.195  -3.614  -1.812  0.00  0.00    -0.205 F 
ENDBRANCH  14  17
ENDBRANCH  10  13
ENDBRANCH   4   7
BRANCH   1  24
ATOM     24  N   UNL     1      -9.879  -6.353  -1.423  0.00  0.00    +0.388 N 
ATOM     25  H   UNL     1      -9.736  -7.151  -0.793  0.00  0.00    -0.084 HD
ATOM     26  H   UNL     1     -10.624  -5.752  -1.050  0.00  0.00    -0.084 HD
BRANCH  24  27
ATOM     27  C   UNL     1     -10.274  -6.848  -2.755  0.00  0.00    -0.009 C 
BRANCH  27  34
ATOM     28  C   UNL     1     -11.678  -6.980  -5.276  0.00  0.00    +0.044 C 
ATOM     29  C   UNL     1     -12.435  -7.141  -3.983  0.00  0.00    -0.049 A 
ATOM     30  C   UNL     1     -13.801  -7.351  -4.003  0.00  0.00    +0.003 A 
ATOM     31  C   UNL     1     -14.495  -7.499  -2.816  0.00  0.00    +0.000 A 
ATOM     32  C   UNL     1     -13.822  -7.436  -1.610  0.00  0.00    +0.000 A 
ATOM     33  C   UNL     1     -12.456  -7.230  -1.590  0.00  0.00    +0.002 A 
ATOM     34  C   UNL     1     -11.763  -7.077  -2.777  0.00  0.00    -0.054 A 
ENDBRANCH  27  34
BRANCH  27  35
ATOM     35  C   UNL     1      -9.561  -8.145  -3.041  0.00  0.00    -0.054 A 
ATOM     36  C   UNL     1      -9.382  -9.091  -2.043  0.00  0.00    +0.022 A 
ATOM     37  C   UNL     1      -8.728 -10.271  -2.343  0.00  0.00    +0.111 A 
ATOM     38  N   UNL     1      -8.268 -10.497  -3.558  0.00  0.00    -0.263 NA
ATOM     39  C   UNL     1      -8.416  -9.618  -4.530  0.00  0.00    +0.111 A 
ATOM     40  C   UNL     1      -9.064  -8.418  -4.306  0.00  0.00    +0.022 A 
ENDBRANCH  27  35
ENDBRANCH  24  27
ENDBRANCH   1  24
TORSDOF 7
