REMARK  Name = ZINC39881451
REMARK  5 active torsions:
REMARK  status: ('A' for Active; 'I' for Inactive)
REMARK    1  A    between atoms: C_1  and  C_2
REMARK    2  A    between atoms: N_12  and  C_15
REMARK    3  A    between atoms: C_18  and  C_21
REMARK    4  A    between atoms: N_23  and  C_24
REMARK    5  A    between atoms: C_26  and  C_31
REMARK                            x       y       z     vdW  Elec       q    Type
REMARK                         _______ _______ _______ _____ _____    ______ ____
ROOT
ATOM      1  C   UNL     1       0.145  -4.532   4.777  0.00  0.00    +0.035 A 
ATOM      2  C   UNL     1       0.193  -3.173   5.073  0.00  0.00    +0.024 A 
ATOM      3  C   UNL     1       0.173  -2.751   6.383  0.00  0.00    +0.015 A 
ATOM      4  C   UNL     1       0.103  -3.689   7.417  0.00  0.00    +0.037 A 
ATOM      5  C   UNL     1       0.054  -5.053   7.117  0.00  0.00    +0.015 A 
ATOM      6  C   UNL     1       0.070  -5.469   5.805  0.00  0.00    +0.024 A 
ENDROOT
BRANCH   1  18
ATOM      7  C   UNL     1       6.315  -1.749   1.137  0.00  0.00    +0.044 C 
ATOM      8  C   UNL     1       5.101  -2.611   0.905  0.00  0.00    -0.048 A 
ATOM      9  C   UNL     1       4.885  -3.166  -0.354  0.00  0.00    +0.004 A 
ATOM     10  C   UNL     1       3.796  -3.948  -0.594  0.00  0.00    +0.010 A 
ATOM     11  C   UNL     1       2.880  -4.198   0.439  0.00  0.00    -0.001 A 
ATOM     12  C   UNL     1       1.741  -5.002   0.234  0.00  0.00    +0.017 A 
ATOM     13  C   UNL     1       0.894  -5.203   1.281  0.00  0.00    -0.007 A 
ATOM     14  C   UNL     1       1.151  -4.624   2.530  0.00  0.00    +0.107 A 
ATOM     15  N   UNL     1       2.229  -3.870   2.707  0.00  0.00    -0.342 N 
ATOM     16  C   UNL     1       3.096  -3.635   1.720  0.00  0.00    +0.048 A 
ATOM     17  C   UNL     1       4.235  -2.837   1.931  0.00  0.00    +0.029 A 
ATOM     18  N   UNL     1       0.167  -4.956   3.452  0.00  0.00    -0.286 N 
ATOM     19  C   UNL     1      -0.845  -5.814   2.833  0.00  0.00    +0.117 C 
ATOM     20  C   UNL     1      -0.387  -6.000   1.377  0.00  0.00    +0.058 C 
ATOM     21  H   UNL     1       2.390  -3.477   3.580  0.00  0.00    +0.167 HD
ENDBRANCH   1  18
BRANCH   4  22
ATOM     22  C   UNL     1       0.081  -3.240   8.822  0.00  0.00    +0.248 C 
ATOM     23  O   UNL     1       0.124  -2.052   9.082  0.00  0.00    -0.270 OA
ATOM     24  N   UNL     1       0.014  -4.145   9.818  0.00  0.00    -0.280 N 
ATOM     25  H   UNL     1       0.037  -5.093   9.614  0.00  0.00    +0.155 HD
BRANCH  24  26
ATOM     26  C   UNL     1      -0.089  -3.718  11.146  0.00  0.00    +0.053 A 
ATOM     27  C   UNL     1       0.392  -2.469  11.515  0.00  0.00    +0.037 A 
ATOM     28  C   UNL     1       0.288  -2.050  12.827  0.00  0.00    +0.057 A 
ATOM     29  C   UNL     1      -0.295  -2.872  13.773  0.00  0.00    +0.014 A 
ATOM     30  C   UNL     1      -0.776  -4.117  13.410  0.00  0.00    +0.022 A 
ATOM     31  C   UNL     1      -0.680  -4.540  12.098  0.00  0.00    +0.062 A 
ATOM     32 CL   UNL     1      -1.290  -6.100  11.641  0.00  0.00    -0.082 Cl
BRANCH  28  33
ATOM     33  C   UNL     1       0.811  -0.694  13.227  0.00  0.00    +0.417 C 
ATOM     34  F   UNL     1      -0.205   0.257  13.088  0.00  0.00    -0.166 F 
ATOM     35  F   UNL     1       1.234  -0.733  14.560  0.00  0.00    -0.166 F 
ATOM     36  F   UNL     1       1.889  -0.349  12.405  0.00  0.00    -0.166 F 
ENDBRANCH  28  33
ENDBRANCH  24  26
ENDBRANCH   4  22
TORSDOF 4
