REMARK  Name = ZINC04150003
REMARK  11 active torsions:
REMARK  status: ('A' for Active; 'I' for Inactive)
REMARK    1  A    between atoms: C_1  and  C_2
REMARK    2  A    between atoms: N_9  and  S_10
REMARK    3  A    between atoms: S_10  and  C_13
REMARK    4  A    between atoms: C_21  and  C_41
REMARK    5  A    between atoms: C_24  and  O_40
REMARK    6  A    between atoms: C_26  and  C_30
REMARK    7  A    between atoms: C_30  and  C_32
REMARK    8  A    between atoms: C_30  and  C_33
REMARK    9  A    between atoms: N_35  and  C_36
REMARK   10  A    between atoms: N_35  and  C_37
REMARK   11  A    between atoms: C_37  and  C_38
REMARK                            x       y       z     vdW  Elec       q    Type
REMARK                         _______ _______ _______ _____ _____    ______ ____
ROOT
ATOM      1  C   UNL     1      -0.053   1.784   6.084  0.00  0.00    +0.014 C 
ATOM      2  C   UNL     1      -1.121   1.893   4.994  0.00  0.00    +0.042 C 
ATOM      3  C   UNL     1      -0.744   3.002   4.024  0.00  0.00    +0.057 A 
ATOM      4  C   UNL     1      -1.696   3.847   3.553  0.00  0.00    +0.015 A 
ATOM      5  S   UNL     1      -0.771   4.921   2.489  0.00  0.00    -0.056 S 
ATOM      6  C   UNL     1       0.782   4.182   2.737  0.00  0.00    +0.178 A 
ATOM      7  N   UNL     1       0.495   3.214   3.583  0.00  0.00    -0.228 NA
ATOM      8  N   UNL     1       2.009   4.526   2.190  0.00  0.00    -0.194 N 
ATOM      9  C   UNL     1      -3.149   3.849   3.873  0.00  0.00    +0.051 C 
ATOM     10  C   UNL     1      -3.515   2.517   4.556  0.00  0.00    -0.022 C 
ATOM     11  C   UNL     1      -2.477   2.211   5.638  0.00  0.00    +0.033 C 
ATOM     12  C   UNL     1      -2.903   0.980   6.444  0.00  0.00    +0.123 C 
ATOM     13  C   UNL     1      -4.274   1.208   7.077  0.00  0.00    +0.029 C 
ATOM     14  C   UNL     1      -5.298   1.444   5.962  0.00  0.00    +0.007 C 
ATOM     15  C   UNL     1      -4.899   2.699   5.187  0.00  0.00    +0.008 C 
ATOM     16  C   UNL     1      -3.557   1.392   3.520  0.00  0.00    +0.012 C 
ATOM     17  H   UNL     1       2.803   4.021   2.425  0.00  0.00    +0.176 HD
ENDROOT
BRANCH   8  18
ATOM     18  S   UNL     1       2.118   5.799   1.137  0.00  0.00    +0.074 S 
ATOM     19  O   UNL     1       1.091   5.616   0.171  0.00  0.00    -0.150 OA
ATOM     20  O   UNL     1       3.488   5.914   0.779  0.00  0.00    -0.150 OA
BRANCH  18  21
ATOM     21  C   UNL     1       1.708   7.257   2.038  0.00  0.00    +0.109 A 
ATOM     22  C   UNL     1       0.396   7.689   2.094  0.00  0.00    +0.030 A 
ATOM     23  C   UNL     1       0.073   8.829   2.805  0.00  0.00    +0.022 A 
ATOM     24  C   UNL     1       1.065   9.545   3.451  0.00  0.00    +0.041 A 
ATOM     25  C   UNL     1       2.379   9.116   3.389  0.00  0.00    +0.022 A 
ATOM     26  C   UNL     1       2.700   7.972   2.683  0.00  0.00    +0.030 A 
ATOM     27 CL   UNL     1       0.662  10.982   4.338  0.00  0.00    -0.084 Cl
ENDBRANCH  18  21
ENDBRANCH   8  18
BRANCH  13  28
ATOM     28  C   UNL     1      -4.220   2.433   7.992  0.00  0.00    +0.078 C 
ATOM     29  C   UNL     1      -3.307   2.139   9.184  0.00  0.00    +0.017 C 
BRANCH  28  30
ATOM     30  C   UNL     1      -5.607   2.751   8.488  0.00  0.00    +0.219 C 
ATOM     31  O   UNL     1      -6.445   1.876   8.549  0.00  0.00    -0.275 OA
ATOM     32  N   UNL     1      -5.917   4.007   8.865  0.00  0.00    -0.301 N 
ATOM     33  C   UNL     1      -4.883   5.045   8.874  0.00  0.00    +0.132 C 
BRANCH  32  34
ATOM     34  C   UNL     1      -7.287   4.335   9.266  0.00  0.00    +0.134 C 
BRANCH  34  35
ATOM     35  C   UNL     1      -7.441   4.122  10.750  0.00  0.00    -0.016 C 
ATOM     36  C   UNL     1      -7.875   5.096  11.510  0.00  0.00    +0.005 C 
ENDBRANCH  34  35
ENDBRANCH  32  34
ENDBRANCH  28  30
ENDBRANCH  13  28
BRANCH  12  37
ATOM     37  O   UNL     1      -1.943   0.734   7.473  0.00  0.00    -0.391 OA
ATOM     38  H   UNL     1      -2.140  -0.041   8.018  0.00  0.00    +0.210 HD
ENDBRANCH  12  37
TORSDOF 7
