REMARK  Name = ZINC16612386
REMARK  12 active torsions:
REMARK  status: ('A' for Active; 'I' for Inactive)
REMARK    1  A    between atoms: C_1  and  C_2
REMARK    2  A    between atoms: C_2  and  N_3
REMARK    3  A    between atoms: C_4  and  C_34
REMARK    4  A    between atoms: C_5  and  C_29
REMARK    5  A    between atoms: C_6  and  C_11
REMARK    6  A    between atoms: C_15  and  N_17
REMARK    7  A    between atoms: N_20  and  C_21
REMARK    8  A    between atoms: C_24  and  C_28
REMARK    9  A    between atoms: C_26  and  C_27
REMARK   10  A    between atoms: C_29  and  O_31
REMARK   11  A    between atoms: O_31  and  C_32
REMARK   12  A    between atoms: C_32  and  C_33
REMARK                            x       y       z     vdW  Elec       q    Type
REMARK                         _______ _______ _______ _____ _____    ______ ____
ROOT
ATOM      1  C   UNL     1       1.615   4.351   1.217  0.00  0.00    -0.021 A 
ATOM      2  C   UNL     1       1.558   3.674   2.422  0.00  0.00    +0.006 A 
ATOM      3  C   UNL     1       2.191   4.189   3.538  0.00  0.00    +0.002 A 
ATOM      4  C   UNL     1       2.883   5.381   3.453  0.00  0.00    +0.023 A 
ATOM      5  C   UNL     1       2.943   6.063   2.245  0.00  0.00    +0.035 A 
ATOM      6  C   UNL     1       2.310   5.541   1.125  0.00  0.00    +0.029 A 
ENDROOT
BRANCH   1  10
ATOM      7  N   UNL     1      -1.202   2.017   0.007  0.00  0.00    -0.286 N 
ATOM      8  C   UNL     1      -1.492   3.350   0.015  0.00  0.00    +0.021 C 
ATOM      9  C   UNL     1      -0.510   4.278   0.011  0.00  0.00    +0.078 C 
ATOM     10  C   UNL     1       0.923   3.787   0.003  0.00  0.00    +0.141 C 
ATOM     11  N   UNL     1       1.129   2.329  -0.000  0.00  0.00    -0.315 N 
ATOM     12  C   UNL     1       0.045   1.528   0.005  0.00  0.00    +0.138 C 
ATOM     13  S   UNL     1       0.269  -0.169   0.001  0.00  0.00    -0.018 S 
ATOM     14  C   UNL     1      -2.932   3.795   0.024  0.00  0.00    +0.061 C 
ATOM     15  H   UNL     1       2.023   1.954  -0.006  0.00  0.00    +0.149 HD
BRANCH   7  17
ATOM     16  C   UNL     1      -2.787   0.832   1.443  0.00  0.00    +0.025 C 
ATOM     17  C   UNL     1      -2.317   1.067   0.006  0.00  0.00    +0.109 C 
ENDBRANCH   7  17
BRANCH   9  18
ATOM     18  C   UNL     1      -0.810   5.660   0.015  0.00  0.00    +0.339 C 
ATOM     19  O   UNL     1      -1.965   6.032  -0.067  0.00  0.00    -0.245 OA
BRANCH  18  20
ATOM     20  O   UNL     1       0.186   6.566   0.110  0.00  0.00    -0.462 OA
BRANCH  20  21
ATOM     21  C   UNL     1      -0.189   7.945   0.107  0.00  0.00    +0.229 C 
ATOM     22  C   UNL     1       1.065   8.815   0.221  0.00  0.00    +0.048 C 
ENDBRANCH  20  21
ENDBRANCH  18  20
ENDBRANCH   9  18
ENDBRANCH   1  10
BRANCH   5  23
ATOM     23  N   UNL     1       3.643   7.271   2.156  0.00  0.00    -0.269 N 
ATOM     24  C   UNL     1       3.653   8.123   3.200  0.00  0.00    +0.308 C 
ATOM     25  O   UNL     1       3.123   7.807   4.248  0.00  0.00    -0.252 OA
ATOM     26  N   UNL     1       4.250   9.326   3.083  0.00  0.00    -0.269 N 
ATOM     27  H   UNL     1       4.122   7.495   1.343  0.00  0.00    +0.156 HD
ATOM     28  H   UNL     1       4.622   9.602   2.231  0.00  0.00    +0.156 HD
BRANCH  26  29
ATOM     29  C   UNL     1       4.333  10.177   4.191  0.00  0.00    +0.038 A 
ATOM     30  C   UNL     1       3.402  10.077   5.217  0.00  0.00    +0.024 A 
ATOM     31  C   UNL     1       3.487  10.918   6.308  0.00  0.00    +0.005 A 
ATOM     32  C   UNL     1       4.497  11.859   6.381  0.00  0.00    -0.050 A 
ATOM     33  C   UNL     1       5.425  11.962   5.362  0.00  0.00    +0.008 A 
ATOM     34  C   UNL     1       5.349  11.120   4.269  0.00  0.00    -0.029 A 
ATOM     35  C   UNL     1       6.365  11.227   3.162  0.00  0.00    +0.045 C 
ATOM     36  C   UNL     1       4.586  12.776   7.574  0.00  0.00    +0.044 C 
ENDBRANCH  26  29
ENDBRANCH   5  23
TORSDOF 7
