REMARK  Name = ZINC48752580
REMARK  9 active torsions:
REMARK  status: ('A' for Active; 'I' for Inactive)
REMARK    1  A    between atoms: C_1  and  N_2
REMARK    2  A    between atoms: N_2  and  C_3
REMARK    3  A    between atoms: N_2  and  C_4
REMARK    4  A    between atoms: C_4  and  C_9
REMARK    5  A    between atoms: C_9  and  N_10
REMARK    6  A    between atoms: C_11  and  C_13
REMARK    7  A    between atoms: N_15  and  C_16
REMARK    8  A    between atoms: C_19  and  C_22
REMARK    9  A    between atoms: N_24  and  C_25
REMARK                            x       y       z     vdW  Elec       q    Type
REMARK                         _______ _______ _______ _____ _____    ______ ____
ROOT
ATOM      1  C   UNL     1       3.100   3.526   2.172  0.00  0.00    +0.303 C 
ATOM      2  O   UNL     1       2.033   4.103   2.180  0.00  0.00    -0.265 OA
ATOM      3  N   UNL     1       4.238   4.210   2.405  0.00  0.00    -0.278 N 
ATOM      4  H   UNL     1       5.096   3.764   2.327  0.00  0.00    +0.155 HD
ENDROOT
BRANCH   3   5
ATOM      5  C   UNL     1       4.182   5.556   2.758  0.00  0.00    +0.034 A 
ATOM      6  C   UNL     1       3.120   6.029   3.524  0.00  0.00    +0.024 A 
ATOM      7  C   UNL     1       3.062   7.359   3.874  0.00  0.00    +0.015 A 
ATOM      8  C   UNL     1       4.070   8.234   3.461  0.00  0.00    +0.037 A 
ATOM      9  C   UNL     1       5.134   7.756   2.693  0.00  0.00    +0.015 A 
ATOM     10  C   UNL     1       5.190   6.424   2.349  0.00  0.00    +0.024 A 
BRANCH   8  11
ATOM     11  C   UNL     1       4.010   9.661   3.835  0.00  0.00    +0.244 C 
ATOM     12  O   UNL     1       3.082  10.075   4.503  0.00  0.00    -0.270 OA
ATOM     13  N   UNL     1       4.982  10.503   3.435  0.00  0.00    -0.308 N 
ATOM     14  H   UNL     1       5.722  10.172   2.902  0.00  0.00    +0.149 HD
BRANCH  13  15
ATOM     15  C   UNL     1       4.923  11.919   3.806  0.00  0.00    +0.073 C 
ATOM     16  C   UNL     1       5.255  12.948   2.724  0.00  0.00    +0.024 C 
ATOM     17  C   UNL     1       6.243  12.691   3.863  0.00  0.00    +0.024 C 
ENDBRANCH  13  15
ENDBRANCH   8  11
ENDBRANCH   3   5
BRANCH   1  19
ATOM     18  N   UNL     1       2.015   1.374   1.670  0.00  0.00    -0.309 N 
ATOM     19  C   UNL     1       3.153   2.058   1.903  0.00  0.00    +0.299 C 
ATOM     20  O   UNL     1       4.221   1.480   1.895  0.00  0.00    -0.265 OA
ATOM     21  H   UNL     1       1.162   1.835   1.676  0.00  0.00    +0.149 HD
BRANCH  18  22
ATOM     22  C   UNL     1       2.067  -0.066   1.406  0.00  0.00    +0.093 C 
BRANCH  22  23
ATOM     23  C   UNL     1       0.644  -0.615   1.290  0.00  0.00    -0.050 C 
ATOM     24  C   UNL     1      -0.110  -0.418   2.622  0.00  0.00    -0.010 C 
ATOM     25  C   UNL     1      -0.979  -1.692   2.759  0.00  0.00    -0.001 C 
ATOM     26  C   UNL     1      -0.048  -2.802   2.209  0.00  0.00    -0.001 C 
ATOM     27  C   UNL     1       0.683  -2.131   1.028  0.00  0.00    -0.010 C 
BRANCH  23  29
ATOM     28  C   UNL     1       0.610  -0.200  -1.072  0.00  0.00    -0.096 C 
ATOM     29  N   UNL     1      -0.071   0.066   0.202  0.00  0.00    +0.381 N 
ATOM     30  C   UNL     1      -1.450  -0.435   0.134  0.00  0.00    -0.096 C 
ATOM     31  H   UNL     1      -0.082   1.059   0.377  0.00  0.00    -0.082 HD
ENDBRANCH  23  29
ENDBRANCH  22  23
ENDBRANCH  18  22
ENDBRANCH   1  19
TORSDOF 7
