REMARK  Name = ZINC40902616
REMARK  7 active torsions:
REMARK  status: ('A' for Active; 'I' for Inactive)
REMARK    1  A    between atoms: C_1  and  C_2
REMARK    2  A    between atoms: C_3  and  C_28
REMARK    3  A    between atoms: C_4  and  C_21
REMARK    4  A    between atoms: C_9  and  S_11
REMARK    5  A    between atoms: S_11  and  C_12
REMARK    6  A    between atoms: C_12  and  C_13
REMARK    7  A    between atoms: N_30  and  C_31
REMARK                            x       y       z     vdW  Elec       q    Type
REMARK                         _______ _______ _______ _____ _____    ______ ____
ROOT
ATOM      1  C   UNL     1      -0.060   1.509  -0.513  0.00  0.00    +0.061 C 
ATOM      2  C   UNL     1      -0.017   0.014  -0.332  0.00  0.00    +0.018 C 
ATOM      3  C   UNL     1      -1.168  -0.652  -0.159  0.00  0.00    +0.060 C 
ATOM      4  C   UNL     1      -1.233  -2.142   0.042  0.00  0.00    +0.177 C 
ATOM      5  N   UNL     1       0.066  -2.732  -0.271  0.00  0.00    -0.220 N 
ATOM      6  C   UNL     1       1.197  -2.006  -0.446  0.00  0.00    +0.219 A 
ATOM      7  N   UNL     1       2.174  -2.833  -0.704  0.00  0.00    -0.187 NA
ATOM      8  C   UNL     1       1.708  -4.090  -0.708  0.00  0.00    +0.211 A 
ATOM      9  N   UNL     1       0.418  -4.070  -0.447  0.00  0.00    -0.141 NA
ATOM     10  N   UNL     1       1.200  -0.622  -0.354  0.00  0.00    -0.287 N 
ATOM     11  H   UNL     1       2.031  -0.123  -0.304  0.00  0.00    +0.155 HD
ENDROOT
BRANCH   4  12
ATOM     12  C   UNL     1      -1.587  -2.441   1.476  0.00  0.00    -0.018 A 
ATOM     13  C   UNL     1      -0.768  -1.996   2.497  0.00  0.00    +0.007 A 
ATOM     14  C   UNL     1      -1.093  -2.269   3.813  0.00  0.00    +0.020 A 
ATOM     15  C   UNL     1      -2.238  -2.988   4.107  0.00  0.00    +0.041 A 
ATOM     16  C   UNL     1      -3.058  -3.432   3.085  0.00  0.00    +0.020 A 
ATOM     17  C   UNL     1      -2.735  -3.154   1.770  0.00  0.00    +0.007 A 
ATOM     18 CL   UNL     1      -2.646  -3.332   5.759  0.00  0.00    -0.084 Cl
ENDBRANCH   4  12
BRANCH   3  19
ATOM     19  C   UNL     1      -2.378   0.081  -0.166  0.00  0.00    +0.248 C 
ATOM     20  O   UNL     1      -2.358   1.288  -0.326  0.00  0.00    -0.270 OA
ATOM     21  N   UNL     1      -3.553  -0.557   0.005  0.00  0.00    -0.282 N 
ATOM     22  H   UNL     1      -3.576  -1.525   0.055  0.00  0.00    +0.155 HD
BRANCH  21  23
ATOM     23  C   UNL     1      -4.739   0.177   0.110  0.00  0.00    +0.034 A 
ATOM     24  C   UNL     1      -5.927  -0.345  -0.385  0.00  0.00    +0.023 A 
ATOM     25  C   UNL     1      -7.096   0.383  -0.280  0.00  0.00    +0.002 A 
ATOM     26  C   UNL     1      -7.084   1.631   0.316  0.00  0.00    +0.000 A 
ATOM     27  C   UNL     1      -5.903   2.154   0.809  0.00  0.00    +0.002 A 
ATOM     28  C   UNL     1      -4.731   1.429   0.713  0.00  0.00    +0.023 A 
ENDBRANCH  21  23
ENDBRANCH   3  19
BRANCH   8  29
ATOM     29  S   UNL     1       2.667  -5.536  -1.012  0.00  0.00    -0.080 S 
BRANCH  29  30
ATOM     30  C   UNL     1       4.342  -4.900  -1.298  0.00  0.00    +0.115 C 
BRANCH  30  31
ATOM     31  C   UNL     1       5.276  -6.050  -1.574  0.00  0.00    -0.002 A 
ATOM     32  C   UNL     1       5.934  -6.672  -0.530  0.00  0.00    +0.007 A 
ATOM     33  C   UNL     1       6.791  -7.727  -0.783  0.00  0.00    +0.000 A 
ATOM     34  C   UNL     1       6.990  -8.161  -2.081  0.00  0.00    +0.003 A 
ATOM     35  C   UNL     1       6.333  -7.541  -3.126  0.00  0.00    +0.038 A 
ATOM     36  C   UNL     1       5.470  -6.487  -2.873  0.00  0.00    +0.127 A 
ATOM     37  F   UNL     1       4.823  -5.883  -3.894  0.00  0.00    -0.205 F 
ENDBRANCH  30  31
ENDBRANCH  29  30
ENDBRANCH   8  29
TORSDOF 6
