REMARK  Name = ZINC37798374
REMARK  4 active torsions:
REMARK  status: ('A' for Active; 'I' for Inactive)
REMARK    1  A    between atoms: C_1  and  C_2
REMARK    2  A    between atoms: C_10  and  C_12
REMARK    3  A    between atoms: C_13  and  C_15
REMARK    4  A    between atoms: C_20  and  N_21
REMARK                            x       y       z     vdW  Elec       q    Type
REMARK                         _______ _______ _______ _____ _____    ______ ____
ROOT
ATOM      1  C   UNL     1       0.363   1.116  -0.934  0.00  0.00    +0.063 C 
ATOM      2  C   UNL     1       0.397  -0.360  -0.633  0.00  0.00    +0.016 A 
ATOM      3  C   UNL     1       0.591  -1.347  -1.534  0.00  0.00    +0.023 A 
ATOM      4  C   UNL     1       0.545  -2.572  -0.836  0.00  0.00    +0.025 A 
ATOM      5  C   UNL     1       0.326  -2.287   0.457  0.00  0.00    +0.039 A 
ATOM      6  N   UNL     1       0.244  -0.928   0.594  0.00  0.00    -0.345 N 
ATOM      7  C   UNL     1       0.030  -0.230   1.867  0.00  0.00    +0.141 C 
ATOM      8  C   UNL     1      -0.540  -1.215   2.893  0.00  0.00    +0.130 C 
ATOM      9  N   UNL     1       0.234  -2.465   2.849  0.00  0.00    -0.288 N 
ATOM     10  C   UNL     1       0.189  -3.259   1.605  0.00  0.00    +0.120 C 
ATOM     11  C   UNL     1       1.355  -4.250   1.592  0.00  0.00    +0.035 C 
ATOM     12  C   UNL     1       0.956  -2.872   3.912  0.00  0.00    +0.249 C 
ATOM     13  O   UNL     1       1.504  -3.958   3.895  0.00  0.00    -0.270 OA
ENDROOT
BRANCH  12  14
ATOM     14  C   UNL     1       1.080  -2.002   5.096  0.00  0.00    +0.060 A 
ATOM     15  C   UNL     1       1.477  -0.670   4.950  0.00  0.00    +0.053 A 
ATOM     16  C   UNL     1       1.591   0.139   6.061  0.00  0.00    +0.124 A 
ATOM     17  C   UNL     1       1.313  -0.363   7.324  0.00  0.00    +0.040 A 
ATOM     18  C   UNL     1       0.921  -1.676   7.483  0.00  0.00    +0.026 A 
ATOM     19  C   UNL     1       0.795  -2.504   6.374  0.00  0.00    +0.037 A 
ATOM     20  F   UNL     1       1.976   1.427   5.919  0.00  0.00    -0.205 F 
BRANCH  19  21
ATOM     21  N   UNL     1       0.394  -3.826   6.532  0.00  0.00    -0.357 N 
ATOM     22  H   UNL     1       0.234  -4.380   5.752  0.00  0.00    +0.142 HD
ATOM     23  H   UNL     1       0.275  -4.194   7.421  0.00  0.00    +0.142 HD
ENDBRANCH  19  21
ENDBRANCH  12  14
TORSDOF 2
