REMARK  Name = ZINC38491256
REMARK  12 active torsions:
REMARK  status: ('A' for Active; 'I' for Inactive)
REMARK    1  A    between atoms: C_1  and  C_2
REMARK    2  A    between atoms: C_5  and  N_8
REMARK    3  A    between atoms: C_9  and  C_25
REMARK    4  A    between atoms: C_10  and  C_13
REMARK    5  A    between atoms: N_15  and  C_16
REMARK    6  A    between atoms: C_18  and  C_24
REMARK    7  A    between atoms: C_21  and  O_22
REMARK    8  A    between atoms: O_22  and  C_23
REMARK    9  A    between atoms: C_25  and  S_26
REMARK   10  A    between atoms: S_26  and  C_27
REMARK   11  A    between atoms: C_29  and  C_34
REMARK   12  A    between atoms: C_31  and  C_33
REMARK                            x       y       z     vdW  Elec       q    Type
REMARK                         _______ _______ _______ _____ _____    ______ ____
ROOT
ATOM      1  N   UNL     1       0.028  -4.173   0.002  0.00  0.00    -0.215 N 
ATOM      2  C   UNL     1       0.668  -4.976   0.880  0.00  0.00    +0.087 A 
ATOM      3  C   UNL     1       0.425  -6.262   0.488  0.00  0.00    +0.172 A 
ATOM      4  N   UNL     1      -0.351  -6.233  -0.609  0.00  0.00    -0.124 NA
ATOM      5  N   UNL     1      -0.610  -5.012  -0.923  0.00  0.00    -0.060 NA
ENDROOT
BRANCH   1  10
ATOM      6  C   UNL     1      -0.080   1.502   0.059  0.00  0.00    +0.044 C 
ATOM      7  C   UNL     1      -0.051  -0.005   0.044  0.00  0.00    -0.050 A 
ATOM      8  C   UNL     1      -0.048  -0.683  -1.161  0.00  0.00    +0.005 A 
ATOM      9  C   UNL     1      -0.021  -2.064  -1.178  0.00  0.00    +0.028 A 
ATOM     10  C   UNL     1       0.002  -2.771   0.016  0.00  0.00    +0.067 A 
ATOM     11  C   UNL     1      -0.001  -2.088   1.224  0.00  0.00    +0.028 A 
ATOM     12  C   UNL     1      -0.022  -0.707   1.235  0.00  0.00    +0.005 A 
ENDBRANCH   1  10
BRANCH   3  13
ATOM     13  C   UNL     1       0.928  -7.476   1.157  0.00  0.00    +0.270 C 
ATOM     14  O   UNL     1       1.625  -7.380   2.149  0.00  0.00    -0.268 OA
ATOM     15  N   UNL     1       0.614  -8.693   0.670  0.00  0.00    -0.277 N 
ATOM     16  H   UNL     1       0.006  -8.773  -0.081  0.00  0.00    +0.155 HD
BRANCH  15  17
ATOM     17  C   UNL     1       1.167  -9.843   1.248  0.00  0.00    +0.076 A 
ATOM     18  C   UNL     1       1.404  -9.889   2.614  0.00  0.00    +0.030 A 
ATOM     19  C   UNL     1       1.950 -11.025   3.182  0.00  0.00    -0.048 A 
ATOM     20  C   UNL     1       2.261 -12.116   2.392  0.00  0.00    +0.007 A 
ATOM     21  C   UNL     1       2.027 -12.078   1.030  0.00  0.00    +0.048 A 
ATOM     22  C   UNL     1       1.475 -10.945   0.454  0.00  0.00    +0.141 A 
ATOM     23  C   UNL     1       2.207 -11.073   4.666  0.00  0.00    +0.044 C 
BRANCH  22  24
ATOM     24  O   UNL     1       1.240 -10.907  -0.885  0.00  0.00    -0.493 OA
ATOM     25  C   UNL     1       1.581 -12.074  -1.637  0.00  0.00    +0.277 C 
ENDBRANCH  22  24
ENDBRANCH  15  17
ENDBRANCH   3  13
BRANCH   2  26
ATOM     26  C   UNL     1       1.493  -4.537   2.062  0.00  0.00    +0.135 C 
BRANCH  26  27
ATOM     27  S   UNL     1       0.427  -4.396   3.523  0.00  0.00    -0.080 S 
BRANCH  27  28
ATOM     28  C   UNL     1       1.524  -3.882   4.803  0.00  0.00    +0.189 A 
ATOM     29  N   UNL     1       2.806  -3.696   4.521  0.00  0.00    -0.227 NA
ATOM     30  C   UNL     1       3.656  -3.310   5.458  0.00  0.00    +0.043 A 
ATOM     31  C   UNL     1       3.191  -3.100   6.747  0.00  0.00    +0.046 A 
ATOM     32  C   UNL     1       1.845  -3.303   7.008  0.00  0.00    +0.043 A 
ATOM     33  N   UNL     1       1.047  -3.684   6.024  0.00  0.00    -0.227 NA
ATOM     34  C   UNL     1       1.295  -3.087   8.394  0.00  0.00    +0.066 C 
ATOM     35  C   UNL     1       5.112  -3.102   5.129  0.00  0.00    +0.066 C 
ENDBRANCH  27  28
ENDBRANCH  26  27
ENDBRANCH   2  26
TORSDOF 7
