REMARK  Name = ZINC30982455
REMARK  6 active torsions:
REMARK  status: ('A' for Active; 'I' for Inactive)
REMARK    1  A    between atoms: C_1  and  C_2
REMARK    2  A    between atoms: C_4  and  N_9
REMARK    3  A    between atoms: C_10  and  C_12
REMARK    4  A    between atoms: N_15  and  C_18
REMARK    5  A    between atoms: C_18  and  C_19
REMARK    6  A    between atoms: C_21  and  C_24
REMARK                            x       y       z     vdW  Elec       q    Type
REMARK                         _______ _______ _______ _____ _____    ______ ____
ROOT
ATOM      1  C   UNL     1      -4.922   3.882  -0.143  0.00  0.00    +0.072 C 
ATOM      2  C   UNL     1      -5.112   4.749   1.105  0.00  0.00    -0.006 C 
ATOM      3  C   UNL     1      -6.468   5.453   1.030  0.00  0.00    -0.077 C 
ATOM      4  N   UNL     1      -7.538   4.450   0.940  0.00  0.00    +0.386 N 
ATOM      5  C   UNL     1      -7.403   3.638  -0.275  0.00  0.00    -0.077 C 
ATOM      6  C   UNL     1      -6.074   2.879  -0.239  0.00  0.00    -0.006 C 
ATOM      7  H   UNL     1      -7.440   3.778   1.806  0.00  0.00    -0.081 HD
ENDROOT
BRANCH   1   9
ATOM      8  N   UNL     1      -2.456   3.823   0.047  0.00  0.00    -0.285 N 
ATOM      9  C   UNL     1      -3.614   3.140  -0.047  0.00  0.00    +0.220 C 
ATOM     10  O   UNL     1      -3.604   1.927  -0.054  0.00  0.00    -0.275 OA
ATOM     11  H   UNL     1      -2.471   4.919   0.141  0.00  0.00    +0.155 HD
BRANCH   8  15
ATOM     12  C   UNL     1       2.216   3.454   1.533  0.00  0.00    +0.045 C 
ATOM     13  C   UNL     1       1.045   2.938   0.737  0.00  0.00    -0.035 A 
ATOM     14  C   UNL     1      -0.158   3.615   0.759  0.00  0.00    +0.027 A 
ATOM     15  C   UNL     1      -1.236   3.139   0.026  0.00  0.00    +0.034 A 
ATOM     16  C   UNL     1      -1.099   1.984  -0.735  0.00  0.00    +0.024 A 
ATOM     17  C   UNL     1       0.104   1.307  -0.749  0.00  0.00    +0.017 A 
ATOM     18  C   UNL     1       1.177   1.784  -0.016  0.00  0.00    +0.021 A 
ATOM     19 BR   UNL     1       2.826   0.859  -0.045  0.00  0.00    -0.050 Br
ENDBRANCH   8  15
ENDBRANCH   1   9
BRANCH   4  20
ATOM     20  C   UNL     1      -8.861   5.085   1.006  0.00  0.00    +0.022 C 
BRANCH  20  21
ATOM     21  C   UNL     1      -9.055   5.703   2.366  0.00  0.00    +0.211 A 
ATOM     22  N   UNL     1      -8.740   6.925   2.717  0.00  0.00    -0.193 NA
ATOM     23  C   UNL     1      -9.093   7.032   4.018  0.00  0.00    +0.202 A 
ATOM     24  N   UNL     1      -9.597   5.880   4.377  0.00  0.00    -0.056 NA
ATOM     25  O   UNL     1      -9.586   5.110   3.439  0.00  0.00    -0.340 OA
BRANCH  23  26
ATOM     26  C   UNL     1      -8.937   8.231   4.878  0.00  0.00    +0.023 A 
ATOM     27  C   UNL     1      -8.373   9.395   4.358  0.00  0.00    +0.014 A 
ATOM     28  C   UNL     1      -8.235  10.509   5.159  0.00  0.00    +0.039 A 
ATOM     29  C   UNL     1      -8.645  10.469   6.482  0.00  0.00    +0.123 A 
ATOM     30  C   UNL     1      -9.201   9.312   7.004  0.00  0.00    +0.039 A 
ATOM     31  C   UNL     1      -9.348   8.195   6.209  0.00  0.00    +0.014 A 
ATOM     32  F   UNL     1      -8.503  11.561   7.265  0.00  0.00    -0.205 F 
ENDBRANCH  23  26
ENDBRANCH  20  21
ENDBRANCH   4  20
TORSDOF 5
