REMARK  Name = ZINC33721026
REMARK  7 active torsions:
REMARK  status: ('A' for Active; 'I' for Inactive)
REMARK    1  A    between atoms: C_4  and  C_7
REMARK    2  A    between atoms: C_7  and  N_8
REMARK    3  A    between atoms: C_16  and  S_17
REMARK    4  A    between atoms: S_17  and  C_18
REMARK    5  A    between atoms: C_18  and  C_19
REMARK    6  A    between atoms: C_24  and  C_27
REMARK    7  A    between atoms: C_30  and  N_33
REMARK                            x       y       z     vdW  Elec       q    Type
REMARK                         _______ _______ _______ _____ _____    ______ ____
ROOT
ATOM      1  C   UNL     1       2.857  -4.519   3.012  0.00  0.00    +0.173 C 
ENDROOT
BRANCH   1   2
ATOM      2  C   UNL     1       2.037  -5.743   2.693  0.00  0.00    +0.229 C 
ATOM      3  O   UNL     1       1.516  -5.857   1.605  0.00  0.00    -0.275 OA
ATOM      4  N   UNL     1       1.884  -6.711   3.619  0.00  0.00    -0.264 N 
ATOM      5  C   UNL     1       1.128  -7.839   3.325  0.00  0.00    +0.165 A 
ATOM      6  N   UNL     1       0.856  -8.883   4.085  0.00  0.00    -0.225 NA
ATOM      7  C   UNL     1       0.109  -9.883   3.640  0.00  0.00    +0.080 A 
ATOM      8  C   UNL     1      -0.390  -9.832   2.368  0.00  0.00    +0.076 A 
ATOM      9  S   UNL     1       0.260  -8.259   1.820  0.00  0.00    -0.060 S 
ATOM     10  H   UNL     1       2.301  -6.620   4.490  0.00  0.00    +0.157 HD
BRANCH   7  11
ATOM     11  C   UNL     1      -0.183 -11.046   4.513  0.00  0.00    +0.001 A 
ATOM     12  C   UNL     1      -0.964 -12.098   4.038  0.00  0.00    +0.012 A 
ATOM     13  C   UNL     1      -1.232 -13.178   4.854  0.00  0.00    +0.033 A 
ATOM     14  C   UNL     1      -0.728 -13.217   6.142  0.00  0.00    +0.126 A 
ATOM     15  C   UNL     1       0.048 -12.175   6.619  0.00  0.00    +0.033 A 
ATOM     16  C   UNL     1       0.328 -11.093   5.809  0.00  0.00    +0.012 A 
BRANCH  14  17
ATOM     17  N   UNL     1      -1.020 -14.377   7.013  0.00  0.00    +0.056 N 
ATOM     18  O   UNL     1      -1.698 -15.288   6.599  0.00  0.00    -0.126 OA
ATOM     19  O   UNL     1      -0.581 -14.414   8.139  0.00  0.00    -0.126 OA
ENDBRANCH  14  17
ENDBRANCH   7  11
ENDBRANCH   1   2
BRANCH   1  20
ATOM     20  S   UNL     1       2.874  -3.412   1.575  0.00  0.00    -0.078 S 
BRANCH  20  29
ATOM     21  N   UNL     1       4.152  -0.952   1.338  0.00  0.00    -0.314 N 
ATOM     22  C   UNL     1       4.939  -0.114   2.111  0.00  0.00    +0.070 A 
ATOM     23  C   UNL     1       5.530   1.121   1.892  0.00  0.00    +0.028 A 
ATOM     24  C   UNL     1       6.275   1.712   2.891  0.00  0.00    +0.002 A 
ATOM     25  C   UNL     1       6.438   1.079   4.114  0.00  0.00    +0.002 A 
ATOM     26  C   UNL     1       5.859  -0.148   4.349  0.00  0.00    +0.030 A 
ATOM     27  C   UNL     1       5.100  -0.759   3.348  0.00  0.00    +0.090 A 
ATOM     28  N   UNL     1       4.422  -1.935   3.278  0.00  0.00    -0.222 NA
ATOM     29  C   UNL     1       3.858  -2.048   2.100  0.00  0.00    +0.171 A 
BRANCH  21  30
ATOM     30  C   UNL     1       3.711  -0.707  -0.038  0.00  0.00    +0.159 C 
BRANCH  30  34
ATOM     31  C   UNL     1      -0.017   1.378   0.010  0.00  0.00    +0.000 A 
ATOM     32  C   UNL     1       1.171   2.086   0.002  0.00  0.00    +0.000 A 
ATOM     33  C   UNL     1       2.377   1.411  -0.013  0.00  0.00    +0.005 A 
ATOM     34  C   UNL     1       2.396   0.029  -0.020  0.00  0.00    -0.028 A 
ATOM     35  C   UNL     1       1.208  -0.679  -0.012  0.00  0.00    +0.005 A 
ATOM     36  C   UNL     1       0.002  -0.004   0.002  0.00  0.00    +0.000 A 
ENDBRANCH  30  34
ENDBRANCH  21  30
ENDBRANCH  20  29
ENDBRANCH   1  20
TORSDOF 7
