REMARK  Name = ZINC18261732
REMARK  8 active torsions:
REMARK  status: ('A' for Active; 'I' for Inactive)
REMARK    1  A    between atoms: C_1  and  C_2
REMARK    2  A    between atoms: C_5  and  N_8
REMARK    3  A    between atoms: C_9  and  C_31
REMARK    4  A    between atoms: C_11  and  C_16
REMARK    5  A    between atoms: C_16  and  O_18
REMARK    6  A    between atoms: O_18  and  C_19
REMARK    7  A    between atoms: C_19  and  C_20
REMARK    8  A    between atoms: C_28  and  N_30
REMARK                            x       y       z     vdW  Elec       q    Type
REMARK                         _______ _______ _______ _____ _____    ______ ____
ROOT
ATOM      1  N   UNL     1       9.202  -3.690   3.970  0.00  0.00    -0.263 N 
ATOM      2  C   UNL     1       9.326  -2.828   2.788  0.00  0.00    +0.132 C 
ATOM      3  C   UNL     1       8.106  -1.882   2.839  0.00  0.00    +0.132 C 
ATOM      4  C   UNL     1       7.093  -2.717   3.657  0.00  0.00    +0.113 C 
ATOM      5  C   UNL     1       7.957  -3.651   4.475  0.00  0.00    +0.221 C 
ATOM      6  O   UNL     1       7.582  -4.273   5.446  0.00  0.00    -0.275 OA
ENDROOT
BRANCH   1  11
ATOM      7  C   UNL     1      13.437  -6.788   6.128  0.00  0.00    +0.044 C 
ATOM      8  C   UNL     1      12.312  -5.965   5.555  0.00  0.00    -0.050 A 
ATOM      9  C   UNL     1      12.559  -5.089   4.514  0.00  0.00    +0.005 A 
ATOM     10  C   UNL     1      11.530  -4.334   3.986  0.00  0.00    +0.024 A 
ATOM     11  C   UNL     1      10.247  -4.454   4.502  0.00  0.00    +0.037 A 
ATOM     12  C   UNL     1      10.003  -5.330   5.552  0.00  0.00    +0.024 A 
ATOM     13  C   UNL     1      11.035  -6.087   6.072  0.00  0.00    +0.005 A 
ENDBRANCH   1  11
BRANCH   2  14
ATOM     14  C   UNL     1       9.290  -3.658   1.531  0.00  0.00    +0.011 A 
ATOM     15  C   UNL     1       9.966  -3.478   0.369  0.00  0.00    +0.013 A 
ATOM     16  C   UNL     1       9.777  -4.379  -0.662  0.00  0.00    +0.008 A 
ATOM     17  C   UNL     1       8.915  -5.409  -0.486  0.00  0.00    +0.045 A 
ATOM     18  S   UNL     1       8.342  -5.130   1.182  0.00  0.00    -0.100 S 
ENDBRANCH   2  14
BRANCH   3  19
ATOM     19  C   UNL     1       7.581  -1.604   1.454  0.00  0.00    +0.313 C 
ATOM     20  O   UNL     1       6.895  -2.425   0.891  0.00  0.00    -0.250 OA
BRANCH  19  21
ATOM     21  O   UNL     1       7.875  -0.444   0.846  0.00  0.00    -0.456 OA
BRANCH  21  22
ATOM     22  C   UNL     1       7.335  -0.244  -0.488  0.00  0.00    +0.308 C 
BRANCH  22  23
ATOM     23  C   UNL     1       7.767   1.103  -1.007  0.00  0.00    +0.169 A 
ATOM     24  N   UNL     1       7.001   2.141  -0.769  0.00  0.00    -0.228 NA
ATOM     25  C   UNL     1       7.347   3.358  -1.213  0.00  0.00    +0.076 A 
ATOM     26  C   UNL     1       6.553   4.489  -0.977  0.00  0.00    +0.028 A 
ATOM     27  C   UNL     1       6.952   5.703  -1.452  0.00  0.00    +0.002 A 
ATOM     28  C   UNL     1       8.138   5.838  -2.168  0.00  0.00    +0.001 A 
ATOM     29  C   UNL     1       8.935   4.759  -2.415  0.00  0.00    +0.013 A 
ATOM     30  C   UNL     1       8.553   3.499  -1.942  0.00  0.00    +0.040 A 
ATOM     31  C   UNL     1       9.337   2.341  -2.167  0.00  0.00    +0.128 A 
ATOM     32  N   UNL     1       8.902   1.185  -1.683  0.00  0.00    -0.214 NA
BRANCH  31  33
ATOM     33  N   UNL     1      10.521   2.413  -2.869  0.00  0.00    -0.343 N 
ATOM     34  H   UNL     1      10.828   3.265  -3.217  0.00  0.00    +0.144 HD
ATOM     35  H   UNL     1      11.048   1.612  -3.016  0.00  0.00    +0.144 HD
ENDBRANCH  31  33
ENDBRANCH  22  23
ENDBRANCH  21  22
ENDBRANCH  19  21
ENDBRANCH   3  19
TORSDOF 7
