REMARK  Name = ZINC34979902
REMARK  9 active torsions:
REMARK  status: ('A' for Active; 'I' for Inactive)
REMARK    1  A    between atoms: C_1  and  C_2
REMARK    2  A    between atoms: C_2  and  C_3
REMARK    3  A    between atoms: C_3  and  C_5
REMARK    4  A    between atoms: C_3  and  C_6
REMARK    5  A    between atoms: C_6  and  C_8
REMARK    6  A    between atoms: C_6  and  N_26
REMARK    7  A    between atoms: C_14  and  C_17
REMARK    8  A    between atoms: C_18  and  C_20
REMARK    9  A    between atoms: N_29  and  C_30
REMARK                            x       y       z     vdW  Elec       q    Type
REMARK                         _______ _______ _______ _____ _____    ______ ____
ROOT
ATOM      1  C   UNL     1      -1.439  -1.850   0.127  0.00  0.00    +0.163 C 
ENDROOT
BRANCH   1   2
ATOM      2  C   UNL     1      -0.488  -2.418  -0.895  0.00  0.00    +0.236 C 
ATOM      3  O   UNL     1       0.620  -2.779  -0.558  0.00  0.00    -0.274 OA
ATOM      4  N   UNL     1      -0.868  -2.525  -2.183  0.00  0.00    -0.297 N 
ATOM      5  C   UNL     1      -2.235  -2.172  -2.591  0.00  0.00    +0.127 C 
ATOM      6  C   UNL     1      -2.856  -3.372  -3.316  0.00  0.00    +0.127 C 
ATOM      7  N   UNL     1      -1.911  -3.844  -4.338  0.00  0.00    -0.292 N 
ATOM      8  C   UNL     1      -0.544  -4.197  -3.930  0.00  0.00    +0.091 C 
ATOM      9  C   UNL     1       0.078  -2.991  -3.207  0.00  0.00    +0.130 C 
ATOM     10  C   UNL     1      -0.584  -5.404  -2.991  0.00  0.00    +0.029 C 
ATOM     11  C   UNL     1      -2.291  -3.951  -5.627  0.00  0.00    +0.247 C 
ATOM     12  O   UNL     1      -3.389  -3.557  -5.971  0.00  0.00    -0.270 OA
BRANCH  11  13
ATOM     13  C   UNL     1      -1.374  -4.546  -6.622  0.00  0.00    +0.037 A 
ATOM     14  C   UNL     1      -0.570  -5.632  -6.271  0.00  0.00    +0.013 A 
ATOM     15  C   UNL     1       0.284  -6.183  -7.205  0.00  0.00    +0.001 A 
ATOM     16  C   UNL     1       0.344  -5.662  -8.485  0.00  0.00    +0.000 A 
ATOM     17  C   UNL     1      -0.450  -4.586  -8.838  0.00  0.00    +0.001 A 
ATOM     18  C   UNL     1      -1.312  -4.029  -7.917  0.00  0.00    +0.013 A 
ENDBRANCH  11  13
ENDBRANCH   1   2
BRANCH   1  19
ATOM     19  N   UNL     1      -1.091  -2.361   1.455  0.00  0.00    -0.288 N 
ATOM     20  C   UNL     1      -2.030  -2.426   2.420  0.00  0.00    +0.301 C 
ATOM     21  O   UNL     1      -3.166  -2.062   2.187  0.00  0.00    -0.253 OA
ATOM     22  N   UNL     1      -1.709  -2.896   3.642  0.00  0.00    -0.294 N 
ATOM     23  H   UNL     1      -0.184  -2.652   1.641  0.00  0.00    +0.151 HD
ATOM     24  H   UNL     1      -0.803  -3.187   3.827  0.00  0.00    +0.151 HD
BRANCH  22  25
ATOM     25  C   UNL     1      -2.730  -2.968   4.690  0.00  0.00    +0.037 C 
ATOM     26  C   UNL     1      -3.277  -1.566   4.965  0.00  0.00    +0.029 C 
ATOM     27  C   UNL     1      -4.344  -1.640   6.060  0.00  0.00    -0.008 C 
ATOM     28  C   UNL     1      -3.723  -2.205   7.339  0.00  0.00    +0.007 C 
ATOM     29  C   UNL     1      -3.175  -3.607   7.064  0.00  0.00    -0.008 C 
ATOM     30  C   UNL     1      -2.109  -3.533   5.969  0.00  0.00    +0.029 C 
ATOM     31  C   UNL     1      -4.315  -4.518   6.604  0.00  0.00    +0.007 C 
ATOM     32  C   UNL     1      -4.936  -3.953   5.325  0.00  0.00    -0.008 C 
ATOM     33  C   UNL     1      -5.484  -2.551   5.600  0.00  0.00    +0.007 C 
ATOM     34  C   UNL     1      -3.870  -3.879   4.231  0.00  0.00    +0.029 C 
ENDBRANCH  22  25
ENDBRANCH   1  19
BRANCH   1  35
ATOM     35  C   UNL     1      -1.338  -0.324   0.125  0.00  0.00    +0.015 C 
ATOM     36  C   UNL     1      -1.814   0.217  -1.225  0.00  0.00    +0.010 C 
BRANCH  35  38
ATOM     37  C   UNL     1       0.199   1.614   0.479  0.00  0.00    +0.004 C 
ATOM     38  C   UNL     1       0.117   0.091   0.356  0.00  0.00    +0.002 C 
ENDBRANCH  35  38
ENDBRANCH   1  35
TORSDOF 6
