REMARK  Name = ZINC00675051
REMARK  7 active torsions:
REMARK  status: ('A' for Active; 'I' for Inactive)
REMARK    1  A    between atoms: C_1  and  C_2
REMARK    2  A    between atoms: C_2  and  C_4
REMARK    3  A    between atoms: C_2  and  O_34
REMARK    4  A    between atoms: C_7  and  N_10
REMARK    5  A    between atoms: C_11  and  C_13
REMARK    6  A    between atoms: C_17  and  C_28
REMARK    7  A    between atoms: C_20  and  C_24
REMARK                            x       y       z     vdW  Elec       q    Type
REMARK                         _______ _______ _______ _____ _____    ______ ____
ROOT
ATOM      1  C   UNL     1      -7.362  -2.608   1.250  0.00  0.00    +0.124 C 
ATOM      2  C   UNL     1      -8.150  -2.786   0.160  0.00  0.00    +0.086 C 
ATOM      3  C   UNL     1      -9.473  -3.184   0.642  0.00  0.00    +0.150 C 
ATOM      4  N   UNL     1     -10.553  -3.474  -0.026  0.00  0.00    -0.258 NA
ATOM      5  C   UNL     1     -11.756  -3.887   0.707  0.00  0.00    +0.146 C 
ATOM      6  C   UNL     1     -11.819  -3.194   2.068  0.00  0.00    +0.065 C 
ATOM      7  C   UNL     1     -10.554  -3.523   2.877  0.00  0.00    +0.202 C 
ATOM      8  N   UNL     1      -9.401  -3.202   2.029  0.00  0.00    -0.224 N 
ATOM      9  N   UNL     1      -8.100  -2.873   2.394  0.00  0.00    -0.257 N 
ATOM     10 BR   UNL     1      -7.635  -2.560  -1.646  0.00  0.00    -0.045 Br
ATOM     11  H   UNL     1      -7.764  -2.834   3.303  0.00  0.00    +0.170 HD
ENDROOT
BRANCH   5  12
ATOM     12  C   UNL     1     -12.977  -3.518  -0.095  0.00  0.00    +0.014 A 
ATOM     13  C   UNL     1     -14.123  -4.219  -0.275  0.00  0.00    +0.013 A 
ATOM     14  C   UNL     1     -15.123  -3.677  -1.061  0.00  0.00    +0.008 A 
ATOM     15  C   UNL     1     -14.928  -2.462  -1.629  0.00  0.00    +0.045 A 
ATOM     16  S   UNL     1     -13.293  -2.042  -1.048  0.00  0.00    -0.099 S 
ENDBRANCH   5  12
BRANCH   1  18
ATOM     17  N   UNL     1      -5.243  -2.118   2.372  0.00  0.00    -0.280 N 
ATOM     18  C   UNL     1      -5.942  -2.202   1.223  0.00  0.00    +0.265 C 
ATOM     19  O   UNL     1      -5.404  -1.943   0.164  0.00  0.00    -0.268 OA
ATOM     20  H   UNL     1      -5.651  -2.391   3.209  0.00  0.00    +0.155 HD
BRANCH  17  24
ATOM     21  C   UNL     1      -1.330  -0.690   2.330  0.00  0.00    -0.019 A 
ATOM     22  C   UNL     1      -2.159  -0.402   3.400  0.00  0.00    +0.008 A 
ATOM     23  C   UNL     1      -3.457  -0.874   3.417  0.00  0.00    +0.023 A 
ATOM     24  C   UNL     1      -3.930  -1.639   2.358  0.00  0.00    +0.034 A 
ATOM     25  C   UNL     1      -3.095  -1.926   1.285  0.00  0.00    +0.023 A 
ATOM     26  C   UNL     1      -1.800  -1.447   1.272  0.00  0.00    +0.008 A 
BRANCH  21  28
ATOM     27  C   UNL     1       0.990  -1.142   3.081  0.00  0.00    +0.043 C 
ATOM     28  C   UNL     1       0.085  -0.174   2.316  0.00  0.00    +0.141 C 
BRANCH  28  29
ATOM     29  O   UNL     1       0.130   1.112   2.938  0.00  0.00    -0.387 OA
ATOM     30  H   UNL     1       1.012   1.506   2.963  0.00  0.00    +0.210 HD
ENDBRANCH  28  29
ENDBRANCH  21  28
ENDBRANCH  17  24
ENDBRANCH   1  18
BRANCH   7  31
ATOM     31  C   UNL     1     -10.517  -2.679   4.152  0.00  0.00    +0.410 C 
ATOM     32  F   UNL     1     -11.647  -2.958   4.929  0.00  0.00    -0.169 F 
ATOM     33  F   UNL     1      -9.363  -2.986   4.881  0.00  0.00    -0.169 F 
ATOM     34  F   UNL     1     -10.507  -1.322   3.813  0.00  0.00    -0.169 F 
ENDBRANCH   7  31
TORSDOF 6
