REMARK  Name = ZINC46772222
REMARK  13 active torsions:
REMARK  status: ('A' for Active; 'I' for Inactive)
REMARK    1  A    between atoms: C_1  and  C_2
REMARK    2  A    between atoms: C_5  and  N_9
REMARK    3  A    between atoms: C_7  and  C_8
REMARK    4  A    between atoms: N_9  and  C_10
REMARK    5  A    between atoms: C_10  and  N_12
REMARK    6  A    between atoms: N_12  and  N_13
REMARK    7  A    between atoms: C_14  and  C_16
REMARK    8  A    between atoms: C_20  and  S_22
REMARK    9  A    between atoms: S_22  and  N_25
REMARK   10  A    between atoms: N_25  and  C_26
REMARK   11  A    between atoms: N_25  and  C_27
REMARK   12  A    between atoms: C_30  and  O_33
REMARK   13  A    between atoms: O_33  and  C_34
REMARK                            x       y       z     vdW  Elec       q    Type
REMARK                         _______ _______ _______ _____ _____    ______ ____
ROOT
ATOM      1  C   UNL     1      -0.349  -9.000   1.016  0.00  0.00    +0.040 A 
ATOM      2  C   UNL     1      -0.306  -8.219   2.172  0.00  0.00    +0.013 A 
ATOM      3  C   UNL     1      -0.281  -8.826   3.411  0.00  0.00    +0.003 A 
ATOM      4  C   UNL     1      -0.296 -10.206   3.509  0.00  0.00    +0.029 A 
ATOM      5  C   UNL     1      -0.338 -10.986   2.367  0.00  0.00    +0.109 A 
ATOM      6  C   UNL     1      -0.370 -10.392   1.122  0.00  0.00    +0.042 A 
ENDROOT
BRANCH   1   8
ATOM      7  N   UNL     1      -0.356  -7.013  -0.413  0.00  0.00    -0.231 N 
ATOM      8  C   UNL     1      -0.377  -8.357  -0.314  0.00  0.00    +0.260 C 
ATOM      9  O   UNL     1      -0.419  -9.039  -1.319  0.00  0.00    -0.269 OA
ATOM     10  H   UNL     1      -0.323  -6.468   0.389  0.00  0.00    +0.173 HD
BRANCH   7  11
ATOM     11  N   UNL     1      -0.383  -6.402  -1.674  0.00  0.00    -0.245 N 
ATOM     12  H   UNL     1      -0.416  -6.947  -2.476  0.00  0.00    +0.172 HD
BRANCH  11  13
ATOM     13  C   UNL     1      -0.362  -5.058  -1.773  0.00  0.00    +0.151 C 
ATOM     14  S   UNL     1      -0.395  -4.313  -3.314  0.00  0.00    -0.017 S 
BRANCH  13  15
ATOM     15  N   UNL     1      -0.316  -4.301  -0.659  0.00  0.00    -0.296 N 
ATOM     16  H   UNL     1      -0.213  -4.722   0.209  0.00  0.00    +0.154 HD
BRANCH  15  21
ATOM     17  C   UNL     1      -0.719   1.344  -1.046  0.00  0.00    +0.044 C 
ATOM     18  C   UNL     1      -0.612  -0.156  -0.943  0.00  0.00    -0.047 A 
ATOM     19  C   UNL     1      -1.421  -0.961  -1.724  0.00  0.00    +0.005 A 
ATOM     20  C   UNL     1      -1.325  -2.335  -1.632  0.00  0.00    +0.023 A 
ATOM     21  C   UNL     1      -0.415  -2.909  -0.754  0.00  0.00    +0.033 A 
ATOM     22  C   UNL     1       0.397  -2.098   0.028  0.00  0.00    +0.027 A 
ATOM     23  C   UNL     1       0.299  -0.724  -0.072  0.00  0.00    -0.046 A 
ATOM     24  C   UNL     1       1.183   0.157   0.773  0.00  0.00    +0.044 C 
ENDBRANCH  15  21
ENDBRANCH  13  15
ENDBRANCH  11  13
ENDBRANCH   7  11
ENDBRANCH   1   8
BRANCH   5  25
ATOM     25  S   UNL     1      -0.357 -12.743   2.503  0.00  0.00    +0.074 S 
ATOM     26  O   UNL     1       0.154 -13.251   1.278  0.00  0.00    -0.150 OA
ATOM     27  O   UNL     1       0.225 -13.059   3.760  0.00  0.00    -0.150 OA
BRANCH  25  28
ATOM     28  N   UNL     1      -1.943 -13.211   2.584  0.00  0.00    -0.206 N 
ATOM     29  C   UNL     1      -2.669 -13.556   1.359  0.00  0.00    +0.157 C 
BRANCH  28  30
ATOM     30  C   UNL     1      -2.591 -13.275   3.823  0.00  0.00    +0.051 A 
ATOM     31  C   UNL     1      -3.682 -12.456   4.080  0.00  0.00    +0.028 A 
ATOM     32  C   UNL     1      -4.321 -12.521   5.302  0.00  0.00    +0.047 A 
ATOM     33  C   UNL     1      -3.874 -13.404   6.273  0.00  0.00    +0.120 A 
ATOM     34  C   UNL     1      -2.784 -14.223   6.017  0.00  0.00    +0.047 A 
ATOM     35  C   UNL     1      -2.147 -14.164   4.793  0.00  0.00    +0.028 A 
BRANCH  33  36
ATOM     36  O   UNL     1      -4.503 -13.468   7.477  0.00  0.00    -0.495 OA
ATOM     37  C   UNL     1      -3.989 -14.400   8.430  0.00  0.00    +0.277 C 
ENDBRANCH  33  36
ENDBRANCH  28  30
ENDBRANCH  25  28
ENDBRANCH   5  25
TORSDOF 9
