REMARK  Name = ZINC03217491
REMARK  5 active torsions:
REMARK  status: ('A' for Active; 'I' for Inactive)
REMARK    1  A    between atoms: C_1  and  C_2
REMARK    2  A    between atoms: C_5  and  C_8
REMARK    3  A    between atoms: N_10  and  N_11
REMARK    4  A    between atoms: C_12  and  C_13
REMARK    5  A    between atoms: C_16  and  O_20
REMARK                            x       y       z     vdW  Elec       q    Type
REMARK                         _______ _______ _______ _____ _____    ______ ____
ROOT
ATOM      1  C   UNL     1       1.250  -2.160  -0.021  0.00  0.00    +0.263 C 
ATOM      2  O   UNL     1       0.208  -2.788  -0.014  0.00  0.00    -0.268 OA
ATOM      3  N   UNL     1       2.429  -2.812  -0.036  0.00  0.00    -0.203 N 
ATOM      4  H   UNL     1       3.260  -2.311  -0.041  0.00  0.00    +0.178 HD
ENDROOT
BRANCH   1   9
ATOM      5  C   UNL     1       1.142   3.593   0.010  0.00  0.00    +0.044 C 
ATOM      6  C   UNL     1       1.170   2.086   0.002  0.00  0.00    -0.050 A 
ATOM      7  C   UNL     1      -0.017   1.375   0.010  0.00  0.00    +0.004 A 
ATOM      8  C   UNL     1       0.002  -0.004   0.002  0.00  0.00    +0.013 A 
ATOM      9  C   UNL     1       1.222  -0.682  -0.013  0.00  0.00    +0.038 A 
ATOM     10  C   UNL     1       2.416   0.041  -0.021  0.00  0.00    +0.013 A 
ATOM     11  C   UNL     1       2.383   1.420  -0.013  0.00  0.00    +0.004 A 
ENDBRANCH   1   9
BRANCH   3  12
ATOM     12  N   UNL     1       2.456  -4.213  -0.043  0.00  0.00    -0.187 NA
ATOM     13  C   UNL     1       3.592  -4.840  -0.057  0.00  0.00    +0.138 C 
BRANCH  13  14
ATOM     14  C   UNL     1       3.619  -6.314  -0.065  0.00  0.00    -0.004 A 
ATOM     15  C   UNL     1       2.424  -7.038  -0.051  0.00  0.00    +0.013 A 
ATOM     16  C   UNL     1       2.454  -8.415  -0.064  0.00  0.00    +0.047 A 
ATOM     17  C   UNL     1       3.670  -9.085  -0.079  0.00  0.00    +0.131 A 
ATOM     18  C   UNL     1       4.862  -8.371  -0.088  0.00  0.00    +0.060 A 
ATOM     19  C   UNL     1       4.841  -6.992  -0.081  0.00  0.00    +0.028 A 
ATOM     20 BR   UNL     1       6.514  -9.290  -0.108  0.00  0.00    -0.047 Br
BRANCH  17  21
ATOM     21  O   UNL     1       3.695 -10.444  -0.086  0.00  0.00    -0.506 OA
ATOM     22  H   UNL     1       3.711 -10.841   0.795  0.00  0.00    +0.292 HD
ENDBRANCH  17  21
ENDBRANCH  13  14
ENDBRANCH   3  12
TORSDOF 4
