REMARK  Name = ZINC13678423
REMARK  7 active torsions:
REMARK  status: ('A' for Active; 'I' for Inactive)
REMARK    1  A    between atoms: C_1  and  C_2
REMARK    2  A    between atoms: C_3  and  C_18
REMARK    3  A    between atoms: C_7  and  N_8
REMARK    4  A    between atoms: N_8  and  S_9
REMARK    5  A    between atoms: S_9  and  C_12
REMARK    6  A    between atoms: N_23  and  C_26
REMARK    7  A    between atoms: C_30  and  C_32
REMARK                            x       y       z     vdW  Elec       q    Type
REMARK                         _______ _______ _______ _____ _____    ______ ____
ROOT
ATOM      1  C   UNL     1       5.550  -1.377  -4.798  0.00  0.00    +0.046 C 
ATOM      2  C   UNL     1       5.141  -0.147  -4.029  0.00  0.00    -0.016 A 
ATOM      3  C   UNL     1       4.396   0.853  -4.653  0.00  0.00    +0.042 A 
ATOM      4  C   UNL     1       4.026   1.992  -3.936  0.00  0.00    +0.013 A 
ATOM      5  C   UNL     1       4.393   2.123  -2.612  0.00  0.00    +0.003 A 
ATOM      6  C   UNL     1       5.127   1.130  -1.992  0.00  0.00    +0.025 A 
ATOM      7  C   UNL     1       5.500  -0.009  -2.697  0.00  0.00    +0.052 A 
ENDROOT
BRANCH   3   8
ATOM      8  C   UNL     1       4.004   0.710  -6.072  0.00  0.00    +0.247 C 
ATOM      9  O   UNL     1       3.412  -0.285  -6.442  0.00  0.00    -0.270 OA
ATOM     10  N   UNL     1       4.302   1.684  -6.955  0.00  0.00    -0.295 N 
ATOM     11  C   UNL     1       4.927   2.939  -6.512  0.00  0.00    +0.127 C 
ATOM     12  C   UNL     1       6.166   3.196  -7.385  0.00  0.00    +0.124 C 
ATOM     13  N   UNL     1       5.776   3.163  -8.801  0.00  0.00    -0.327 N 
ATOM     14  C   UNL     1       5.276   1.836  -9.185  0.00  0.00    +0.124 C 
ATOM     15  C   UNL     1       4.006   1.522  -8.386  0.00  0.00    +0.127 C 
BRANCH  13  16
ATOM     16  C   UNL     1       6.836   3.555  -9.621  0.00  0.00    +0.030 A 
ATOM     17  C   UNL     1       7.280   2.715 -10.634  0.00  0.00    +0.023 A 
ATOM     18  C   UNL     1       8.325   3.107 -11.446  0.00  0.00    +0.002 A 
ATOM     19  C   UNL     1       8.937   4.332 -11.246  0.00  0.00    +0.012 A 
ATOM     20  C   UNL     1       8.501   5.168 -10.235  0.00  0.00    +0.057 A 
ATOM     21  C   UNL     1       7.452   4.784  -9.422  0.00  0.00    +0.035 A 
BRANCH  20  22
ATOM     22  C   UNL     1       9.170   6.501 -10.020  0.00  0.00    +0.417 C 
ATOM     23  F   UNL     1      10.230   6.351  -9.120  0.00  0.00    -0.166 F 
ATOM     24  F   UNL     1       9.659   6.980 -11.240  0.00  0.00    -0.166 F 
ATOM     25  F   UNL     1       8.242   7.410  -9.500  0.00  0.00    -0.166 F 
ENDBRANCH  20  22
ENDBRANCH  13  16
ENDBRANCH   3   8
BRANCH   7  26
ATOM     26  N   UNL     1       6.241  -1.010  -2.066  0.00  0.00    -0.216 N 
ATOM     27  H   UNL     1       6.915  -1.501  -2.562  0.00  0.00    +0.174 HD
BRANCH  26  28
ATOM     28  S   UNL     1       5.970  -1.360  -0.470  0.00  0.00    +0.072 S 
ATOM     29  O   UNL     1       6.061  -0.131   0.236  0.00  0.00    -0.150 OA
ATOM     30  O   UNL     1       6.784  -2.482  -0.156  0.00  0.00    -0.150 OA
BRANCH  28  31
ATOM     31  C   UNL     1       4.297  -1.897  -0.332  0.00  0.00    +0.108 A 
ATOM     32  C   UNL     1       3.988  -3.238  -0.466  0.00  0.00    +0.029 A 
ATOM     33  C   UNL     1       2.676  -3.659  -0.358  0.00  0.00    +0.002 A 
ATOM     34  C   UNL     1       1.673  -2.740  -0.115  0.00  0.00    +0.000 A 
ATOM     35  C   UNL     1       1.982  -1.399   0.020  0.00  0.00    +0.002 A 
ATOM     36  C   UNL     1       3.294  -0.978  -0.089  0.00  0.00    +0.029 A 
ENDBRANCH  28  31
ENDBRANCH  26  28
ENDBRANCH   7  26
TORSDOF 6
