REMARK  Name = ZINC17449114
REMARK  5 active torsions:
REMARK  status: ('A' for Active; 'I' for Inactive)
REMARK    1  A    between atoms: C_1  and  C_2
REMARK    2  A    between atoms: C_10  and  C_11
REMARK    3  A    between atoms: N_13  and  N_14
REMARK    4  A    between atoms: C_15  and  C_17
REMARK    5  A    between atoms: C_23  and  C_25
REMARK                            x       y       z     vdW  Elec       q    Type
REMARK                         _______ _______ _______ _____ _____    ______ ____
ROOT
ATOM      1  N   UNL     1       1.076  -1.178   4.549  0.00  0.00    -0.234 N 
ATOM      2  C   UNL     1       1.085  -2.077   5.553  0.00  0.00    +0.232 C 
ATOM      3  O   UNL     1       1.348  -3.239   5.325  0.00  0.00    -0.274 OA
ATOM      4  H   UNL     1       0.865  -0.249   4.731  0.00  0.00    +0.173 HD
ENDROOT
BRANCH   2   5
ATOM      5  C   UNL     1       0.767  -1.639   6.959  0.00  0.00    +0.079 C 
ATOM      6  C   UNL     1       1.776  -0.578   7.403  0.00  0.00    +0.032 C 
ATOM      7  C   UNL     1       1.430  -0.110   8.820  0.00  0.00    +0.109 C 
ATOM      8  N   UNL     1       1.361  -1.283   9.702  0.00  0.00    -0.295 N 
ATOM      9  C   UNL     1       0.489  -2.402   9.322  0.00  0.00    +0.109 C 
ATOM     10  C   UNL     1       0.846  -2.845   7.899  0.00  0.00    +0.032 C 
ATOM     11  C   UNL     1       2.085  -1.331  10.838  0.00  0.00    +0.282 C 
ATOM     12  O   UNL     1       2.901  -0.461  11.077  0.00  0.00    -0.267 OA
BRANCH  11  13
ATOM     13  C   UNL     1       1.889  -2.433  11.786  0.00  0.00    +0.189 A 
ATOM     14  C   UNL     1       2.648  -2.684  12.892  0.00  0.00    +0.054 A 
ATOM     15  C   UNL     1       2.107  -3.826  13.502  0.00  0.00    +0.042 A 
ATOM     16  C   UNL     1       1.055  -4.218  12.751  0.00  0.00    +0.196 A 
ATOM     17  O   UNL     1       0.923  -3.373  11.720  0.00  0.00    -0.458 OA
ENDBRANCH  11  13
ENDBRANCH   2   5
BRANCH   1  20
ATOM     18  C   UNL     1       1.362  -0.687   2.237  0.00  0.00    +0.296 C 
ATOM     19  O   UNL     1       1.098   0.478   2.466  0.00  0.00    -0.265 OA
ATOM     20  N   UNL     1       1.371  -1.586   3.241  0.00  0.00    -0.228 N 
ATOM     21  H   UNL     1       1.582  -2.515   3.059  0.00  0.00    +0.173 HD
BRANCH  18  31
ATOM     22  C   UNL     1       1.411   1.180  -0.249  0.00  0.00    +0.048 C 
ATOM     23  C   UNL     1       1.694  -0.299  -0.221  0.00  0.00    +0.008 A 
ATOM     24  C   UNL     1       2.053  -1.148  -1.357  0.00  0.00    +0.024 A 
ATOM     25  C   UNL     1       2.241  -0.919  -2.722  0.00  0.00    +0.012 A 
ATOM     26  C   UNL     1       2.583  -1.958  -3.541  0.00  0.00    +0.001 A 
ATOM     27  C   UNL     1       2.744  -3.237  -3.026  0.00  0.00    +0.004 A 
ATOM     28  C   UNL     1       2.563  -3.483  -1.683  0.00  0.00    +0.047 A 
ATOM     29  C   UNL     1       2.215  -2.443  -0.829  0.00  0.00    +0.136 A 
ATOM     30  O   UNL     1       1.976  -2.376   0.495  0.00  0.00    -0.450 OA
ATOM     31  C   UNL     1       1.672  -1.114   0.866  0.00  0.00    +0.195 A 
ENDBRANCH  18  31
ENDBRANCH   1  20
TORSDOF 4
