REMARK  Name = ZINC63513888
REMARK  9 active torsions:
REMARK  status: ('A' for Active; 'I' for Inactive)
REMARK    1  A    between atoms: C_1  and  C_2
REMARK    2  A    between atoms: C_4  and  C_12
REMARK    3  A    between atoms: C_12  and  C_13
REMARK    4  A    between atoms: C_13  and  N_14
REMARK    5  A    between atoms: C_15  and  C_17
REMARK    6  A    between atoms: C_17  and  N_25
REMARK    7  A    between atoms: C_18  and  C_19
REMARK    8  A    between atoms: C_26  and  C_28
REMARK    9  A    between atoms: C_32  and  N_34
REMARK                            x       y       z     vdW  Elec       q    Type
REMARK                         _______ _______ _______ _____ _____    ______ ____
ROOT
ATOM      1  C   UNL     1       1.151  -1.214  -7.332  0.00  0.00    +0.097 C 
ATOM      2  C   UNL     1       0.382  -0.158  -7.687  0.00  0.00    +0.036 C 
ENDROOT
BRANCH   2   3
ATOM      3  C   UNL     1       0.160   0.144  -9.109  0.00  0.00    -0.023 A 
ATOM      4  C   UNL     1       0.397  -0.832 -10.081  0.00  0.00    +0.008 A 
ATOM      5  C   UNL     1       0.186  -0.541 -11.412  0.00  0.00    +0.001 A 
ATOM      6  C   UNL     1      -0.259   0.715 -11.787  0.00  0.00    +0.000 A 
ATOM      7  C   UNL     1      -0.497   1.687 -10.831  0.00  0.00    +0.001 A 
ATOM      8  C   UNL     1      -0.296   1.409  -9.496  0.00  0.00    +0.008 A 
ENDBRANCH   2   3
BRANCH   1  10
ATOM      9  N   UNL     1       0.573  -0.922  -4.978  0.00  0.00    -0.310 N 
ATOM     10  C   UNL     1       1.249  -1.610  -5.920  0.00  0.00    +0.258 C 
ATOM     11  O   UNL     1       1.940  -2.559  -5.601  0.00  0.00    -0.269 OA
ATOM     12  H   UNL     1       0.022  -0.165  -5.232  0.00  0.00    +0.149 HD
BRANCH   9  13
ATOM     13  C   UNL     1       0.670  -1.317  -3.571  0.00  0.00    +0.109 C 
BRANCH  13  14
ATOM     14  C   UNL     1      -0.186  -0.380  -2.717  0.00  0.00    +0.052 C 
BRANCH  14  17
ATOM     15  C   UNL     1      -0.324   1.327   0.035  0.00  0.00    +0.035 C 
ATOM     16  C   UNL     1      -0.771  -0.131  -0.092  0.00  0.00    +0.103 C 
ATOM     17  C   UNL     1      -0.086  -0.786  -1.270  0.00  0.00    -0.037 C 
ATOM     18  C   UNL     1       0.636  -1.810  -0.761  0.00  0.00    -0.001 A 
ATOM     19  C   UNL     1       1.509  -2.815  -1.379  0.00  0.00    +0.010 A 
ATOM     20  C   UNL     1       2.109  -3.737  -0.592  0.00  0.00    +0.001 A 
ATOM     21  C   UNL     1       1.918  -3.757   0.797  0.00  0.00    +0.002 A 
ATOM     22  C   UNL     1       1.130  -2.867   1.437  0.00  0.00    +0.026 A 
ATOM     23  C   UNL     1       0.450  -1.853   0.707  0.00  0.00    +0.043 A 
ATOM     24  N   UNL     1      -0.356  -0.892   1.092  0.00  0.00    -0.378 N 
ATOM     25  H   UNL     1      -0.632  -0.714   2.005  0.00  0.00    +0.160 HD
ENDBRANCH  14  17
ENDBRANCH  13  14
ENDBRANCH   9  13
ENDBRANCH   1  10
BRANCH   1  26
ATOM     26  N   UNL     1       1.851  -1.927  -8.309  0.00  0.00    -0.277 N 
ATOM     27  C   UNL     1       1.651  -3.253  -8.448  0.00  0.00    +0.248 C 
ATOM     28  O   UNL     1       0.946  -3.848  -7.657  0.00  0.00    -0.270 OA
ATOM     29  H   UNL     1       2.482  -1.468  -8.886  0.00  0.00    +0.155 HD
BRANCH  27  30
ATOM     30  C   UNL     1       2.289  -3.983  -9.564  0.00  0.00    +0.039 A 
ATOM     31  C   UNL     1       3.192  -3.329 -10.404  0.00  0.00    +0.013 A 
ATOM     32  C   UNL     1       3.785  -4.017 -11.443  0.00  0.00    +0.003 A 
ATOM     33  C   UNL     1       3.486  -5.351 -11.653  0.00  0.00    +0.033 A 
ATOM     34  C   UNL     1       2.592  -6.005 -10.824  0.00  0.00    +0.127 A 
ATOM     35  C   UNL     1       1.997  -5.331  -9.778  0.00  0.00    +0.045 A 
BRANCH  34  36
ATOM     36  N   UNL     1       2.278  -7.433 -11.056  0.00  0.00    +0.056 N 
ATOM     37  O   UNL     1       2.802  -8.026 -11.970  0.00  0.00    -0.126 OA
ATOM     38  O   UNL     1       1.497  -8.006 -10.332  0.00  0.00    -0.126 OA
ENDBRANCH  34  36
ENDBRANCH  27  30
ENDBRANCH   1  26
TORSDOF 8
