REMARK  Name = ZINC19403735
REMARK  3 active torsions:
REMARK  status: ('A' for Active; 'I' for Inactive)
REMARK    1  A    between atoms: C_8  and  C_11
REMARK    2  A    between atoms: N_13  and  C_14
REMARK    3  A    between atoms: C_19  and  N_20
REMARK                            x       y       z     vdW  Elec       q    Type
REMARK                         _______ _______ _______ _____ _____    ______ ____
ROOT
ATOM      1  C   UNL     1       1.672  -1.734  -0.298  0.00  0.00    +0.258 C 
ATOM      2  O   UNL     1       0.942  -2.182  -1.157  0.00  0.00    -0.271 OA
ATOM      3  N   UNL     1       2.824  -2.365   0.003  0.00  0.00    -0.281 N 
ATOM      4  H   UNL     1       3.530  -1.913   0.715  0.00  0.00    +0.155 HD
ENDROOT
BRANCH   1  12
ATOM      5  C   UNL     1       0.380   4.097   0.048  0.00  0.00    +0.000 A 
ATOM      6  C   UNL     1      -0.905   3.586   0.058  0.00  0.00    +0.004 A 
ATOM      7  C   UNL     1      -1.113   2.222   0.046  0.00  0.00    +0.046 A 
ATOM      8  C   UNL     1      -0.029   1.347   0.032  0.00  0.00    +0.125 A 
ATOM      9  C   UNL     1       1.257   1.873   0.028  0.00  0.00    -0.002 A 
ATOM     10  C   UNL     1       1.462   3.235   0.033  0.00  0.00    +0.007 A 
ATOM     11  C   UNL     1       2.216   0.699   0.022  0.00  0.00    +0.093 C 
ATOM     12  C   UNL     1       1.291  -0.472   0.432  0.00  0.00    +0.263 C 
ATOM     13  O   UNL     1      -0.006  -0.014   0.014  0.00  0.00    -0.479 OA
ENDBRANCH   1  12
BRANCH   3  14
ATOM     14  C   UNL     1       3.123  -3.599  -0.592  0.00  0.00    +0.054 A 
ATOM     15  C   UNL     1       2.102  -4.414  -1.055  0.00  0.00    +0.025 A 
ATOM     16  C   UNL     1       2.399  -5.629  -1.642  0.00  0.00    +0.002 A 
ATOM     17  C   UNL     1       3.714  -6.037  -1.769  0.00  0.00    +0.002 A 
ATOM     18  C   UNL     1       4.739  -5.232  -1.310  0.00  0.00    +0.024 A 
ATOM     19  C   UNL     1       4.450  -4.007  -0.725  0.00  0.00    +0.046 A 
BRANCH  19  20
ATOM     20  N   UNL     1       5.486  -3.188  -0.265  0.00  0.00    -0.357 N 
ATOM     21  H   UNL     1       6.532  -3.512  -0.370  0.00  0.00    +0.142 HD
ATOM     22  H   UNL     1       5.255  -2.219   0.203  0.00  0.00    +0.142 HD
ENDBRANCH  19  20
ENDBRANCH   3  14
TORSDOF 3
