REMARK  Name = ZINC31749178
REMARK  9 active torsions:
REMARK  status: ('A' for Active; 'I' for Inactive)
REMARK    1  A    between atoms: C_1  and  C_2
REMARK    2  A    between atoms: C_2  and  C_3
REMARK    3  A    between atoms: C_2  and  C_4
REMARK    4  A    between atoms: C_7  and  C_10
REMARK    5  A    between atoms: C_10  and  C_33
REMARK    6  A    between atoms: N_13  and  C_17
REMARK    7  A    between atoms: C_17  and  C_18
REMARK    8  A    between atoms: N_20  and  C_21
REMARK    9  A    between atoms: C_22  and  C_30
REMARK                            x       y       z     vdW  Elec       q    Type
REMARK                         _______ _______ _______ _____ _____    ______ ____
ROOT
ATOM      1  C   UNL     1      -6.140  -5.643   0.244  0.00  0.00    +0.214 C 
ENDROOT
BRANCH   1   5
ATOM      2  C   UNL     1      -5.419  -2.005   0.043  0.00  0.00    +0.135 C 
ATOM      3  C   UNL     1      -5.481  -3.389  -0.572  0.00  0.00    +0.251 C 
ATOM      4  O   UNL     1      -5.189  -3.699  -1.707  0.00  0.00    -0.272 OA
ATOM      5  N   UNL     1      -5.928  -4.202   0.405  0.00  0.00    -0.215 N 
ATOM      6  C   UNL     1      -6.154  -3.531   1.541  0.00  0.00    +0.310 C 
ATOM      7  O   UNL     1      -6.561  -4.050   2.562  0.00  0.00    -0.252 OA
ATOM      8  N   UNL     1      -5.881  -2.219   1.425  0.00  0.00    -0.281 N 
ATOM      9  C   UNL     1      -6.353  -1.042  -0.693  0.00  0.00    +0.047 C 
ATOM     10  H   UNL     1      -5.971  -1.546   2.118  0.00  0.00    +0.152 HD
BRANCH   2  14
ATOM     11  C   UNL     1      -1.412  -0.526   0.013  0.00  0.00    -0.045 A 
ATOM     12  C   UNL     1      -2.259  -0.204   1.056  0.00  0.00    +0.004 A 
ATOM     13  C   UNL     1      -3.556  -0.683   1.066  0.00  0.00    +0.006 A 
ATOM     14  C   UNL     1      -4.006  -1.482   0.032  0.00  0.00    -0.015 A 
ATOM     15  C   UNL     1      -3.159  -1.803  -1.012  0.00  0.00    +0.006 A 
ATOM     16  C   UNL     1      -1.863  -1.321  -1.024  0.00  0.00    +0.004 A 
BRANCH  11  18
ATOM     17  C   UNL     1      -0.019   1.526   0.010  0.00  0.00    +0.012 C 
ATOM     18  C   UNL     1       0.002  -0.004   0.002  0.00  0.00    +0.013 C 
ATOM     19  C   UNL     1       0.742  -0.511   1.242  0.00  0.00    +0.012 C 
ENDBRANCH  11  18
ENDBRANCH   2  14
ENDBRANCH   1   5
BRANCH   1  20
ATOM     20  C   UNL     1      -4.874  -6.380   0.598  0.00  0.00    +0.236 C 
ATOM     21  O   UNL     1      -3.891  -5.762   0.951  0.00  0.00    -0.274 OA
ATOM     22  N   UNL     1      -4.834  -7.725   0.523  0.00  0.00    -0.278 N 
ATOM     23  H   UNL     1      -5.620  -8.219   0.242  0.00  0.00    +0.155 HD
BRANCH  22  24
ATOM     24  C   UNL     1      -3.669  -8.403   0.850  0.00  0.00    +0.084 A 
ATOM     25  C   UNL     1      -3.444  -9.770   0.826  0.00  0.00    +0.068 A 
ATOM     26  C   UNL     1      -2.124 -10.233   1.217  0.00  0.00    -0.023 A 
ATOM     27  C   UNL     1      -1.271  -9.243   1.560  0.00  0.00    -0.004 A 
ATOM     28  S   UNL     1      -2.205  -7.755   1.356  0.00  0.00    -0.077 S 
ATOM     29  C   UNL     1       0.150  -9.396   2.007  0.00  0.00    +0.043 C 
ATOM     30  C   UNL     1       0.383 -10.867   2.381  0.00  0.00    +0.005 C 
ATOM     31  C   UNL     1      -0.167 -11.756   1.262  0.00  0.00    +0.005 C 
ATOM     32  C   UNL     1      -1.696 -11.693   1.251  0.00  0.00    +0.037 C 
BRANCH  25  33
ATOM     33  C   UNL     1      -4.495 -10.710   0.424  0.00  0.00    +0.244 C 
ATOM     34  O   UNL     1      -4.610 -11.031  -0.745  0.00  0.00    -0.270 OA
ATOM     35  N   UNL     1      -5.333 -11.220   1.348  0.00  0.00    -0.325 N 
ATOM     36  H   UNL     1      -5.242 -10.964   2.279  0.00  0.00    +0.145 HD
ATOM     37  H   UNL     1      -6.028 -11.841   1.082  0.00  0.00    +0.145 HD
ENDBRANCH  25  33
ENDBRANCH  22  24
ENDBRANCH   1  20
TORSDOF 6
