REMARK  Name = ZINC63301860
REMARK  10 active torsions:
REMARK  status: ('A' for Active; 'I' for Inactive)
REMARK    1  A    between atoms: C_1  and  C_2
REMARK    2  A    between atoms: C_2  and  C_3
REMARK    3  A    between atoms: C_2  and  C_4
REMARK    4  A    between atoms: C_2  and  N_5
REMARK    5  A    between atoms: C_9  and  C_11
REMARK    6  A    between atoms: C_11  and  N_12
REMARK    7  A    between atoms: C_15  and  C_18
REMARK    8  A    between atoms: N_20  and  C_21
REMARK    9  A    between atoms: C_21  and  C_22
REMARK   10  A    between atoms: C_22  and  C_23
REMARK                            x       y       z     vdW  Elec       q    Type
REMARK                         _______ _______ _______ _____ _____    ______ ____
ROOT
ATOM      1  N   UNL     1       5.970  -0.200  -4.010  0.00  0.00    +0.385 N 
ATOM      2  C   UNL     1       6.710  -0.775  -2.881  0.00  0.00    -0.077 C 
ATOM      3  C   UNL     1       8.122  -0.187  -2.839  0.00  0.00    -0.006 C 
ATOM      4  C   UNL     1       8.846  -0.518  -4.148  0.00  0.00    +0.071 C 
ATOM      5  C   UNL     1       8.026   0.023  -5.324  0.00  0.00    -0.006 C 
ATOM      6  C   UNL     1       6.618  -0.574  -5.273  0.00  0.00    -0.077 C 
ATOM      7  H   UNL     1       5.957   0.805  -3.924  0.00  0.00    -0.081 HD
ENDROOT
BRANCH   4   8
ATOM      8  C   UNL     1      10.209   0.125  -4.147  0.00  0.00    +0.216 C 
ATOM      9  O   UNL     1      10.568   0.783  -3.193  0.00  0.00    -0.276 OA
ATOM     10  N   UNL     1      11.029  -0.032  -5.205  0.00  0.00    -0.315 N 
ATOM     11  H   UNL     1      10.742  -0.558  -5.967  0.00  0.00    +0.149 HD
BRANCH  10  12
ATOM     12  C   UNL     1      12.354   0.593  -5.203  0.00  0.00    +0.109 C 
BRANCH  12  13
ATOM     13  C   UNL     1      13.075   0.262  -6.511  0.00  0.00    +0.061 C 
BRANCH  13  14
ATOM     14  C   UNL     1      14.438   0.905  -6.510  0.00  0.00    -0.009 A 
ATOM     15  C   UNL     1      15.618   0.403  -6.071  0.00  0.00    +0.011 A 
ATOM     16  C   UNL     1      16.756   1.181  -6.170  0.00  0.00    +0.008 A 
ATOM     17  C   UNL     1      16.659   2.423  -6.704  0.00  0.00    +0.045 A 
ATOM     18  S   UNL     1      14.919   2.522  -7.093  0.00  0.00    -0.102 S 
ENDBRANCH  13  14
ENDBRANCH  12  13
ENDBRANCH  10  12
ENDBRANCH   4   8
BRANCH   1  19
ATOM     19  C   UNL     1       4.591  -0.709  -3.999  0.00  0.00    +0.019 C 
BRANCH  19  24
ATOM     20  N   UNL     1       0.688  -0.476  -1.203  0.00  0.00    -0.294 N 
ATOM     21  C   UNL     1       1.972  -0.132  -1.427  0.00  0.00    +0.306 C 
ATOM     22  O   UNL     1       2.560   0.570  -0.629  0.00  0.00    -0.252 OA
ATOM     23  N   UNL     1       2.602  -0.567  -2.536  0.00  0.00    -0.242 N 
ATOM     24  C   UNL     1       3.886  -0.223  -2.760  0.00  0.00    +0.204 C 
ATOM     25  O   UNL     1       4.473   0.478  -1.963  0.00  0.00    -0.277 OA
ATOM     26  H   UNL     1       0.218  -1.037  -1.840  0.00  0.00    +0.151 HD
ATOM     27  H   UNL     1       2.132  -1.127  -3.173  0.00  0.00    +0.159 HD
BRANCH  20  29
ATOM     28  C   UNL     1      -0.019   1.526   0.010  0.00  0.00    +0.031 C 
ATOM     29  C   UNL     1       0.002  -0.004   0.002  0.00  0.00    +0.028 C 
ATOM     30  C   UNL     1       0.742  -0.511   1.242  0.00  0.00    +0.031 C 
ATOM     31  C   UNL     1      -1.433  -0.534   0.013  0.00  0.00    +0.031 C 
ENDBRANCH  20  29
ENDBRANCH  19  24
ENDBRANCH   1  19
TORSDOF 7
