REMARK  Name = ZINC39676712
REMARK  8 active torsions:
REMARK  status: ('A' for Active; 'I' for Inactive)
REMARK    1  A    between atoms: C_1  and  C_2
REMARK    2  A    between atoms: C_2  and  C_4
REMARK    3  A    between atoms: C_2  and  N_12
REMARK    4  A    between atoms: C_8  and  O_10
REMARK    5  A    between atoms: O_10  and  C_11
REMARK    6  A    between atoms: C_13  and  C_15
REMARK    7  A    between atoms: C_26  and  C_28
REMARK    8  A    between atoms: C_28  and  C_34
REMARK                            x       y       z     vdW  Elec       q    Type
REMARK                         _______ _______ _______ _____ _____    ______ ____
ROOT
ATOM      1  C   UNL     1      -3.450  -1.202   1.197  0.00  0.00    +0.100 C 
ATOM      2  C   UNL     1      -4.400  -0.172   0.546  0.00  0.00    +0.121 C 
ATOM      3  N   UNL     1      -5.639  -0.242   1.355  0.00  0.00    -0.300 N 
ATOM      4  C   UNL     1      -5.161  -0.392   2.750  0.00  0.00    +0.115 C 
ATOM      5  C   UNL     1      -3.953  -1.343   2.644  0.00  0.00    -0.004 C 
ATOM      6  C   UNL     1      -2.863  -0.922   3.625  0.00  0.00    -0.010 C 
ATOM      7  C   UNL     1      -3.365  -1.126   5.057  0.00  0.00    -0.082 C 
ATOM      8  N   UNL     1      -3.714  -2.538   5.259  0.00  0.00    +0.379 N 
ATOM      9  C   UNL     1      -4.827  -2.909   4.375  0.00  0.00    -0.082 C 
ATOM     10  C   UNL     1      -4.386  -2.780   2.915  0.00  0.00    -0.010 C 
ATOM     11  C   UNL     1      -6.914  -0.183   0.920  0.00  0.00    +0.222 C 
ATOM     12  O   UNL     1      -7.827  -0.171   1.718  0.00  0.00    -0.275 OA
ATOM     13  H   UNL     1      -2.913  -3.114   5.049  0.00  0.00    -0.086 HD
ATOM     14  H   UNL     1      -3.987  -2.682   6.219  0.00  0.00    -0.086 HD
ENDROOT
BRANCH  11  15
ATOM     15  C   UNL     1      -7.204  -0.132  -0.558  0.00  0.00    +0.044 C 
ATOM     16  C   UNL     1      -6.454   1.045  -1.185  0.00  0.00    +0.016 C 
ATOM     17  C   UNL     1      -6.913   2.350  -0.529  0.00  0.00    +0.001 C 
ATOM     18  C   UNL     1      -8.416   2.529  -0.748  0.00  0.00    +0.000 C 
ATOM     19  C   UNL     1      -9.167   1.352  -0.121  0.00  0.00    +0.001 C 
ATOM     20  C   UNL     1      -8.708   0.048  -0.776  0.00  0.00    +0.016 C 
ATOM     21  C   UNL     1      -6.746  -1.436  -1.213  0.00  0.00    +0.021 C 
ENDBRANCH  11  15
BRANCH   1  23
ATOM     22  N   UNL     1      -1.004  -1.554   1.304  0.00  0.00    -0.308 N 
ATOM     23  C   UNL     1      -2.032  -0.691   1.182  0.00  0.00    +0.219 C 
ATOM     24  O   UNL     1      -1.817   0.496   1.059  0.00  0.00    -0.275 OA
ATOM     25  H   UNL     1      -1.177  -2.503   1.403  0.00  0.00    +0.149 HD
BRANCH  22  27
ATOM     26  C   UNL     1       0.852  -0.922  -0.158  0.00  0.00    +0.033 C 
ATOM     27  C   UNL     1       0.374  -1.057   1.289  0.00  0.00    +0.100 C 
BRANCH  27  28
ATOM     28  C   UNL     1       1.265  -2.026   2.024  0.00  0.00    -0.024 A 
ATOM     29  C   UNL     1       1.083  -3.388   1.867  0.00  0.00    +0.005 A 
ATOM     30  C   UNL     1       1.898  -4.279   2.539  0.00  0.00    +0.004 A 
ATOM     31  C   UNL     1       2.897  -3.811   3.370  0.00  0.00    +0.045 A 
ATOM     32  C   UNL     1       3.083  -2.445   3.529  0.00  0.00    +0.120 A 
ATOM     33  C   UNL     1       2.267  -1.553   2.849  0.00  0.00    +0.051 A 
BRANCH  32  34
ATOM     34  O   UNL     1       4.065  -1.982   4.346  0.00  0.00    -0.495 OA
ATOM     35  C   UNL     1       4.870  -2.958   5.010  0.00  0.00    +0.277 C 
ENDBRANCH  32  34
ENDBRANCH  27  28
ENDBRANCH  22  27
ENDBRANCH   1  23
TORSDOF 5
