REMARK  Name = ZINC14944234
REMARK  4 active torsions:
REMARK  status: ('A' for Active; 'I' for Inactive)
REMARK    1  A    between atoms: C_3  and  C_9
REMARK    2  A    between atoms: C_5  and  C_7
REMARK    3  A    between atoms: C_20  and  S_25
REMARK    4  A    between atoms: S_25  and  N_28
REMARK                            x       y       z     vdW  Elec       q    Type
REMARK                         _______ _______ _______ _____ _____    ______ ____
ROOT
ATOM      1  C   UNL     1      -3.735   1.691   0.072  0.00  0.00    +0.105 C 
ATOM      2  C   UNL     1      -3.531   2.976   0.855  0.00  0.00    +0.029 C 
ATOM      3  C   UNL     1      -4.702   3.962   0.862  0.00  0.00    +0.033 C 
ATOM      4  C   UNL     1      -3.962   5.289   1.046  0.00  0.00    -0.030 C 
ATOM      5  C   UNL     1      -2.728   5.191   0.569  0.00  0.00    -0.023 C 
ATOM      6  C   UNL     1      -2.544   3.830   0.003  0.00  0.00    +0.049 C 
ATOM      7  C   UNL     1      -1.230   3.150   0.016  0.00  0.00    -0.018 A 
ATOM      8  C   UNL     1      -0.039   3.843   0.012  0.00  0.00    +0.034 A 
ATOM      9  C   UNL     1       1.164   3.161   0.006  0.00  0.00    +0.109 A 
ATOM     10  C   UNL     1       1.175   1.778   0.000  0.00  0.00    +0.030 A 
ATOM     11  C   UNL     1      -0.013   1.076   0.008  0.00  0.00    +0.025 A 
ATOM     12  C   UNL     1      -1.227   1.751   0.017  0.00  0.00    +0.031 A 
ATOM     13  N   UNL     1      -2.419   1.016   0.065  0.00  0.00    -0.336 N 
ATOM     14  H   UNL     1      -2.380   0.047   0.091  0.00  0.00    +0.147 HD
ENDROOT
BRANCH   1  17
ATOM     15  C   UNL     1      -5.335  -0.747   2.475  0.00  0.00    +0.001 A 
ATOM     16  C   UNL     1      -4.399   0.052   1.843  0.00  0.00    +0.005 A 
ATOM     17  C   UNL     1      -4.761   0.824   0.754  0.00  0.00    -0.026 A 
ATOM     18  C   UNL     1      -6.062   0.805   0.294  0.00  0.00    +0.020 A 
ATOM     19  C   UNL     1      -7.011  -0.002   0.923  0.00  0.00    +0.063 A 
ATOM     20  C   UNL     1      -6.638  -0.779   2.023  0.00  0.00    +0.015 A 
BRANCH  19  21
ATOM     21  C   UNL     1      -8.404  -0.031   0.433  0.00  0.00    +0.387 C 
ATOM     22  O   UNL     1      -8.725   0.646  -0.523  0.00  0.00    -0.241 OA
ATOM     23  O   UNL     1      -9.318  -0.807   1.046  0.00  0.00    -0.241 OA
ENDBRANCH  19  21
ENDBRANCH   1  17
BRANCH   9  24
ATOM     24  S   UNL     1       2.683   4.055   0.005  0.00  0.00    +0.075 S 
ATOM     25  O   UNL     1       2.403   5.332   0.562  0.00  0.00    -0.150 OA
ATOM     26  O   UNL     1       3.665   3.185   0.550  0.00  0.00    -0.150 OA
BRANCH  24  27
ATOM     27  N   UNL     1       3.101   4.309  -1.577  0.00  0.00    -0.184 N 
ATOM     28  C   UNL     1       2.307   5.107  -2.383  0.00  0.00    +0.235 A 
ATOM     29  N   UNL     1       1.080   5.409  -1.986  0.00  0.00    -0.222 NA
ATOM     30  C   UNL     1       0.298   6.173  -2.729  0.00  0.00    +0.116 A 
ATOM     31  C   UNL     1       0.772   6.650  -3.941  0.00  0.00    +0.039 A 
ATOM     32  C   UNL     1       2.059   6.310  -4.329  0.00  0.00    +0.116 A 
ATOM     33  N   UNL     1       2.791   5.546  -3.535  0.00  0.00    -0.222 NA
ATOM     34  H   UNL     1       3.902   3.899  -1.939  0.00  0.00    +0.177 HD
ENDBRANCH  24  27
ENDBRANCH   9  24
TORSDOF 4
