REMARK  Name = ZINC36221199
REMARK  7 active torsions:
REMARK  status: ('A' for Active; 'I' for Inactive)
REMARK    1  A    between atoms: C_4  and  C_7
REMARK    2  A    between atoms: C_7  and  N_8
REMARK    3  A    between atoms: C_9  and  C_32
REMARK    4  A    between atoms: C_11  and  C_16
REMARK    5  A    between atoms: C_20  and  N_22
REMARK    6  A    between atoms: C_23  and  C_25
REMARK    7  A    between atoms: N_34  and  C_35
REMARK                            x       y       z     vdW  Elec       q    Type
REMARK                         _______ _______ _______ _____ _____    ______ ____
ROOT
ATOM      1  N   UNL     1       4.535  -0.538   1.437  0.00  0.00    -0.248 N 
ATOM      2  C   UNL     1       5.406   0.055   2.471  0.00  0.00    +0.211 C 
ATOM      3  C   UNL     1       4.972  -0.712   3.743  0.00  0.00    +0.238 C 
ATOM      4  O   UNL     1       4.433  -1.929   3.191  0.00  0.00    -0.440 OA
ATOM      5  C   UNL     1       3.998  -1.662   1.948  0.00  0.00    +0.405 C 
ATOM      6  O   UNL     1       3.207  -2.362   1.347  0.00  0.00    -0.226 OA
ENDROOT
BRANCH   3   7
ATOM      7  C   UNL     1       6.157  -1.000   4.628  0.00  0.00    -0.003 A 
ATOM      8  C   UNL     1       6.997  -2.059   4.335  0.00  0.00    +0.007 A 
ATOM      9  C   UNL     1       8.085  -2.327   5.144  0.00  0.00    +0.002 A 
ATOM     10  C   UNL     1       8.336  -1.538   6.250  0.00  0.00    +0.023 A 
ATOM     11  C   UNL     1       7.494  -0.474   6.548  0.00  0.00    +0.034 A 
ATOM     12  C   UNL     1       6.405  -0.204   5.729  0.00  0.00    +0.030 A 
BRANCH  11  13
ATOM     13  N   UNL     1       7.746   0.326   7.666  0.00  0.00    -0.281 N 
ATOM     14  C   UNL     1       9.015   0.564   8.054  0.00  0.00    +0.251 C 
ATOM     15  O   UNL     1       9.942   0.160   7.379  0.00  0.00    -0.270 OA
ATOM     16  H   UNL     1       7.007   0.711   8.163  0.00  0.00    +0.155 HD
BRANCH  14  17
ATOM     17  C   UNL     1       9.279   1.314   9.298  0.00  0.00    +0.072 A 
ATOM     18  C   UNL     1       8.216   1.775  10.079  0.00  0.00    +0.016 A 
ATOM     19  C   UNL     1       8.469   2.474  11.239  0.00  0.00    +0.001 A 
ATOM     20  C   UNL     1       9.773   2.722  11.633  0.00  0.00    +0.003 A 
ATOM     21  C   UNL     1      10.832   2.271  10.867  0.00  0.00    +0.039 A 
ATOM     22  C   UNL     1      10.594   1.562   9.703  0.00  0.00    +0.135 A 
ATOM     23  F   UNL     1      11.628   1.116   8.958  0.00  0.00    -0.205 F 
ENDBRANCH  14  17
ENDBRANCH  11  13
ENDBRANCH   3   7
BRANCH   2  24
ATOM     24  C   UNL     1       5.142   1.532   2.613  0.00  0.00    +0.242 C 
ATOM     25  O   UNL     1       4.064   1.988   2.298  0.00  0.00    -0.273 OA
ATOM     26  N   UNL     1       6.105   2.345   3.091  0.00  0.00    -0.284 N 
ATOM     27  H   UNL     1       6.991   1.995   3.270  0.00  0.00    +0.155 HD
BRANCH  26  28
ATOM     28  C   UNL     1       5.825   3.696   3.327  0.00  0.00    +0.033 A 
ATOM     29  C   UNL     1       6.814   4.654   3.142  0.00  0.00    +0.023 A 
ATOM     30  C   UNL     1       6.535   5.986   3.377  0.00  0.00    +0.002 A 
ATOM     31  C   UNL     1       5.273   6.366   3.795  0.00  0.00    +0.000 A 
ATOM     32  C   UNL     1       4.287   5.415   3.981  0.00  0.00    +0.002 A 
ATOM     33  C   UNL     1       4.558   4.082   3.742  0.00  0.00    +0.023 A 
ENDBRANCH  26  28
ENDBRANCH   2  24
BRANCH   1  34
ATOM     34  C   UNL     1       4.293   0.004   0.097  0.00  0.00    +0.147 C 
BRANCH  34  38
ATOM     35  C   UNL     1       6.957  -1.837  -2.688  0.00  0.00    +0.000 A 
ATOM     36  C   UNL     1       5.760  -2.450  -2.368  0.00  0.00    +0.000 A 
ATOM     37  C   UNL     1       4.898  -1.854  -1.467  0.00  0.00    +0.005 A 
ATOM     38  C   UNL     1       5.233  -0.646  -0.885  0.00  0.00    -0.030 A 
ATOM     39  C   UNL     1       6.431  -0.034  -1.204  0.00  0.00    +0.005 A 
ATOM     40  C   UNL     1       7.292  -0.629  -2.106  0.00  0.00    +0.000 A 
ENDBRANCH  34  38
ENDBRANCH   1  34
TORSDOF 7
