REMARK  Name = ZINC66198462
REMARK  9 active torsions:
REMARK  status: ('A' for Active; 'I' for Inactive)
REMARK    1  A    between atoms: C_1  and  C_2
REMARK    2  A    between atoms: C_5  and  C_8
REMARK    3  A    between atoms: C_9  and  C_10
REMARK    4  A    between atoms: N_12  and  C_13
REMARK    5  A    between atoms: C_13  and  N_15
REMARK    6  A    between atoms: N_15  and  C_16
REMARK    7  A    between atoms: C_19  and  N_23
REMARK    8  A    between atoms: C_20  and  C_22
REMARK    9  A    between atoms: C_24  and  C_26
REMARK                            x       y       z     vdW  Elec       q    Type
REMARK                         _______ _______ _______ _____ _____    ______ ____
ROOT
ATOM      1  N   UNL     1       0.209  -9.096   3.427  0.00  0.00    -0.297 N 
ATOM      2  H   UNL     1       0.745  -8.630   2.766  0.00  0.00    +0.154 HD
ENDROOT
BRANCH   1   3
ATOM      3  C   UNL     1       0.265 -10.492   3.516  0.00  0.00    +0.033 A 
ATOM      4  C   UNL     1       0.308 -11.261   2.360  0.00  0.00    +0.025 A 
ATOM      5  C   UNL     1       0.363 -12.637   2.448  0.00  0.00    +0.025 A 
ATOM      6  C   UNL     1       0.377 -13.253   3.693  0.00  0.00    +0.037 A 
ATOM      7  C   UNL     1       0.335 -12.485   4.849  0.00  0.00    -0.027 A 
ATOM      8  C   UNL     1       0.285 -11.108   4.761  0.00  0.00    +0.028 A 
ATOM      9  C   UNL     1       0.349 -13.153   6.199  0.00  0.00    +0.046 C 
BRANCH   6  10
ATOM     10  N   UNL     1       0.433 -14.650   3.782  0.00  0.00    -0.281 N 
ATOM     11  C   UNL     1       0.023 -15.408   2.746  0.00  0.00    +0.248 C 
ATOM     12  O   UNL     1      -0.493 -14.886   1.777  0.00  0.00    -0.270 OA
ATOM     13  H   UNL     1       0.766 -15.071   4.590  0.00  0.00    +0.155 HD
BRANCH  11  14
ATOM     14  C   UNL     1       0.202 -16.875   2.788  0.00  0.00    +0.037 A 
ATOM     15  C   UNL     1       0.789 -17.478   3.901  0.00  0.00    +0.013 A 
ATOM     16  C   UNL     1       0.953 -18.848   3.934  0.00  0.00    +0.001 A 
ATOM     17  C   UNL     1       0.536 -19.623   2.866  0.00  0.00    +0.000 A 
ATOM     18  C   UNL     1      -0.046 -19.031   1.759  0.00  0.00    +0.001 A 
ATOM     19  C   UNL     1      -0.221 -17.663   1.716  0.00  0.00    +0.013 A 
ENDBRANCH  11  14
ENDBRANCH   6  10
ENDBRANCH   1   3
BRANCH   1  20
ATOM     20  C   UNL     1      -0.591  -8.399   4.258  0.00  0.00    +0.141 C 
ATOM     21  S   UNL     1      -1.643  -9.226   5.326  0.00  0.00    -0.018 S 
BRANCH  20  24
ATOM     22  C   UNL     1      -1.361  -6.355   5.082  0.00  0.00    +0.242 C 
ATOM     23  O   UNL     1      -2.109  -6.942   5.840  0.00  0.00    -0.270 OA
ATOM     24  N   UNL     1      -0.561  -7.051   4.250  0.00  0.00    -0.264 N 
ATOM     25  H   UNL     1       0.035  -6.583   3.645  0.00  0.00    +0.157 HD
BRANCH  22  27
ATOM     26  C   UNL     1      -2.129  -4.195   5.905  0.00  0.00    +0.013 C 
ATOM     27  C   UNL     1      -1.329  -4.892   5.072  0.00  0.00    +0.068 C 
BRANCH  26  32
ATOM     28  C   UNL     1      -2.003   1.552   5.870  0.00  0.00    +0.044 C 
ATOM     29  C   UNL     1      -2.036   0.046   5.879  0.00  0.00    -0.050 A 
ATOM     30  C   UNL     1      -2.889  -0.619   6.743  0.00  0.00    +0.004 A 
ATOM     31  C   UNL     1      -2.925  -1.997   6.757  0.00  0.00    +0.008 A 
ATOM     32  C   UNL     1      -2.097  -2.723   5.896  0.00  0.00    -0.025 A 
ATOM     33  C   UNL     1      -1.238  -2.045   5.025  0.00  0.00    +0.008 A 
ATOM     34  C   UNL     1      -1.218  -0.666   5.019  0.00  0.00    +0.004 A 
ENDBRANCH  26  32
ENDBRANCH  22  27
ENDBRANCH  20  24
ENDBRANCH   1  20
TORSDOF 7
