REMARK  Name = ZINC03664910
REMARK  10 active torsions:
REMARK  status: ('A' for Active; 'I' for Inactive)
REMARK    1  A    between atoms: C_1  and  C_2
REMARK    2  A    between atoms: C_2  and  O_3
REMARK    3  A    between atoms: O_3  and  C_4
REMARK    4  A    between atoms: C_4  and  C_6
REMARK    5  A    between atoms: C_10  and  N_11
REMARK    6  A    between atoms: C_14  and  C_21
REMARK    7  A    between atoms: C_16  and  C_19
REMARK    8  A    between atoms: C_17  and  N_18
REMARK    9  A    between atoms: C_30  and  C_32
REMARK   10  A    between atoms: C_30  and  C_33
REMARK                            x       y       z     vdW  Elec       q    Type
REMARK                         _______ _______ _______ _____ _____    ______ ____
ROOT
ATOM      1  N   UNL     1      -1.850   6.935  -1.723  0.00  0.00    -0.254 N 
ATOM      2  C   UNL     1      -2.019   7.207  -3.057  0.00  0.00    +0.025 C 
ATOM      3  C   UNL     1      -1.876   8.461  -3.527  0.00  0.00    +0.025 C 
ATOM      4  C   UNL     1      -1.515   9.598  -2.605  0.00  0.00    +0.097 C 
ATOM      5  C   UNL     1      -1.776   9.239  -1.172  0.00  0.00    +0.077 C 
ATOM      6  C   UNL     1      -1.927   7.945  -0.789  0.00  0.00    +0.107 C 
ATOM      7  C   UNL     1      -2.050   8.748  -4.893  0.00  0.00    +0.162 C 
ATOM      8  O   UNL     1      -1.924   9.892  -5.283  0.00  0.00    -0.292 OA
ATOM      9  C   UNL     1      -2.371   7.668  -5.882  0.00  0.00    +0.086 C 
ATOM     10  C   UNL     1      -1.806   6.337  -5.373  0.00  0.00    -0.023 C 
ATOM     11  C   UNL     1      -2.379   6.069  -3.980  0.00  0.00    +0.058 C 
ATOM     12  C   UNL     1      -0.281   6.422  -5.295  0.00  0.00    +0.011 C 
ATOM     13  C   UNL     1      -2.210   5.206  -6.322  0.00  0.00    +0.011 C 
ENDROOT
BRANCH   1  18
ATOM     14  C   UNL     1      -2.505   4.657  -0.930  0.00  0.00    +0.091 A 
ATOM     15  C   UNL     1      -1.973   3.362  -0.539  0.00  0.00    -0.021 A 
ATOM     16  C   UNL     1      -0.628   3.254  -0.590  0.00  0.00    -0.004 A 
ATOM     17  S   UNL     1      -0.066   4.837  -1.148  0.00  0.00    -0.077 S 
ATOM     18  C   UNL     1      -1.596   5.635  -1.312  0.00  0.00    +0.092 A 
ATOM     19  C   UNL     1       0.195   2.050  -0.247  0.00  0.00    +0.043 C 
ATOM     20  C   UNL     1      -0.690   1.067   0.533  0.00  0.00    +0.005 C 
ATOM     21  C   UNL     1      -2.021   0.902  -0.206  0.00  0.00    +0.005 C 
ATOM     22  C   UNL     1      -2.839   2.189  -0.097  0.00  0.00    +0.037 C 
BRANCH  14  23
ATOM     23  C   UNL     1      -3.946   4.920  -0.923  0.00  0.00    +0.342 C 
ATOM     24  O   UNL     1      -4.621   4.634  -1.894  0.00  0.00    -0.245 OA
BRANCH  23  25
ATOM     25  O   UNL     1      -4.524   5.479   0.159  0.00  0.00    -0.461 OA
BRANCH  25  27
ATOM     26  C   UNL     1      -6.428   6.346   1.406  0.00  0.00    +0.048 C 
ATOM     27  C   UNL     1      -5.956   5.711   0.096  0.00  0.00    +0.229 C 
ENDBRANCH  25  27
ENDBRANCH  23  25
ENDBRANCH  14  23
ENDBRANCH   1  18
BRANCH   4  28
ATOM     28  C   UNL     1      -0.054   9.925  -2.774  0.00  0.00    -0.035 A 
ATOM     29  C   UNL     1       0.906   8.975  -2.478  0.00  0.00    +0.004 A 
ATOM     30  C   UNL     1       2.246   9.274  -2.637  0.00  0.00    +0.000 A 
ATOM     31  C   UNL     1       2.627  10.525  -3.083  0.00  0.00    +0.000 A 
ATOM     32  C   UNL     1       1.668  11.477  -3.375  0.00  0.00    +0.000 A 
ATOM     33  C   UNL     1       0.327  11.177  -3.220  0.00  0.00    +0.004 A 
ENDBRANCH   4  28
BRANCH   6  34
ATOM     34  N   UNL     1      -2.156   7.642   0.532  0.00  0.00    -0.345 N 
ATOM     35  H   UNL     1      -2.178   6.717   0.821  0.00  0.00    +0.144 HD
ATOM     36  H   UNL     1      -2.296   8.355   1.176  0.00  0.00    +0.144 HD
ENDBRANCH   6  34
BRANCH   5  37
ATOM     37  C   UNL     1      -1.867  10.278  -0.191  0.00  0.00    +0.099 C 
ATOM     38  N   UNL     1      -1.940  11.102   0.587  0.00  0.00    -0.191 NA
ENDBRANCH   5  37
TORSDOF 7
