REMARK  Name = ZINC50891939
REMARK  4 active torsions:
REMARK  status: ('A' for Active; 'I' for Inactive)
REMARK    1  A    between atoms: C_1  and  C_2
REMARK    2  A    between atoms: C_6  and  N_20
REMARK    3  A    between atoms: C_7  and  N_8
REMARK    4  A    between atoms: C_9  and  C_11
REMARK                            x       y       z     vdW  Elec       q    Type
REMARK                         _______ _______ _______ _____ _____    ______ ____
ROOT
ATOM      1  N   UNL     1      -0.250  -0.084   2.444  0.00  0.00    -0.280 N 
ATOM      2  C   UNL     1      -0.469  -0.796   3.567  0.00  0.00    +0.248 C 
ATOM      3  O   UNL     1      -0.639  -1.998   3.501  0.00  0.00    -0.270 OA
ATOM      4  H   UNL     1      -0.171   0.882   2.490  0.00  0.00    +0.155 HD
ENDROOT
BRANCH   2   5
ATOM      5  C   UNL     1      -0.502  -0.117   4.877  0.00  0.00    +0.038 A 
ATOM      6  C   UNL     1      -0.313   1.265   4.959  0.00  0.00    +0.016 A 
ATOM      7  C   UNL     1      -0.348   1.897   6.179  0.00  0.00    +0.046 A 
ATOM      8  C   UNL     1      -0.572   1.167   7.347  0.00  0.00    +0.124 A 
ATOM      9  C   UNL     1      -0.752  -0.211   7.260  0.00  0.00    -0.002 A 
ATOM     10  C   UNL     1      -0.728  -0.851   6.045  0.00  0.00    +0.020 A 
ATOM     11  C   UNL     1      -0.946  -0.723   8.675  0.00  0.00    +0.080 C 
ATOM     12  C   UNL     1      -0.453   0.476   9.519  0.00  0.00    +0.234 C 
ATOM     13  O   UNL     1      -0.656   1.593   8.636  0.00  0.00    -0.491 OA
ENDBRANCH   2   5
BRANCH   1  20
ATOM     14  C   UNL     1       1.671  -2.167   2.197  0.00  0.00    +0.046 C 
ATOM     15  C   UNL     1       0.787  -1.759   1.047  0.00  0.00    -0.026 A 
ATOM     16  C   UNL     1       0.893  -2.408  -0.170  0.00  0.00    +0.020 A 
ATOM     17  C   UNL     1       0.084  -2.037  -1.228  0.00  0.00    +0.020 A 
ATOM     18  C   UNL     1      -0.837  -1.016  -1.076  0.00  0.00    +0.040 A 
ATOM     19  C   UNL     1      -0.950  -0.361   0.141  0.00  0.00    +0.047 A 
ATOM     20  C   UNL     1      -0.137  -0.738   1.210  0.00  0.00    +0.058 A 
ATOM     21 BR   UNL     1       0.236  -2.929  -2.889  0.00  0.00    -0.050 Br
BRANCH  19  22
ATOM     22  N   UNL     1      -1.880   0.673   0.298  0.00  0.00    -0.356 N 
ATOM     23  H   UNL     1      -2.517   0.863  -0.408  0.00  0.00    +0.142 HD
ATOM     24  H   UNL     1      -1.887   1.199   1.113  0.00  0.00    +0.142 HD
ENDBRANCH  19  22
ENDBRANCH   1  20
TORSDOF 3
