REMARK  Name = ZINC35337840
REMARK  8 active torsions:
REMARK  status: ('A' for Active; 'I' for Inactive)
REMARK    1  A    between atoms: C_1  and  C_2
REMARK    2  A    between atoms: C_5  and  S_8
REMARK    3  A    between atoms: S_8  and  N_11
REMARK    4  A    between atoms: N_11  and  C_12
REMARK    5  A    between atoms: C_16  and  C_18
REMARK    6  A    between atoms: C_20  and  C_30
REMARK    7  A    between atoms: C_21  and  C_29
REMARK    8  A    between atoms: N_32  and  C_33
REMARK                            x       y       z     vdW  Elec       q    Type
REMARK                         _______ _______ _______ _____ _____    ______ ____
ROOT
ATOM      1  C   UNL     1       2.719  -5.227   0.816  0.00  0.00    +0.048 A 
ATOM      2  C   UNL     1       2.236  -4.060   1.395  0.00  0.00    +0.024 A 
ATOM      3  C   UNL     1       2.757  -3.620   2.596  0.00  0.00    +0.002 A 
ATOM      4  C   UNL     1       3.759  -4.340   3.222  0.00  0.00    +0.006 A 
ATOM      5  C   UNL     1       4.242  -5.501   2.648  0.00  0.00    -0.021 A 
ATOM      6  C   UNL     1       3.721  -5.950   1.450  0.00  0.00    +0.030 A 
ENDROOT
BRANCH   5   7
ATOM      7  C   UNL     1       5.334  -6.282   3.333  0.00  0.00    +0.143 C 
ATOM      8  C   UNL     1       4.742  -7.114   4.445  0.00  0.00    +0.058 C 
ATOM      9  C   UNL     1       4.711  -6.613   5.710  0.00  0.00    +0.025 C 
ATOM     10  N   UNL     1       5.241  -5.424   5.990  0.00  0.00    -0.341 N 
ATOM     11  C   UNL     1       6.037  -4.801   5.136  0.00  0.00    +0.135 C 
ATOM     12  N   UNL     1       6.318  -5.351   3.914  0.00  0.00    -0.300 N 
ATOM     13  C   UNL     1       7.548  -5.087   3.180  0.00  0.00    +0.109 C 
ATOM     14  C   UNL     1       7.918  -3.611   3.165  0.00  0.00    +0.030 C 
ATOM     15  C   UNL     1       8.252  -3.155   4.592  0.00  0.00    +0.078 C 
ATOM     16  S   UNL     1       6.710  -3.228   5.579  0.00  0.00    -0.092 S 
ATOM     17  C   UNL     1       4.066  -7.415   6.811  0.00  0.00    +0.064 C 
ATOM     18  H   UNL     1       5.040  -5.004   6.841  0.00  0.00    +0.167 HD
BRANCH   8  19
ATOM     19  C   UNL     1       4.227  -8.395   4.175  0.00  0.00    +0.244 C 
ATOM     20  O   UNL     1       3.834  -9.099   5.090  0.00  0.00    -0.270 OA
ATOM     21  N   UNL     1       4.167  -8.845   2.906  0.00  0.00    -0.315 N 
ATOM     22  C   UNL     1       3.631 -10.179   2.626  0.00  0.00    +0.128 C 
ATOM     23  H   UNL     1       4.479  -8.285   2.178  0.00  0.00    +0.149 HD
ENDBRANCH   8  19
ENDBRANCH   5   7
BRANCH   1  24
ATOM     24  N   UNL     1       2.194  -5.674  -0.399  0.00  0.00    -0.216 N 
ATOM     25  H   UNL     1       2.790  -5.949  -1.113  0.00  0.00    +0.174 HD
BRANCH  24  26
ATOM     26  S   UNL     1       0.554  -5.736  -0.620  0.00  0.00    +0.072 S 
ATOM     27  O   UNL     1       0.337  -6.321  -1.896  0.00  0.00    -0.150 OA
ATOM     28  O   UNL     1       0.049  -4.453  -0.274  0.00  0.00    -0.150 OA
BRANCH  26  33
ATOM     29  C   UNL     1      -1.653  -9.607   3.449  0.00  0.00    +0.044 C 
ATOM     30  C   UNL     1      -1.101  -8.640   2.433  0.00  0.00    -0.050 A 
ATOM     31  C   UNL     1      -0.896  -7.318   2.778  0.00  0.00    +0.005 A 
ATOM     32  C   UNL     1      -0.390  -6.431   1.846  0.00  0.00    +0.029 A 
ATOM     33  C   UNL     1      -0.090  -6.867   0.569  0.00  0.00    +0.109 A 
ATOM     34  C   UNL     1      -0.295  -8.189   0.224  0.00  0.00    +0.029 A 
ATOM     35  C   UNL     1      -0.796  -9.077   1.157  0.00  0.00    +0.005 A 
ENDBRANCH  26  33
ENDBRANCH  24  26
ENDBRANCH   1  24
TORSDOF 5
