REMARK  Name = ZINC15738731
REMARK  7 active torsions:
REMARK  status: ('A' for Active; 'I' for Inactive)
REMARK    1  A    between atoms: C_1  and  C_2
REMARK    2  A    between atoms: C_5  and  S_21
REMARK    3  A    between atoms: C_7  and  N_8
REMARK    4  A    between atoms: C_9  and  C_11
REMARK    5  A    between atoms: C_11  and  N_12
REMARK    6  A    between atoms: C_13  and  C_15
REMARK    7  A    between atoms: S_21  and  N_24
REMARK                            x       y       z     vdW  Elec       q    Type
REMARK                         _______ _______ _______ _____ _____    ______ ____
ROOT
ATOM      1  C   UNL     1       5.325  -2.169  -4.055  0.00  0.00    +0.045 C 
ATOM      2  C   UNL     1       4.853  -1.829  -2.664  0.00  0.00    -0.029 A 
ATOM      3  C   UNL     1       3.962  -2.661  -2.014  0.00  0.00    +0.007 A 
ATOM      4  C   UNL     1       3.533  -2.352  -0.737  0.00  0.00    +0.029 A 
ATOM      5  C   UNL     1       3.985  -1.205  -0.110  0.00  0.00    +0.107 A 
ATOM      6  C   UNL     1       4.875  -0.370  -0.755  0.00  0.00    +0.052 A 
ATOM      7  C   UNL     1       5.313  -0.679  -2.036  0.00  0.00    +0.038 A 
ENDROOT
BRANCH   7   8
ATOM      8  N   UNL     1       6.215   0.165  -2.692  0.00  0.00    -0.284 N 
ATOM      9  C   UNL     1       6.150   1.498  -2.503  0.00  0.00    +0.234 C 
ATOM     10  O   UNL     1       5.364   1.959  -1.702  0.00  0.00    -0.274 OA
ATOM     11  H   UNL     1       6.886  -0.208  -3.284  0.00  0.00    +0.155 HD
BRANCH   9  12
ATOM     12  C   UNL     1       7.053   2.416  -3.286  0.00  0.00    +0.200 C 
BRANCH  12  13
ATOM     13  N   UNL     1       6.791   3.804  -2.900  0.00  0.00    -0.300 N 
ATOM     14  C   UNL     1       7.487   4.806  -3.475  0.00  0.00    +0.280 C 
ATOM     15  O   UNL     1       8.332   4.556  -4.314  0.00  0.00    -0.267 OA
ATOM     16  H   UNL     1       6.117   4.003  -2.232  0.00  0.00    +0.150 HD
BRANCH  14  17
ATOM     17  C   UNL     1       7.224   6.195  -3.090  0.00  0.00    +0.191 A 
ATOM     18  C   UNL     1       7.858   7.299  -3.587  0.00  0.00    +0.056 A 
ATOM     19  C   UNL     1       7.294   8.411  -2.944  0.00  0.00    +0.058 A 
ATOM     20  C   UNL     1       6.358   7.944  -2.086  0.00  0.00    +0.171 A 
ATOM     21  O   UNL     1       6.319   6.608  -2.177  0.00  0.00    -0.444 OA
ATOM     22 BR   UNL     1       5.281   9.002  -0.948  0.00  0.00    -0.008 Br
ENDBRANCH  14  17
ENDBRANCH  12  13
ENDBRANCH   9  12
ENDBRANCH   7   8
BRANCH   5  23
ATOM     23  S   UNL     1       3.430  -0.814   1.516  0.00  0.00    +0.061 S 
ATOM     24  O   UNL     1       4.423   0.022   2.094  0.00  0.00    -0.153 OA
ATOM     25  O   UNL     1       3.022  -2.037   2.112  0.00  0.00    -0.153 OA
BRANCH  23  26
ATOM     26  N   UNL     1       2.066   0.113   1.357  0.00  0.00    -0.177 NA
ATOM     27  C   UNL     1       0.739  -0.513   1.295  0.00  0.00    +0.109 C 
ATOM     28  C   UNL     1       0.018  -0.017   0.038  0.00  0.00    +0.017 C 
ATOM     29  C   UNL     1      -0.008   1.514   0.040  0.00  0.00    +0.003 C 
ATOM     30  C   UNL     1       1.425   2.050   0.019  0.00  0.00    +0.017 C 
ATOM     31  C   UNL     1       2.161   1.577   1.277  0.00  0.00    +0.109 C 
ENDBRANCH  23  26
ENDBRANCH   5  23
TORSDOF 6
