REMARK  Name = ZINC32961942
REMARK  9 active torsions:
REMARK  status: ('A' for Active; 'I' for Inactive)
REMARK    1  A    between atoms: C_1  and  C_2
REMARK    2  A    between atoms: C_7  and  S_8
REMARK    3  A    between atoms: S_8  and  N_11
REMARK    4  A    between atoms: N_11  and  C_12
REMARK    5  A    between atoms: C_14  and  C_32
REMARK    6  A    between atoms: C_17  and  N_18
REMARK    7  A    between atoms: N_21  and  C_24
REMARK    8  A    between atoms: C_27  and  O_30
REMARK    9  A    between atoms: O_30  and  C_31
REMARK                            x       y       z     vdW  Elec       q    Type
REMARK                         _______ _______ _______ _____ _____    ______ ____
ROOT
ATOM      1  C   UNL     1      -1.394   2.998  -1.608  0.00  0.00    +0.070 A 
ATOM      2  C   UNL     1      -0.536   4.064  -1.418  0.00  0.00    +0.041 A 
ATOM      3  C   UNL     1      -0.961   5.362  -1.720  0.00  0.00    +0.065 A 
ATOM      4  C   UNL     1      -2.255   5.577  -2.204  0.00  0.00    +0.017 A 
ATOM      5  C   UNL     1      -3.108   4.511  -2.388  0.00  0.00    +0.026 A 
ATOM      6  C   UNL     1      -2.686   3.220  -2.092  0.00  0.00    +0.052 A 
ENDROOT
BRANCH   6   7
ATOM      7  N   UNL     1      -3.553   2.146  -2.279  0.00  0.00    -0.325 N 
ATOM      8  C   UNL     1      -3.901   1.990  -3.699  0.00  0.00    +0.124 C 
ATOM      9  C   UNL     1      -4.788   0.755  -3.871  0.00  0.00    +0.124 C 
ATOM     10  N   UNL     1      -5.997   0.905  -3.050  0.00  0.00    -0.327 N 
ATOM     11  C   UNL     1      -5.650   1.061  -1.630  0.00  0.00    +0.124 C 
ATOM     12  C   UNL     1      -4.763   2.296  -1.458  0.00  0.00    +0.124 C 
BRANCH  10  13
ATOM     13  C   UNL     1      -6.868  -0.174  -3.237  0.00  0.00    +0.030 A 
ATOM     14  C   UNL     1      -7.279  -0.932  -2.149  0.00  0.00    +0.027 A 
ATOM     15  C   UNL     1      -8.143  -1.994  -2.334  0.00  0.00    +0.047 A 
ATOM     16  C   UNL     1      -8.591  -2.310  -3.608  0.00  0.00    +0.120 A 
ATOM     17  C   UNL     1      -8.177  -1.556  -4.697  0.00  0.00    +0.047 A 
ATOM     18  C   UNL     1      -7.317  -0.491  -4.512  0.00  0.00    +0.027 A 
BRANCH  16  19
ATOM     19  O   UNL     1      -9.437  -3.359  -3.791  0.00  0.00    -0.495 OA
ATOM     20  C   UNL     1      -9.823  -4.091  -2.626  0.00  0.00    +0.277 C 
ENDBRANCH  16  19
ENDBRANCH  10  13
ENDBRANCH   6   7
BRANCH   3  21
ATOM     21  C   UNL     1      -0.047   6.502  -1.524  0.00  0.00    +0.387 C 
ATOM     22  O   UNL     1       1.077   6.314  -1.103  0.00  0.00    -0.241 OA
ATOM     23  O   UNL     1      -0.459   7.753  -1.811  0.00  0.00    -0.241 OA
ENDBRANCH   3  21
BRANCH   1  24
ATOM     24  N   UNL     1      -0.972   1.696  -1.311  0.00  0.00    -0.214 N 
ATOM     25  H   UNL     1      -1.311   0.853  -1.930  0.00  0.00    +0.174 HD
BRANCH  24  26
ATOM     26  S   UNL     1       0.040   1.427  -0.028  0.00  0.00    +0.073 S 
ATOM     27  O   UNL     1       0.174   0.018   0.095  0.00  0.00    -0.150 OA
ATOM     28  O   UNL     1       1.158   2.286  -0.205  0.00  0.00    -0.150 OA
BRANCH  26  35
ATOM     29  C   UNL     1      -2.490   0.174   1.058  0.00  0.00    +0.046 C 
ATOM     30  C   UNL     1      -1.949   1.343   1.840  0.00  0.00    -0.024 A 
ATOM     31  C   UNL     1      -2.605   1.778   2.976  0.00  0.00    +0.005 A 
ATOM     32  C   UNL     1      -2.109   2.850   3.693  0.00  0.00    +0.000 A 
ATOM     33  C   UNL     1      -0.957   3.488   3.274  0.00  0.00    +0.002 A 
ATOM     34  C   UNL     1      -0.297   3.051   2.141  0.00  0.00    +0.029 A 
ATOM     35  C   UNL     1      -0.797   1.981   1.420  0.00  0.00    +0.111 A 
ENDBRANCH  26  35
ENDBRANCH  24  26
ENDBRANCH   1  24
TORSDOF 7
