REMARK  Name = ZINC50649459
REMARK  5 active torsions:
REMARK  status: ('A' for Active; 'I' for Inactive)
REMARK    1  A    between atoms: C_1  and  C_2
REMARK    2  A    between atoms: C_5  and  N_8
REMARK    3  A    between atoms: N_8  and  S_9
REMARK    4  A    between atoms: S_9  and  C_12
REMARK    5  A    between atoms: C_13  and  N_20
REMARK                            x       y       z     vdW  Elec       q    Type
REMARK                         _______ _______ _______ _____ _____    ______ ____
ROOT
ATOM      1  S   UNL     1       0.076  -5.003   1.409  0.00  0.00    +0.111 S 
ATOM      2  O   UNL     1       1.321  -4.716   2.031  0.00  0.00    -0.147 OA
ATOM      3  O   UNL     1      -1.169  -4.749   2.043  0.00  0.00    -0.147 OA
ENDROOT
BRANCH   1   4
ATOM      4  C   UNL     1       0.097  -6.719   1.009  0.00  0.00    +0.226 A 
ATOM      5  C   UNL     1      -0.982  -7.508   0.828  0.00  0.00    +0.164 A 
ATOM      6  N   UNL     1      -0.553  -8.748   0.537  0.00  0.00    -0.205 NA
ATOM      7  C   UNL     1       0.750  -8.757   0.531  0.00  0.00    +0.181 A 
ATOM      8  N   UNL     1       1.234  -7.508   0.816  0.00  0.00    -0.276 N 
ATOM      9  C   UNL     1       2.604  -7.360   0.840  0.00  0.00    +0.102 A 
ATOM     10  C   UNL     1       3.406  -8.395   0.592  0.00  0.00    +0.067 A 
ATOM     11  S   UNL     1       2.233  -9.710   0.305  0.00  0.00    -0.058 S 
BRANCH   5  12
ATOM     12  N   UNL     1      -2.322  -7.104   0.925  0.00  0.00    -0.340 N 
ATOM     13  H   UNL     1      -2.536  -6.182   1.141  0.00  0.00    +0.144 HD
ATOM     14  H   UNL     1      -3.035  -7.745   0.778  0.00  0.00    +0.144 HD
ENDBRANCH   5  12
ENDBRANCH   1   4
BRANCH   1  15
ATOM     15  N   UNL     1       0.058  -4.167  -0.021  0.00  0.00    -0.096 NA
BRANCH  15  20
ATOM     16  C   UNL     1      -0.018   1.503   0.010  0.00  0.00    +0.044 C 
ATOM     17  C   UNL     1       0.002  -0.004   0.002  0.00  0.00    -0.050 A 
ATOM     18  C   UNL     1       0.006  -0.687  -1.200  0.00  0.00    +0.005 A 
ATOM     19  C   UNL     1       0.024  -2.068  -1.212  0.00  0.00    +0.027 A 
ATOM     20  C   UNL     1       0.040  -2.771  -0.013  0.00  0.00    +0.074 A 
ATOM     21  C   UNL     1       0.036  -2.081   1.193  0.00  0.00    +0.027 A 
ATOM     22  C   UNL     1       0.023  -0.700   1.197  0.00  0.00    +0.005 A 
ENDBRANCH  15  20
ENDBRANCH   1  15
TORSDOF 4
