REMARK  Name = ZINC64820722
REMARK  10 active torsions:
REMARK  status: ('A' for Active; 'I' for Inactive)
REMARK    1  A    between atoms: C_1  and  C_2
REMARK    2  A    between atoms: C_3  and  C_8
REMARK    3  A    between atoms: C_4  and  C_7
REMARK    4  A    between atoms: C_8  and  C_9
REMARK    5  A    between atoms: C_9  and  N_10
REMARK    6  A    between atoms: N_10  and  C_11
REMARK    7  A    between atoms: N_10  and  C_12
REMARK    8  A    between atoms: C_15  and  C_28
REMARK    9  A    between atoms: C_17  and  N_18
REMARK   10  A    between atoms: C_19  and  C_21
REMARK                            x       y       z     vdW  Elec       q    Type
REMARK                         _______ _______ _______ _____ _____    ______ ____
ROOT
ATOM      1  C   UNL     1       1.428  -0.643  -5.489  0.00  0.00    +0.051 A 
ATOM      2  C   UNL     1       0.229  -1.126  -6.003  0.00  0.00    +0.026 A 
ATOM      3  C   UNL     1       0.236  -2.045  -7.027  0.00  0.00    +0.017 A 
ATOM      4  C   UNL     1       1.451  -2.496  -7.556  0.00  0.00    +0.065 A 
ATOM      5  C   UNL     1       2.658  -2.010  -7.040  0.00  0.00    +0.040 A 
ATOM      6  C   UNL     1       2.645  -1.084  -6.016  0.00  0.00    +0.056 A 
ENDROOT
BRANCH   6   7
ATOM      7  N   UNL     1       3.852  -0.592  -5.501  0.00  0.00    -0.280 N 
ATOM      8  C   UNL     1       4.962  -0.596  -6.264  0.00  0.00    +0.248 C 
ATOM      9  O   UNL     1       4.897  -0.933  -7.431  0.00  0.00    -0.270 OA
ATOM     10  H   UNL     1       3.888  -0.247  -4.595  0.00  0.00    +0.155 HD
BRANCH   8  11
ATOM     11  C   UNL     1       6.260  -0.191  -5.684  0.00  0.00    +0.037 A 
ATOM     12  C   UNL     1       6.339   0.190  -4.343  0.00  0.00    +0.014 A 
ATOM     13  C   UNL     1       7.553   0.566  -3.807  0.00  0.00    +0.016 A 
ATOM     14  C   UNL     1       8.691   0.566  -4.596  0.00  0.00    +0.018 A 
ATOM     15  C   UNL     1       8.619   0.189  -5.926  0.00  0.00    +0.016 A 
ATOM     16  C   UNL     1       7.412  -0.195  -6.473  0.00  0.00    +0.014 A 
ATOM     17 BR   UNL     1      10.352   1.083  -3.853  0.00  0.00    -0.050 Br
ENDBRANCH   8  11
ENDBRANCH   6   7
BRANCH   4  18
ATOM     18  C   UNL     1       1.459  -3.479  -8.650  0.00  0.00    +0.387 C 
ATOM     19  O   UNL     1       0.403  -3.903  -9.099  0.00  0.00    -0.241 OA
ATOM     20  O   UNL     1       2.522  -3.873  -9.111  0.00  0.00    -0.241 OA
ENDBRANCH   4  18
BRANCH   1  21
ATOM     21  N   UNL     1       1.415   0.286  -4.454  0.00  0.00    -0.331 N 
ATOM     22  C   UNL     1       1.384   1.719  -4.755  0.00  0.00    +0.129 C 
BRANCH  21  23
ATOM     23  C   UNL     1       1.432  -0.169  -3.061  0.00  0.00    +0.109 C 
BRANCH  23  24
ATOM     24  C   UNL     1      -0.004  -0.357  -2.568  0.00  0.00    +0.059 C 
BRANCH  24  27
ATOM     25  C   UNL     1      -0.026   1.508   0.003  0.00  0.00    +0.069 C 
ATOM     26  C   UNL     1       0.004   0.001   0.003  0.00  0.00    +0.084 A 
ATOM     27  C   UNL     1       0.014  -0.825  -1.136  0.00  0.00    +0.019 A 
ATOM     28  C   UNL     1       0.042  -2.107  -0.723  0.00  0.00    +0.138 A 
ATOM     29  O   UNL     1       0.049  -2.111   0.618  0.00  0.00    -0.359 OA
ATOM     30  N   UNL     1       0.031  -0.764   1.057  0.00  0.00    -0.083 NA
ATOM     31  C   UNL     1       0.060  -3.323  -1.613  0.00  0.00    +0.089 C 
ENDBRANCH  24  27
ENDBRANCH  23  24
ENDBRANCH  21  23
ENDBRANCH   1  21
TORSDOF 7
