REMARK  Name = ZINC19499176
REMARK  4 active torsions:
REMARK  status: ('A' for Active; 'I' for Inactive)
REMARK    1  A    between atoms: C_1  and  C_2
REMARK    2  A    between atoms: C_2  and  C_3
REMARK    3  A    between atoms: C_12  and  C_14
REMARK    4  A    between atoms: C_17  and  N_19
REMARK                            x       y       z     vdW  Elec       q    Type
REMARK                         _______ _______ _______ _____ _____    ______ ____
ROOT
ATOM      1  C   UNL     1       3.779  -1.206   0.164  0.00  0.00    +0.220 C 
ATOM      2  O   UNL     1       4.425  -0.495   0.905  0.00  0.00    -0.275 OA
ATOM      3  N   UNL     1       3.503  -2.476   0.519  0.00  0.00    -0.271 N 
ATOM      4  C   UNL     1       3.923  -3.107   1.773  0.00  0.00    +0.118 C 
ATOM      5  C   UNL     1       3.370  -4.540   1.708  0.00  0.00    +0.056 C 
ATOM      6  C   UNL     1       2.655  -4.614   0.377  0.00  0.00    -0.024 A 
ATOM      7  C   UNL     1       2.769  -3.383  -0.253  0.00  0.00    +0.040 A 
ATOM      8  C   UNL     1       2.179  -3.201  -1.506  0.00  0.00    +0.024 A 
ATOM      9  C   UNL     1       1.490  -4.229  -2.109  0.00  0.00    +0.012 A 
ATOM     10  C   UNL     1       1.375  -5.462  -1.470  0.00  0.00    +0.001 A 
ATOM     11  C   UNL     1       1.970  -5.649  -0.223  0.00  0.00    +0.015 A 
ENDROOT
BRANCH  10  12
ATOM     12  C   UNL     1       0.633  -6.572  -2.117  0.00  0.00    +0.080 A 
ATOM     13  C   UNL     1       0.149  -6.428  -3.387  0.00  0.00    +0.077 A 
ATOM     14  S   UNL     1      -0.624  -8.022  -3.632  0.00  0.00    -0.056 S 
ATOM     15  C   UNL     1      -0.227  -8.712  -2.032  0.00  0.00    +0.196 A 
ATOM     16  N   UNL     1       0.439  -7.711  -1.471  0.00  0.00    -0.221 NA
BRANCH  15  17
ATOM     17  N   UNL     1      -0.524  -9.938  -1.526  0.00  0.00    -0.189 NA
ATOM     18  C   UNL     1      -0.236 -10.221  -0.274  0.00  0.00    +0.195 C 
ATOM     19  N   UNL     1       0.227  -9.238   0.562  0.00  0.00    -0.370 N 
ATOM     20  N   UNL     1      -0.397 -11.499   0.195  0.00  0.00    -0.370 N 
ATOM     21  H   UNL     1       0.015  -8.309   0.381  0.00  0.00    +0.159 HD
ATOM     22  H   UNL     1       0.765  -9.471   1.334  0.00  0.00    +0.159 HD
ATOM     23  H   UNL     1      -0.725 -12.194  -0.396  0.00  0.00    +0.159 HD
ATOM     24  H   UNL     1      -0.184 -11.707   1.118  0.00  0.00    +0.159 HD
ENDBRANCH  15  17
ENDBRANCH  10  12
BRANCH   1  26
ATOM     25  C   UNL     1       3.732   0.787  -1.311  0.00  0.00    +0.013 C 
ATOM     26  C   UNL     1       3.285  -0.668  -1.155  0.00  0.00    +0.093 C 
ENDBRANCH   1  26
TORSDOF 3
