REMARK  Name = ZINC39198245
REMARK  8 active torsions:
REMARK  status: ('A' for Active; 'I' for Inactive)
REMARK    1  A    between atoms: C_1  and  C_2
REMARK    2  A    between atoms: C_9  and  C_10
REMARK    3  A    between atoms: C_9  and  C_11
REMARK    4  A    between atoms: C_13  and  N_15
REMARK    5  A    between atoms: C_16  and  C_18
REMARK    6  A    between atoms: N_21  and  C_24
REMARK    7  A    between atoms: C_24  and  C_25
REMARK    8  A    between atoms: C_26  and  C_34
REMARK                            x       y       z     vdW  Elec       q    Type
REMARK                         _______ _______ _______ _____ _____    ______ ____
ROOT
ATOM      1  C   UNL     1      -0.352   0.948   4.290  0.00  0.00    +0.071 C 
ATOM      2  C   UNL     1      -1.326   2.024   3.803  0.00  0.00    -0.006 C 
ATOM      3  C   UNL     1      -2.668   1.852   4.517  0.00  0.00    -0.078 C 
ATOM      4  N   UNL     1      -2.475   1.984   5.966  0.00  0.00    +0.383 N 
ATOM      5  C   UNL     1      -1.600   0.911   6.452  0.00  0.00    -0.078 C 
ATOM      6  C   UNL     1      -0.216   1.047   5.812  0.00  0.00    -0.006 C 
ATOM      7  H   UNL     1      -2.054   2.878   6.168  0.00  0.00    -0.081 HD
ENDROOT
BRANCH   1   9
ATOM      8  N   UNL     1       1.118   1.115   2.308  0.00  0.00    -0.312 N 
ATOM      9  C   UNL     1       0.995   1.159   3.649  0.00  0.00    +0.216 C 
ATOM     10  O   UNL     1       1.969   1.369   4.340  0.00  0.00    -0.276 OA
ATOM     11  H   UNL     1       0.339   0.947   1.755  0.00  0.00    +0.149 HD
BRANCH   8  21
ATOM     12  C   UNL     1       2.204   3.366   0.236  0.00  0.00    +0.009 C 
ATOM     13  C   UNL     1       2.230   1.834   0.260  0.00  0.00    +0.010 C 
ATOM     14  C   UNL     1       3.278   1.294  -0.710  0.00  0.00    -0.000 C 
ATOM     15  C   UNL     1       3.150  -0.248  -0.795  0.00  0.00    +0.008 C 
ATOM     16  C   UNL     1       4.039  -0.235   0.467  0.00  0.00    -0.003 C 
ATOM     17  C   UNL     1       4.667   1.037  -0.122  0.00  0.00    -0.029 C 
ATOM     18  C   UNL     1       5.187   2.044   0.899  0.00  0.00    +0.011 C 
ATOM     19  C   UNL     1       5.735   0.740  -1.193  0.00  0.00    +0.011 C 
ATOM     20  C   UNL     1       3.213   0.011   1.728  0.00  0.00    +0.026 C 
ATOM     21  C   UNL     1       2.437   1.322   1.680  0.00  0.00    +0.076 C 
ENDBRANCH   8  21
ENDBRANCH   1   9
BRANCH   4  22
ATOM     22  C   UNL     1      -3.777   1.895   6.641  0.00  0.00    -0.022 C 
BRANCH  22  23
ATOM     23  C   UNL     1      -3.597   2.153   8.115  0.00  0.00    +0.035 A 
ATOM     24  C   UNL     1      -3.459   1.212   9.091  0.00  0.00    +0.091 A 
ATOM     25  N   UNL     1      -3.322   1.842  10.268  0.00  0.00    -0.228 NA
ATOM     26  C   UNL     1      -3.369   3.151  10.068  0.00  0.00    +0.138 A 
ATOM     27  N   UNL     1      -3.535   3.375   8.725  0.00  0.00    -0.305 N 
ATOM     28  C   UNL     1      -3.610   4.649   8.241  0.00  0.00    +0.093 A 
ATOM     29  C   UNL     1      -3.518   5.707   9.073  0.00  0.00    +0.018 A 
ATOM     30  C   UNL     1      -3.344   5.511  10.453  0.00  0.00    +0.005 A 
ATOM     31  C   UNL     1      -3.277   4.247  10.950  0.00  0.00    +0.047 A 
BRANCH  24  32
ATOM     32  C   UNL     1      -3.460  -0.258   8.887  0.00  0.00    +0.002 A 
ATOM     33  C   UNL     1      -2.525  -1.056   9.542  0.00  0.00    +0.010 A 
ATOM     34  C   UNL     1      -2.530  -2.422   9.349  0.00  0.00    +0.001 A 
ATOM     35  C   UNL     1      -3.463  -3.000   8.506  0.00  0.00    +0.000 A 
ATOM     36  C   UNL     1      -4.394  -2.213   7.852  0.00  0.00    +0.001 A 
ATOM     37  C   UNL     1      -4.401  -0.846   8.043  0.00  0.00    +0.010 A 
ENDBRANCH  24  32
ENDBRANCH  22  23
ENDBRANCH   4  22
TORSDOF 5
