REMARK  Name = ZINC20375527
REMARK  6 active torsions:
REMARK  status: ('A' for Active; 'I' for Inactive)
REMARK    1  A    between atoms: C_6  and  C_7
REMARK    2  A    between atoms: C_15  and  O_32
REMARK    3  A    between atoms: N_18  and  C_19
REMARK    4  A    between atoms: C_19  and  C_20
REMARK    5  A    between atoms: N_22  and  C_23
REMARK    6  A    between atoms: C_26  and  N_29
REMARK                            x       y       z     vdW  Elec       q    Type
REMARK                         _______ _______ _______ _____ _____    ______ ____
ROOT
ATOM      1  C   UNL     1      -2.687   3.065   0.307  0.00  0.00    -0.031 C 
ATOM      2  C   UNL     1      -2.487   1.554   0.435  0.00  0.00    +0.011 C 
ATOM      3  C   UNL     1      -1.769   1.021  -0.804  0.00  0.00    +0.005 C 
ATOM      4  C   UNL     1      -0.399   1.691  -0.932  0.00  0.00    +0.000 C 
ATOM      5  C   UNL     1       0.434   1.383   0.314  0.00  0.00    +0.003 C 
ATOM      6  C   UNL     1      -0.282   1.925   1.552  0.00  0.00    +0.035 C 
ATOM      7  C   UNL     1      -1.653   1.258   1.684  0.00  0.00    +0.066 C 
ATOM      8  C   UNL     1      -2.373   1.831   2.910  0.00  0.00    +0.016 C 
ATOM      9  C   UNL     1      -2.578   3.335   2.714  0.00  0.00    -0.075 C 
ATOM     10  N   UNL     1      -3.374   3.571   1.503  0.00  0.00    +0.390 N 
ATOM     11  H   UNL     1      -4.316   3.013   1.609  0.00  0.00    -0.080 HD
ENDROOT
BRANCH   1  17
ATOM     12  C   UNL     1      -4.894   3.212  -0.864  0.00  0.00    +0.005 A 
ATOM     13  C   UNL     1      -5.660   3.487  -1.981  0.00  0.00    +0.038 A 
ATOM     14  C   UNL     1      -5.050   3.901  -3.153  0.00  0.00    +0.123 A 
ATOM     15  C   UNL     1      -3.674   4.044  -3.203  0.00  0.00    +0.038 A 
ATOM     16  C   UNL     1      -2.910   3.774  -2.083  0.00  0.00    +0.005 A 
ATOM     17  C   UNL     1      -3.521   3.360  -0.913  0.00  0.00    -0.060 A 
ATOM     18  F   UNL     1      -5.797   4.165  -4.247  0.00  0.00    -0.205 F 
ENDBRANCH   1  17
BRANCH   7  19
ATOM     19  O   UNL     1      -1.499  -0.155   1.835  0.00  0.00    -0.388 OA
ATOM     20  H   UNL     1      -0.926  -0.558   2.682  0.00  0.00    +0.210 HD
ENDBRANCH   7  19
BRANCH  10  21
ATOM     21  C   UNL     1      -3.703   4.995   1.359  0.00  0.00    +0.020 C 
BRANCH  21  22
ATOM     22  C   UNL     1      -4.614   5.417   2.483  0.00  0.00    +0.201 C 
ATOM     23  O   UNL     1      -4.955   4.610   3.322  0.00  0.00    -0.278 OA
ATOM     24  N   UNL     1      -5.049   6.690   2.556  0.00  0.00    -0.287 N 
ATOM     25  H   UNL     1      -4.672   7.442   1.847  0.00  0.00    +0.155 HD
BRANCH  24  26
ATOM     26  C   UNL     1      -5.980   7.056   3.534  0.00  0.00    +0.033 A 
ATOM     27  C   UNL     1      -6.949   6.151   3.946  0.00  0.00    +0.025 A 
ATOM     28  C   UNL     1      -7.863   6.513   4.915  0.00  0.00    +0.034 A 
ATOM     29  C   UNL     1      -7.822   7.780   5.468  0.00  0.00    +0.126 A 
ATOM     30  C   UNL     1      -6.862   8.686   5.056  0.00  0.00    +0.034 A 
ATOM     31  C   UNL     1      -5.941   8.328   4.091  0.00  0.00    +0.025 A 
BRANCH  29  32
ATOM     32  N   UNL     1      -8.807   8.167   6.502  0.00  0.00    +0.056 N 
ATOM     33  O   UNL     1      -8.772   9.282   6.990  0.00  0.00    -0.126 OA
ATOM     34  O   UNL     1      -9.654   7.370   6.866  0.00  0.00    -0.126 OA
ENDBRANCH  29  32
ENDBRANCH  24  26
ENDBRANCH  21  22
ENDBRANCH  10  21
TORSDOF 6
