REMARK  Name = ZINC20744943
REMARK  1 active torsions:
REMARK  status: ('A' for Active; 'I' for Inactive)
REMARK    1  A    between atoms: C_3  and  C_9
REMARK                            x       y       z     vdW  Elec       q    Type
REMARK                         _______ _______ _______ _____ _____    ______ ____
ROOT
ATOM      1  C   UNL     1       3.671   2.186  -0.023  0.00  0.00    +0.113 C 
ATOM      2  C   UNL     1       4.184   2.282   1.380  0.00  0.00    +0.029 A 
ATOM      3  C   UNL     1       3.856   1.365   2.337  0.00  0.00    +0.111 A 
ATOM      4  N   UNL     1       4.463   1.719   3.482  0.00  0.00    -0.283 N 
ATOM      5  H   UNL     1       4.406   1.247   4.328  0.00  0.00    +0.188 HD
ATOM      6  N   UNL     1       5.189   2.884   3.239  0.00  0.00    -0.158 NA
ATOM      7  C   UNL     1       5.024   3.229   1.965  0.00  0.00    +0.151 A 
ATOM      8  N   UNL     1       5.638   4.353   1.445  0.00  0.00    -0.268 N 
ATOM      9  C   UNL     1       5.627   4.941   0.286  0.00  0.00    +0.228 C 
ATOM     10  O   UNL     1       6.232   5.991   0.245  0.00  0.00    -0.275 OA
ATOM     11  C   UNL     1       5.000   4.541  -0.989  0.00  0.00    +0.166 C 
ATOM     12  S   UNL     1       3.381   3.788  -0.778  0.00  0.00    -0.138 S 
ATOM     13  H   UNL     1       6.204   4.804   2.090  0.00  0.00    +0.156 HD
ENDROOT
BRANCH   1  16
ATOM     14  C   UNL     1      -0.017   1.380   0.010  0.00  0.00    +0.039 A 
ATOM     15  C   UNL     1       1.171   2.088   0.002  0.00  0.00    +0.009 A 
ATOM     16  C   UNL     1       2.377   1.414  -0.013  0.00  0.00    -0.011 A 
ATOM     17  C   UNL     1       2.398   0.030  -0.021  0.00  0.00    +0.048 A 
ATOM     18  C   UNL     1       1.211  -0.679  -0.013  0.00  0.00    +0.058 A 
ATOM     19  C   UNL     1       0.002  -0.004   0.002  0.00  0.00    +0.125 A 
ATOM     20  F   UNL     1      -1.158  -0.696   0.010  0.00  0.00    -0.205 F 
ATOM     21 CL   UNL     1       3.914  -0.815  -0.041  0.00  0.00    -0.083 Cl
ENDBRANCH   1  16
TORSDOF 1
