REMARK  Name = ZINC58900026
REMARK  7 active torsions:
REMARK  status: ('A' for Active; 'I' for Inactive)
REMARK    1  A    between atoms: C_1  and  C_2
REMARK    2  A    between atoms: C_7  and  C_8
REMARK    3  A    between atoms: C_11  and  C_24
REMARK    4  A    between atoms: N_13  and  C_21
REMARK    5  A    between atoms: C_16  and  N_20
REMARK    6  A    between atoms: C_17  and  C_18
REMARK    7  A    between atoms: C_21  and  N_23
REMARK                            x       y       z     vdW  Elec       q    Type
REMARK                         _______ _______ _______ _____ _____    ______ ____
ROOT
ATOM      1  C   UNL     1       0.243   0.051   2.491  0.00  0.00    +0.102 C 
ATOM      2  C   UNL     1       1.592  -0.211   3.110  0.00  0.00    +0.050 A 
ATOM      3  C   UNL     1       2.844   0.253   2.720  0.00  0.00    +0.068 A 
ATOM      4  N   UNL     1       3.738  -0.229   3.549  0.00  0.00    -0.167 NA
ATOM      5  N   UNL     1       3.080  -1.022   4.502  0.00  0.00    -0.179 N 
ATOM      6  C   UNL     1       1.756  -0.997   4.214  0.00  0.00    +0.231 A 
ATOM      7  O   UNL     1       0.720  -1.602   4.844  0.00  0.00    -0.423 OA
ATOM      8  C   UNL     1      -0.527  -1.198   4.525  0.00  0.00    +0.200 C 
ATOM      9  C   UNL     1      -0.817  -0.430   3.451  0.00  0.00    +0.098 C 
ATOM     10  C   UNL     1       3.124   1.154   1.545  0.00  0.00    +0.068 C 
ENDROOT
BRANCH   1  17
ATOM     11  C   UNL     1      -0.512   1.452   0.080  0.00  0.00    +0.044 C 
ATOM     12  C   UNL     1      -0.234  -0.028   0.035  0.00  0.00    -0.046 A 
ATOM     13  C   UNL     1      -0.335  -0.715  -1.161  0.00  0.00    +0.003 A 
ATOM     14  C   UNL     1      -0.080  -2.072  -1.202  0.00  0.00    +0.000 A 
ATOM     15  C   UNL     1       0.276  -2.744  -0.047  0.00  0.00    +0.000 A 
ATOM     16  C   UNL     1       0.378  -2.058   1.149  0.00  0.00    +0.005 A 
ATOM     17  C   UNL     1       0.127  -0.699   1.189  0.00  0.00    -0.032 A 
ENDBRANCH   1  17
BRANCH   8  18
ATOM     18  N   UNL     1      -1.561  -1.589   5.338  0.00  0.00    -0.328 N 
ATOM     19  H   UNL     1      -1.385  -2.141   6.116  0.00  0.00    +0.145 HD
ATOM     20  H   UNL     1      -2.469  -1.314   5.135  0.00  0.00    +0.145 HD
ENDBRANCH   8  18
BRANCH   9  21
ATOM     21  C   UNL     1      -2.180  -0.057   3.216  0.00  0.00    +0.101 C 
ATOM     22  N   UNL     1      -3.261   0.238   3.029  0.00  0.00    -0.191 NA
ENDBRANCH   9  21
BRANCH   5  23
ATOM     23  C   UNL     1       3.660  -1.688   5.520  0.00  0.00    +0.167 C 
ATOM     24  S   UNL     1       2.701  -2.613   6.595  0.00  0.00    -0.014 S 
BRANCH  23  25
ATOM     25  N   UNL     1       4.995  -1.625   5.692  0.00  0.00    -0.337 N 
ATOM     26  H   UNL     1       5.539  -1.101   5.084  0.00  0.00    +0.144 HD
ATOM     27  H   UNL     1       5.413  -2.104   6.425  0.00  0.00    +0.144 HD
ENDBRANCH  23  25
ENDBRANCH   5  23
TORSDOF 5
