REMARK  Name = ZINC54691222
REMARK  5 active torsions:
REMARK  status: ('A' for Active; 'I' for Inactive)
REMARK    1  A    between atoms: C_1  and  C_2
REMARK    2  A    between atoms: C_7  and  S_10
REMARK    3  A    between atoms: S_10  and  C_11
REMARK    4  A    between atoms: C_12  and  C_20
REMARK    5  A    between atoms: N_21  and  O_22
REMARK                            x       y       z     vdW  Elec       q    Type
REMARK                         _______ _______ _______ _____ _____    ______ ____
ROOT
ATOM      1  C   UNL     1       0.057   0.145   5.314  0.00  0.00    +0.108 A 
ATOM      2  C   UNL     1       0.479  -0.095   6.631  0.00  0.00    +0.050 A 
ATOM      3  C   UNL     1      -0.209   0.523   7.677  0.00  0.00    +0.019 A 
ATOM      4  C   UNL     1      -1.280   1.348   7.370  0.00  0.00    -0.025 A 
ATOM      5  C   UNL     1      -1.640   1.540   6.049  0.00  0.00    +0.046 A 
ATOM      6  N   UNL     1      -0.968   0.946   5.075  0.00  0.00    -0.244 NA
ATOM      7  C   UNL     1      -2.829   2.477   5.978  0.00  0.00    +0.056 C 
ATOM      8  C   UNL     1      -3.424   2.484   7.401  0.00  0.00    +0.011 C 
ATOM      9  C   UNL     1      -2.200   2.139   8.275  0.00  0.00    +0.037 C 
ENDROOT
BRANCH   2  10
ATOM     10  C   UNL     1       1.627  -0.985   6.906  0.00  0.00    +0.165 C 
ATOM     11  N   UNL     1       2.259  -1.555   5.920  0.00  0.00    -0.071 NA
ATOM     12  N   UNL     1       2.031  -1.212   8.211  0.00  0.00    -0.340 N 
ATOM     13  H   UNL     1       1.560  -0.788   8.945  0.00  0.00    +0.144 HD
ATOM     14  H   UNL     1       2.784  -1.796   8.391  0.00  0.00    +0.144 HD
BRANCH  11  15
ATOM     15  O   UNL     1       3.359  -2.407   6.183  0.00  0.00    -0.408 OA
ATOM     16  H   UNL     1       3.763  -2.783   5.389  0.00  0.00    +0.328 HD
ENDBRANCH  11  15
ENDBRANCH   2  10
BRANCH   1  17
ATOM     17  S   UNL     1       0.903  -0.618   3.970  0.00  0.00    -0.102 S 
BRANCH  17  23
ATOM     18  C   UNL     1      -0.019   1.526   0.010  0.00  0.00    +0.007 C 
ATOM     19  C   UNL     1       0.002  -0.004   0.002  0.00  0.00    -0.013 C 
ATOM     20  C   UNL     1      -1.433  -0.534   0.013  0.00  0.00    +0.003 C 
ATOM     21  C   UNL     1      -2.149  -0.040   1.272  0.00  0.00    +0.001 C 
ATOM     22  C   UNL     1      -1.409  -0.547   2.511  0.00  0.00    +0.014 C 
ATOM     23  C   UNL     1       0.026  -0.018   2.500  0.00  0.00    +0.053 C 
ATOM     24  C   UNL     1       0.742  -0.511   1.242  0.00  0.00    +0.018 C 
ENDBRANCH  17  23
ENDBRANCH   1  17
TORSDOF 4
