REMARK  Name = ZINC28109017
REMARK  6 active torsions:
REMARK  status: ('A' for Active; 'I' for Inactive)
REMARK    1  A    between atoms: C_1  and  C_2
REMARK    2  A    between atoms: C_2  and  C_4
REMARK    3  A    between atoms: C_2  and  N_18
REMARK    4  A    between atoms: N_6  and  C_7
REMARK    5  A    between atoms: C_21  and  N_24
REMARK    6  A    between atoms: C_25  and  C_27
REMARK                            x       y       z     vdW  Elec       q    Type
REMARK                         _______ _______ _______ _____ _____    ______ ____
ROOT
ATOM      1  C   UNL     1       4.618   1.302  -0.197  0.00  0.00    -0.004 C 
ATOM      2  C   UNL     1       5.925   2.096  -0.136  0.00  0.00    +0.016 C 
ENDROOT
BRANCH   2   3
ATOM      3  N   UNL     1       7.063   1.166  -0.133  0.00  0.00    +0.387 N 
ATOM      4  C   UNL     1       6.921   0.158  -1.190  0.00  0.00    -0.076 C 
ATOM      5  C   UNL     1       8.043  -0.875  -1.066  0.00  0.00    +0.004 C 
ATOM      6  C   UNL     1       9.396  -0.169  -1.186  0.00  0.00    +0.070 C 
ATOM      7  C   UNL     1       9.498   0.910  -0.104  0.00  0.00    +0.004 C 
ATOM      8  C   UNL     1       8.334   1.891  -0.256  0.00  0.00    -0.076 C 
ATOM      9  H   UNL     1       7.069   0.640   0.833  0.00  0.00    -0.081 HD
BRANCH   6  10
ATOM     10  N   UNL     1      10.476  -1.143  -1.009  0.00  0.00    -0.309 N 
ATOM     11  C   UNL     1      10.912  -1.864  -2.061  0.00  0.00    +0.244 C 
ATOM     12  O   UNL     1      10.410  -1.706  -3.157  0.00  0.00    -0.270 OA
ATOM     13  H   UNL     1      10.930  -1.287  -0.018  0.00  0.00    +0.149 HD
BRANCH  11  14
ATOM     14  C   UNL     1      12.001  -2.848  -1.883  0.00  0.00    +0.037 A 
ATOM     15  C   UNL     1      12.583  -3.029  -0.627  0.00  0.00    +0.013 A 
ATOM     16  C   UNL     1      13.596  -3.952  -0.466  0.00  0.00    +0.001 A 
ATOM     17  C   UNL     1      14.041  -4.690  -1.548  0.00  0.00    +0.000 A 
ATOM     18  C   UNL     1      13.471  -4.513  -2.797  0.00  0.00    +0.001 A 
ATOM     19  C   UNL     1      12.454  -3.596  -2.970  0.00  0.00    +0.013 A 
ENDBRANCH  11  14
ENDBRANCH   6  10
ENDBRANCH   2   3
BRANCH   2  20
ATOM     20  C   UNL     1       6.019   3.001  -1.337  0.00  0.00    +0.203 C 
ATOM     21  O   UNL     1       6.555   2.609  -2.352  0.00  0.00    -0.277 OA
ATOM     22  N   UNL     1       5.508   4.247  -1.283  0.00  0.00    -0.287 N 
ATOM     23  H   UNL     1       5.098   4.633  -0.338  0.00  0.00    +0.155 HD
BRANCH  22  24
ATOM     24  C   UNL     1       5.498   5.050  -2.431  0.00  0.00    +0.037 A 
ATOM     25  C   UNL     1       5.338   4.471  -3.683  0.00  0.00    +0.027 A 
ATOM     26  C   UNL     1       5.329   5.262  -4.815  0.00  0.00    +0.051 A 
ATOM     27  C   UNL     1       5.479   6.635  -4.706  0.00  0.00    +0.173 A 
ATOM     28  C   UNL     1       5.640   7.219  -3.452  0.00  0.00    +0.174 A 
ATOM     29  C   UNL     1       5.649   6.426  -2.317  0.00  0.00    +0.073 A 
ATOM     30  O   UNL     1       5.772   8.568  -3.612  0.00  0.00    -0.395 OA
ATOM     31  C   UNL     1       6.092   8.762  -5.001  0.00  0.00    +0.589 C 
ATOM     32  O   UNL     1       5.506   7.620  -5.652  0.00  0.00    -0.395 OA
ATOM     33  F   UNL     1       7.479   8.774  -5.184  0.00  0.00    -0.125 F 
ATOM     34  F   UNL     1       5.524   9.947  -5.481  0.00  0.00    -0.125 F 
ENDBRANCH  22  24
ENDBRANCH   2  20
TORSDOF 5
