REMARK  Name = ZINC16571461
REMARK  6 active torsions:
REMARK  status: ('A' for Active; 'I' for Inactive)
REMARK    1  A    between atoms: C_4  and  C_7
REMARK    2  A    between atoms: C_7  and  C_8
REMARK    3  A    between atoms: C_8  and  C_10
REMARK    4  A    between atoms: C_8  and  N_25
REMARK    5  A    between atoms: C_16  and  C_18
REMARK    6  A    between atoms: C_26  and  C_28
REMARK                            x       y       z     vdW  Elec       q    Type
REMARK                         _______ _______ _______ _____ _____    ______ ____
ROOT
ATOM      1  C   UNL     1      -2.945   0.711   1.462  0.00  0.00    +0.164 C 
ENDROOT
BRANCH   1   2
ATOM      2  C   UNL     1      -4.299   0.049   1.467  0.00  0.00    +0.239 C 
ATOM      3  O   UNL     1      -4.434  -1.051   1.961  0.00  0.00    -0.273 OA
ATOM      4  N   UNL     1      -5.359   0.678   0.922  0.00  0.00    -0.262 N 
ATOM      5  C   UNL     1      -6.607   0.067   0.927  0.00  0.00    +0.188 A 
ATOM      6  N   UNL     1      -6.975  -1.116   1.401  0.00  0.00    -0.125 NA
ATOM      7  N   UNL     1      -8.167  -1.522   1.327  0.00  0.00    -0.140 NA
ATOM      8  C   UNL     1      -9.122  -0.794   0.759  0.00  0.00    +0.134 A 
ATOM      9  S   UNL     1      -8.175   0.650   0.287  0.00  0.00    -0.030 S 
ATOM     10  H   UNL     1      -5.250   1.557   0.527  0.00  0.00    +0.157 HD
BRANCH   8  11
ATOM     11  C   UNL     1     -10.558  -1.092   0.571  0.00  0.00    +0.009 A 
ATOM     12  C   UNL     1     -11.389  -0.163  -0.058  0.00  0.00    +0.012 A 
ATOM     13  C   UNL     1     -12.727  -0.449  -0.235  0.00  0.00    +0.016 A 
ATOM     14  C   UNL     1     -13.247  -1.649   0.218  0.00  0.00    +0.018 A 
ATOM     15  C   UNL     1     -12.429  -2.572   0.847  0.00  0.00    +0.016 A 
ATOM     16  C   UNL     1     -11.088  -2.300   1.026  0.00  0.00    +0.012 A 
ATOM     17 BR   UNL     1     -15.084  -2.030  -0.024  0.00  0.00    -0.050 Br
ENDBRANCH   8  11
ENDBRANCH   1   2
BRANCH   1  18
ATOM     18  N   UNL     1      -1.968  -0.170   2.108  0.00  0.00    -0.299 N 
ATOM     19  C   UNL     1      -0.861   0.351   2.672  0.00  0.00    +0.251 C 
ATOM     20  O   UNL     1      -0.672   1.553   2.646  0.00  0.00    -0.270 OA
ATOM     21  H   UNL     1      -2.119  -1.128   2.129  0.00  0.00    +0.150 HD
BRANCH  19  22
ATOM     22  C   UNL     1       0.116  -0.530   3.318  0.00  0.00    +0.074 A 
ATOM     23  C   UNL     1       1.306  -0.202   3.950  0.00  0.00    +0.021 A 
ATOM     24  C   UNL     1       2.040  -1.235   4.477  0.00  0.00    +0.008 A 
ATOM     25  C   UNL     1       1.576  -2.507   4.358  0.00  0.00    +0.046 A 
ATOM     26  S   UNL     1       0.081  -2.304   3.503  0.00  0.00    -0.092 S 
ENDBRANCH  19  22
ENDBRANCH   1  18
BRANCH   1  27
ATOM     27  C   UNL     1      -2.514   0.980   0.019  0.00  0.00    +0.067 C 
BRANCH  27  31
ATOM     28  C   UNL     1       1.156   3.165   0.008  0.00  0.00    +0.000 A 
ATOM     29  C   UNL     1       1.175   1.783   0.000  0.00  0.00    +0.000 A 
ATOM     30  C   UNL     1      -0.013   1.076   0.008  0.00  0.00    +0.004 A 
ATOM     31  C   UNL     1      -1.219   1.751   0.017  0.00  0.00    -0.045 A 
ATOM     32  C   UNL     1      -1.238   3.133   0.030  0.00  0.00    +0.004 A 
ATOM     33  C   UNL     1      -0.050   3.840   0.022  0.00  0.00    +0.000 A 
ENDBRANCH  27  31
ENDBRANCH   1  27
TORSDOF 6
