REMARK  Name = ZINC02258993
REMARK  10 active torsions:
REMARK  status: ('A' for Active; 'I' for Inactive)
REMARK    1  A    between atoms: C_1  and  C_2
REMARK    2  A    between atoms: C_5  and  S_8
REMARK    3  A    between atoms: S_8  and  N_11
REMARK    4  A    between atoms: N_11  and  C_12
REMARK    5  A    between atoms: C_12  and  C_14
REMARK    6  A    between atoms: C_12  and  N_18
REMARK    7  A    between atoms: C_19  and  C_21
REMARK    8  A    between atoms: C_21  and  O_22
REMARK    9  A    between atoms: O_22  and  C_23
REMARK   10  A    between atoms: C_28  and  C_29
REMARK                            x       y       z     vdW  Elec       q    Type
REMARK                         _______ _______ _______ _____ _____    ______ ____
ROOT
ATOM      1  C   UNL     1       5.319  -2.844  -0.049  0.00  0.00    +0.213 C 
ENDROOT
BRANCH   1   2
ATOM      2  C   UNL     1       5.400  -4.120   0.791  0.00  0.00    +0.223 C 
ATOM      3 CL   UNL     1       4.029  -5.210   0.363  0.00  0.00    -0.080 Cl
ATOM      4 CL   UNL     1       6.961  -4.960   0.460  0.00  0.00    -0.080 Cl
ATOM      5 CL   UNL     1       5.306  -3.694   2.541  0.00  0.00    -0.080 Cl
ENDBRANCH   1   2
BRANCH   1   6
ATOM      6  N   UNL     1       4.025  -2.195   0.173  0.00  0.00    -0.292 N 
ATOM      7  C   UNL     1       3.965  -0.863   0.375  0.00  0.00    +0.252 C 
ATOM      8  O   UNL     1       4.983  -0.203   0.372  0.00  0.00    -0.272 OA
ATOM      9  H   UNL     1       3.211  -2.722   0.176  0.00  0.00    +0.150 HD
BRANCH   7  10
ATOM     10  C   UNL     1       2.634  -0.195   0.604  0.00  0.00    +0.324 C 
BRANCH  10  11
ATOM     11  O   UNL     1       2.831   1.208   0.790  0.00  0.00    -0.483 OA
BRANCH  11  12
ATOM     12  C   UNL     1       1.723   1.963   1.010  0.00  0.00    +0.124 A 
ATOM     13  C   UNL     1       0.471   1.366   1.045  0.00  0.00    +0.047 A 
ATOM     14  C   UNL     1      -0.655   2.136   1.263  0.00  0.00    +0.023 A 
ATOM     15  C   UNL     1      -0.534   3.501   1.457  0.00  0.00    +0.041 A 
ATOM     16  C   UNL     1       0.713   4.098   1.422  0.00  0.00    +0.027 A 
ATOM     17  C   UNL     1       1.841   3.332   1.199  0.00  0.00    -0.007 A 
ATOM     18  C   UNL     1       3.200   3.984   1.162  0.00  0.00    +0.047 C 
ATOM     19 CL   UNL     1      -1.950   4.465   1.737  0.00  0.00    -0.084 Cl
ENDBRANCH  11  12
ENDBRANCH  10  11
ENDBRANCH   7  10
ENDBRANCH   1   6
BRANCH   1  20
ATOM     20  N   UNL     1       5.457  -3.184  -1.467  0.00  0.00    -0.166 NA
ATOM     21  H   UNL     1       5.070  -4.005  -1.809  0.00  0.00    +0.150 HD
BRANCH  20  22
ATOM     22  S   UNL     1       6.275  -2.167  -2.487  0.00  0.00    +0.060 S 
ATOM     23  O   UNL     1       6.290  -2.795  -3.761  0.00  0.00    -0.153 OA
ATOM     24  O   UNL     1       5.735  -0.868  -2.283  0.00  0.00    -0.153 OA
BRANCH  22  29
ATOM     25  C   UNL     1      12.001  -1.968  -0.596  0.00  0.00    +0.044 C 
ATOM     26  C   UNL     1      10.571  -2.018  -1.068  0.00  0.00    -0.050 A 
ATOM     27  C   UNL     1      10.153  -3.040  -1.900  0.00  0.00    +0.005 A 
ATOM     28  C   UNL     1       8.841  -3.085  -2.333  0.00  0.00    +0.029 A 
ATOM     29  C   UNL     1       7.947  -2.109  -1.934  0.00  0.00    +0.105 A 
ATOM     30  C   UNL     1       8.367  -1.084  -1.106  0.00  0.00    +0.029 A 
ATOM     31  C   UNL     1       9.677  -1.042  -0.669  0.00  0.00    +0.005 A 
ENDBRANCH  22  29
ENDBRANCH  20  22
ENDBRANCH   1  20
TORSDOF 8
