REMARK  Name = ZINC38621037
REMARK  8 active torsions:
REMARK  status: ('A' for Active; 'I' for Inactive)
REMARK    1  A    between atoms: C_1  and  C_2
REMARK    2  A    between atoms: C_6  and  N_8
REMARK    3  A    between atoms: C_9  and  C_11
REMARK    4  A    between atoms: N_13  and  C_14
REMARK    5  A    between atoms: C_14  and  C_15
REMARK    6  A    between atoms: C_15  and  C_17
REMARK    7  A    between atoms: C_15  and  N_26
REMARK    8  A    between atoms: N_29  and  C_32
REMARK                            x       y       z     vdW  Elec       q    Type
REMARK                         _______ _______ _______ _____ _____    ______ ____
ROOT
ATOM      1  C   UNL     1      -0.266  -8.475   4.648  0.00  0.00    +0.104 C 
ENDROOT
BRANCH   1   2
ATOM      2  C   UNL     1      -0.033  -9.232   5.930  0.00  0.00    -0.025 A 
ATOM      3  C   UNL     1       1.218  -9.223   6.519  0.00  0.00    +0.009 A 
ATOM      4  C   UNL     1       1.436  -9.916   7.695  0.00  0.00    +0.050 A 
ATOM      5  C   UNL     1       0.401 -10.621   8.287  0.00  0.00    +0.166 A 
ATOM      6  C   UNL     1      -0.859 -10.629   7.694  0.00  0.00    +0.167 A 
ATOM      7  C   UNL     1      -1.072  -9.928   6.518  0.00  0.00    +0.054 A 
ATOM      8  O   UNL     1      -1.697 -11.386   8.461  0.00  0.00    -0.453 OA
ATOM      9  C   UNL     1      -0.838 -12.173   9.307  0.00  0.00    +0.466 C 
ATOM     10  O   UNL     1       0.352 -11.372   9.426  0.00  0.00    -0.453 OA
ENDBRANCH   1   2
BRANCH   1  11
ATOM     11  N   UNL     1       0.469  -9.126   3.555  0.00  0.00    -0.291 NA
ATOM     12  C   UNL     1       0.357 -10.588   3.643  0.00  0.00    +0.104 C 
ATOM     13  C   UNL     1       0.979 -11.221   2.393  0.00  0.00    +0.120 C 
ATOM     14  N   UNL     1       2.350 -10.710   2.243  0.00  0.00    -0.325 N 
ATOM     15  C   UNL     1       2.558  -9.254   2.284  0.00  0.00    +0.120 C 
ATOM     16  C   UNL     1       1.874  -8.699   3.538  0.00  0.00    +0.104 C 
BRANCH  14  17
ATOM     17  C   UNL     1       3.426 -11.584   2.067  0.00  0.00    +0.065 A 
ATOM     18  C   UNL     1       3.815 -11.960   0.788  0.00  0.00    +0.026 A 
ATOM     19  C   UNL     1       4.880 -12.824   0.617  0.00  0.00    +0.002 A 
ATOM     20  C   UNL     1       5.559 -13.315   1.717  0.00  0.00    +0.003 A 
ATOM     21  C   UNL     1       5.175 -12.944   2.993  0.00  0.00    +0.040 A 
ATOM     22  C   UNL     1       4.114 -12.075   3.172  0.00  0.00    +0.144 A 
ATOM     23  F   UNL     1       3.743 -11.707   4.418  0.00  0.00    -0.204 F 
ENDBRANCH  14  17
ENDBRANCH   1  11
BRANCH   1  24
ATOM     24  C   UNL     1       0.228  -7.036   4.808  0.00  0.00    +0.128 C 
BRANCH  24  27
ATOM     25  C   UNL     1       0.332  -4.999   3.475  0.00  0.00    +0.299 C 
ATOM     26  O   UNL     1       0.984  -4.487   4.361  0.00  0.00    -0.265 OA
ATOM     27  N   UNL     1      -0.095  -6.271   3.601  0.00  0.00    -0.306 N 
ATOM     28  H   UNL     1      -0.616  -6.681   2.893  0.00  0.00    +0.149 HD
BRANCH  25  30
ATOM     29  N   UNL     1       0.429  -2.947   2.118  0.00  0.00    -0.278 N 
ATOM     30  C   UNL     1       0.003  -4.220   2.244  0.00  0.00    +0.303 C 
ATOM     31  O   UNL     1      -0.649  -4.732   1.357  0.00  0.00    -0.265 OA
ATOM     32  H   UNL     1       1.016  -2.564   2.788  0.00  0.00    +0.155 HD
BRANCH  29  38
ATOM     33  C   UNL     1       1.455   0.476  -1.256  0.00  0.00    +0.044 C 
ATOM     34  C   UNL     1       0.503  -0.513  -0.634  0.00  0.00    -0.049 A 
ATOM     35  C   UNL     1      -0.771  -0.663  -1.150  0.00  0.00    +0.003 A 
ATOM     36  C   UNL     1      -1.648  -1.569  -0.583  0.00  0.00    +0.002 A 
ATOM     37  C   UNL     1      -1.253  -2.329   0.501  0.00  0.00    +0.023 A 
ATOM     38  C   UNL     1       0.027  -2.181   1.021  0.00  0.00    +0.034 A 
ATOM     39  C   UNL     1       0.907  -1.273   0.445  0.00  0.00    +0.026 A 
ENDBRANCH  29  38
ENDBRANCH  25  30
ENDBRANCH  24  27
ENDBRANCH   1  24
TORSDOF 7
