REMARK  Name = ZINC40131161
REMARK  7 active torsions:
REMARK  status: ('A' for Active; 'I' for Inactive)
REMARK    1  A    between atoms: C_1  and  C_2
REMARK    2  A    between atoms: C_2  and  C_3
REMARK    3  A    between atoms: C_2  and  N_4
REMARK    4  A    between atoms: C_11  and  C_14
REMARK    5  A    between atoms: C_19  and  C_22
REMARK    6  A    between atoms: C_25  and  O_29
REMARK    7  A    between atoms: O_29  and  C_30
REMARK                            x       y       z     vdW  Elec       q    Type
REMARK                         _______ _______ _______ _____ _____    ______ ____
ROOT
ATOM      1  C   UNL     1      -4.730  -5.002  -2.164  0.00  0.00    +0.223 C 
ATOM      2  O   UNL     1      -5.853  -5.395  -1.930  0.00  0.00    -0.275 OA
ATOM      3  N   UNL     1      -3.834  -5.827  -2.741  0.00  0.00    -0.264 N 
ATOM      4  C   UNL     1      -4.196  -7.128  -3.067  0.00  0.00    +0.165 A 
ATOM      5  N   UNL     1      -3.473  -8.082  -3.624  0.00  0.00    -0.225 NA
ATOM      6  C   UNL     1      -3.984  -9.279  -3.866  0.00  0.00    +0.080 A 
ATOM      7  C   UNL     1      -5.285  -9.533  -3.533  0.00  0.00    +0.076 A 
ATOM      8  S   UNL     1      -5.763  -7.957  -2.835  0.00  0.00    -0.060 S 
ATOM      9  H   UNL     1      -2.936  -5.512  -2.928  0.00  0.00    +0.157 HD
ENDROOT
BRANCH   1  17
ATOM     10  N   UNL     1      -1.371  -0.513   0.017  0.00  0.00    -0.297 N 
ATOM     11  C   UNL     1      -1.643  -1.734  -0.485  0.00  0.00    +0.302 C 
ATOM     12  O   UNL     1      -0.766  -2.378  -1.028  0.00  0.00    -0.253 OA
ATOM     13  N   UNL     1      -2.888  -2.242  -0.385  0.00  0.00    -0.285 N 
ATOM     14  C   UNL     1      -3.985  -1.431   0.160  0.00  0.00    +0.109 C 
ATOM     15  C   UNL     1      -5.141  -1.429  -0.846  0.00  0.00    +0.020 C 
ATOM     16  C   UNL     1      -5.529  -2.872  -1.174  0.00  0.00    +0.016 C 
ATOM     17  C   UNL     1      -4.337  -3.590  -1.811  0.00  0.00    +0.093 C 
ATOM     18  C   UNL     1      -3.173  -3.615  -0.823  0.00  0.00    +0.122 C 
ATOM     19  H   UNL     1      -2.086   0.030   0.385  0.00  0.00    +0.150 HD
BRANCH  10  21
ATOM     20  C   UNL     1      -0.017   1.524   0.020  0.00  0.00    +0.027 C 
ATOM     21  C   UNL     1       0.003  -0.006   0.006  0.00  0.00    +0.068 C 
ATOM     22  C   UNL     1       0.745  -0.518   1.242  0.00  0.00    +0.027 C 
ENDBRANCH  10  21
ENDBRANCH   1  17
BRANCH   6  23
ATOM     23  C   UNL     1      -3.153 -10.335  -4.494  0.00  0.00    +0.004 A 
ATOM     24  C   UNL     1      -3.697 -11.592  -4.752  0.00  0.00    +0.014 A 
ATOM     25  C   UNL     1      -2.922 -12.572  -5.336  0.00  0.00    +0.049 A 
ATOM     26  C   UNL     1      -1.601 -12.309  -5.666  0.00  0.00    +0.155 A 
ATOM     27  C   UNL     1      -1.053 -11.058  -5.410  0.00  0.00    +0.165 A 
ATOM     28  C   UNL     1      -1.827 -10.070  -4.832  0.00  0.00    +0.052 A 
ATOM     29  F   UNL     1       0.234 -10.805  -5.733  0.00  0.00    -0.202 F 
BRANCH  26  30
ATOM     30  O   UNL     1      -0.839 -13.278  -6.241  0.00  0.00    -0.492 OA
ATOM     31  C   UNL     1      -1.465 -14.542  -6.475  0.00  0.00    +0.277 C 
ENDBRANCH  26  30
ENDBRANCH   6  23
TORSDOF 4
