REMARK  Name = ZINC11969450
REMARK  12 active torsions:
REMARK  status: ('A' for Active; 'I' for Inactive)
REMARK    1  A    between atoms: C_1  and  C_2
REMARK    2  A    between atoms: C_2  and  C_3
REMARK    3  A    between atoms: C_2  and  C_4
REMARK    4  A    between atoms: C_2  and  O_35
REMARK    5  A    between atoms: C_5  and  C_6
REMARK    6  A    between atoms: C_9  and  C_12
REMARK    7  A    between atoms: C_12  and  N_69
REMARK    8  A    between atoms: C_18  and  C_31
REMARK    9  A    between atoms: N_23  and  C_24
REMARK   10  A    between atoms: C_24  and  C_25
REMARK   11  A    between atoms: C_31  and  O_33
REMARK   12  A    between atoms: O_33  and  C_34
REMARK                            x       y       z     vdW  Elec       q    Type
REMARK                         _______ _______ _______ _____ _____    ______ ____
ROOT
ATOM      1  C   UNL     1       1.699  -0.475   1.191  0.00  0.00    -0.076 C 
ATOM      2  C   UNL     1       1.712  -1.365  -0.056  0.00  0.00    +0.008 C 
ATOM      3  C   UNL     1       0.659  -0.865  -1.042  0.00  0.00    +0.048 C 
ATOM      4  C   UNL     1      -0.715  -0.837  -0.377  0.00  0.00    +0.008 C 
ATOM      5  C   UNL     1      -0.651   0.036   0.880  0.00  0.00    -0.076 C 
ATOM      6  C   UNL     1       0.622  -1.786  -2.278  0.00  0.00    +0.130 C 
ATOM      7  C   UNL     1       1.573  -1.046  -3.248  0.00  0.00    +0.112 C 
ATOM      8  C   UNL     1       1.528   0.394  -2.784  0.00  0.00    +0.217 C 
ATOM      9  O   UNL     1       1.904   1.345  -3.436  0.00  0.00    -0.276 OA
ATOM     10  N   UNL     1       1.014   0.464  -1.543  0.00  0.00    -0.291 N 
ATOM     11  N   UNL     1       0.355  -0.531   1.804  0.00  0.00    +0.382 N 
ATOM     12  H   UNL     1       0.116  -1.512   1.995  0.00  0.00    -0.081 HD
ENDROOT
BRANCH   6  13
ATOM     13  C   UNL     1      -0.770  -1.870  -2.847  0.00  0.00    +0.312 C 
ATOM     14  O   UNL     1      -1.164  -1.019  -3.609  0.00  0.00    -0.250 OA
BRANCH  13  15
ATOM     15  O   UNL     1      -1.574  -2.890  -2.507  0.00  0.00    -0.468 OA
ATOM     16  C   UNL     1      -2.902  -2.907  -3.094  0.00  0.00    +0.280 C 
ENDBRANCH  13  15
ENDBRANCH   6  13
BRANCH  11  17
ATOM     17  C   UNL     1       0.349   0.220   3.077  0.00  0.00    -0.043 C 
BRANCH  17  21
ATOM     18  C   UNL     1      -3.641   0.335   4.609  0.00  0.00    +0.025 A 
ATOM     19  C   UNL     1      -2.792  -0.720   4.945  0.00  0.00    +0.017 A 
ATOM     20  C   UNL     1      -1.505  -0.751   4.447  0.00  0.00    +0.003 A 
ATOM     21  C   UNL     1      -1.057   0.260   3.617  0.00  0.00    -0.064 A 
ATOM     22  C   UNL     1      -1.892   1.312   3.285  0.00  0.00    +0.003 A 
ATOM     23  C   UNL     1      -3.182   1.353   3.772  0.00  0.00    +0.017 A 
BRANCH  18  25
ATOM     24  C   UNL     1      -6.073   0.405   5.543  0.00  0.00    -0.063 C 
ATOM     25  C   UNL     1      -4.977   0.374   5.122  0.00  0.00    -0.063 C 
BRANCH  24  27
ATOM     26  C   UNL     1      -8.156   1.697   5.552  0.00  0.00    +0.055 C 
ATOM     27  C   UNL     1      -7.447   0.445   6.070  0.00  0.00    +0.121 C 
ATOM     28  C   UNL     1      -8.207  -0.800   5.608  0.00  0.00    +0.055 C 
BRANCH  27  29
ATOM     29  O   UNL     1      -7.408   0.476   7.498  0.00  0.00    -0.377 OA
ATOM     30  H   UNL     1      -8.280   0.503   7.915  0.00  0.00    +0.211 HD
ENDBRANCH  27  29
ENDBRANCH  24  27
ENDBRANCH  18  25
ENDBRANCH  17  21
ENDBRANCH  11  17
BRANCH  10  31
ATOM     31  C   UNL     1       0.829   1.708  -0.793  0.00  0.00    +0.143 C 
BRANCH  31  32
ATOM     32  C   UNL     1      -0.501   2.319  -1.154  0.00  0.00    -0.030 A 
ATOM     33  C   UNL     1      -0.987   2.203  -2.443  0.00  0.00    +0.005 A 
ATOM     34  C   UNL     1      -2.209   2.759  -2.773  0.00  0.00    +0.000 A 
ATOM     35  C   UNL     1      -2.939   3.440  -1.817  0.00  0.00    +0.000 A 
ATOM     36  C   UNL     1      -2.451   3.561  -0.530  0.00  0.00    +0.000 A 
ATOM     37  C   UNL     1      -1.231   3.000  -0.198  0.00  0.00    +0.005 A 
ENDBRANCH  31  32
ENDBRANCH  10  31
TORSDOF 9
