REMARK  Name = ZINC43218760
REMARK  6 active torsions:
REMARK  status: ('A' for Active; 'I' for Inactive)
REMARK    1  A    between atoms: C_1  and  O_2
REMARK    2  A    between atoms: O_2  and  C_3
REMARK    3  A    between atoms: C_8  and  C_9
REMARK    4  A    between atoms: N_17  and  C_20
REMARK    5  A    between atoms: C_26  and  C_28
REMARK    6  A    between atoms: C_26  and  C_34
REMARK                            x       y       z     vdW  Elec       q    Type
REMARK                         _______ _______ _______ _____ _____    ______ ____
ROOT
ATOM      1  C   UNL     1       0.051  -2.828  -0.033  0.00  0.00    -0.023 C 
ATOM      2  C   UNL     1      -1.452  -2.983  -0.247  0.00  0.00    +0.077 C 
ATOM      3  C   UNL     1      -1.657  -4.227   0.698  0.00  0.00    +0.090 C 
ATOM      4  C   UNL     1      -3.084  -4.212   0.907  0.00  0.00    +0.225 C 
ATOM      5  O   UNL     1      -3.819  -5.165   1.056  0.00  0.00    -0.275 OA
ATOM      6  N   UNL     1      -3.430  -2.884   0.901  0.00  0.00    -0.239 N 
ATOM      7  C   UNL     1      -2.425  -2.067   0.424  0.00  0.00    +0.225 C 
ATOM      8  O   UNL     1      -2.339  -0.862   0.529  0.00  0.00    -0.275 OA
ATOM      9  C   UNL     1      -0.588  -5.148   0.288  0.00  0.00    +0.074 C 
ATOM     10  N   UNL     1       0.554  -4.239  -0.102  0.00  0.00    +0.398 N 
ATOM     11  H   UNL     1       0.845  -4.453  -1.044  0.00  0.00    -0.083 HD
ATOM     12  H   UNL     1       1.330  -4.357   0.533  0.00  0.00    -0.083 HD
ENDROOT
BRANCH   1  18
ATOM     13  C   UNL     1       0.831  -0.627  -0.945  0.00  0.00    +0.122 A 
ATOM     14  C   UNL     1       1.397   0.140  -1.953  0.00  0.00    +0.046 A 
ATOM     15  C   UNL     1       1.787  -0.455  -3.137  0.00  0.00    +0.004 A 
ATOM     16  C   UNL     1       1.611  -1.815  -3.318  0.00  0.00    +0.000 A 
ATOM     17  C   UNL     1       1.047  -2.582  -2.316  0.00  0.00    +0.005 A 
ATOM     18  C   UNL     1       0.661  -1.991  -1.128  0.00  0.00    -0.019 A 
BRANCH  13  20
ATOM     19  C   UNL     1       0.652   1.366   0.338  0.00  0.00    +0.277 C 
ATOM     20  O   UNL     1       0.447  -0.043   0.221  0.00  0.00    -0.495 OA
ENDBRANCH  13  20
ENDBRANCH   1  18
BRANCH   6  21
ATOM     21  C   UNL     1      -4.734  -2.383   1.341  0.00  0.00    +0.084 C 
ATOM     22  C   UNL     1      -5.418  -1.654   0.182  0.00  0.00    +0.023 C 
ATOM     23  C   UNL     1      -6.780  -1.130   0.642  0.00  0.00    +0.002 C 
ATOM     24  C   UNL     1      -6.587  -0.162   1.811  0.00  0.00    +0.000 C 
ATOM     25  C   UNL     1      -5.903  -0.891   2.969  0.00  0.00    +0.002 C 
ATOM     26  C   UNL     1      -4.541  -1.415   2.510  0.00  0.00    +0.023 C 
ENDBRANCH   6  21
BRANCH   9  27
ATOM     27  C   UNL     1      -0.174  -6.020   1.445  0.00  0.00    -0.047 A 
ATOM     28  C   UNL     1      -1.095  -6.361   2.418  0.00  0.00    +0.003 A 
ATOM     29  C   UNL     1      -0.715  -7.161   3.479  0.00  0.00    +0.000 A 
ATOM     30  C   UNL     1       0.586  -7.621   3.567  0.00  0.00    +0.000 A 
ATOM     31  C   UNL     1       1.506  -7.282   2.593  0.00  0.00    +0.000 A 
ATOM     32  C   UNL     1       1.125  -6.485   1.530  0.00  0.00    +0.003 A 
ENDBRANCH   9  27
BRANCH   9  33
ATOM     33  C   UNL     1      -1.040  -5.994  -0.874  0.00  0.00    +0.350 C 
ATOM     34  O   UNL     1      -0.435  -5.949  -1.932  0.00  0.00    -0.248 OA
ATOM     35  O   UNL     1      -2.011  -6.722  -0.757  0.00  0.00    -0.248 OA
ENDBRANCH   9  33
TORSDOF 5
