REMARK  Name = ZINC37055686
REMARK  8 active torsions:
REMARK  status: ('A' for Active; 'I' for Inactive)
REMARK    1  A    between atoms: C_1  and  C_2
REMARK    2  A    between atoms: C_5  and  N_9
REMARK    3  A    between atoms: C_7  and  C_8
REMARK    4  A    between atoms: N_9  and  S_10
REMARK    5  A    between atoms: S_10  and  C_13
REMARK    6  A    between atoms: C_14  and  C_21
REMARK    7  A    between atoms: C_17  and  N_20
REMARK    8  A    between atoms: C_18  and  C_19
REMARK                            x       y       z     vdW  Elec       q    Type
REMARK                         _______ _______ _______ _____ _____    ______ ____
ROOT
ATOM      1  S   UNL     1       0.883  -4.255  -0.398  0.00  0.00    +0.073 S 
ATOM      2  O   UNL     1       0.427  -5.558  -0.062  0.00  0.00    -0.150 OA
ATOM      3  O   UNL     1       0.585  -3.641  -1.645  0.00  0.00    -0.150 OA
ENDROOT
BRANCH   1   4
ATOM      4  C   UNL     1       2.639  -4.284  -0.258  0.00  0.00    +0.116 A 
ATOM      5  C   UNL     1       3.415  -3.570  -1.153  0.00  0.00    -0.023 A 
ATOM      6  C   UNL     1       4.794  -3.591  -1.047  0.00  0.00    +0.007 A 
ATOM      7  C   UNL     1       5.400  -4.325  -0.046  0.00  0.00    +0.023 A 
ATOM      8  C   UNL     1       4.623  -5.042   0.855  0.00  0.00    +0.029 A 
ATOM      9  C   UNL     1       3.238  -5.015   0.749  0.00  0.00    -0.003 A 
ATOM     10  C   UNL     1       2.391  -5.787   1.727  0.00  0.00    +0.048 C 
ATOM     11  C   UNL     1       2.757  -2.769  -2.246  0.00  0.00    +0.046 C 
BRANCH   8  12
ATOM     12  N   UNL     1       5.233  -5.785   1.868  0.00  0.00    -0.358 N 
ATOM     13  H   UNL     1       6.200  -5.800   1.944  0.00  0.00    +0.142 HD
ATOM     14  H   UNL     1       4.690  -6.286   2.497  0.00  0.00    +0.142 HD
ENDBRANCH   8  12
ENDBRANCH   1   4
BRANCH   1  15
ATOM     15  N   UNL     1       0.315  -3.236   0.778  0.00  0.00    -0.216 N 
ATOM     16  H   UNL     1      -0.233  -3.586   1.499  0.00  0.00    +0.174 HD
BRANCH  15  21
ATOM     17  C   UNL     1       1.569   2.291   0.592  0.00  0.00    +0.044 C 
ATOM     18  C   UNL     1       1.236   0.822   0.641  0.00  0.00    -0.047 A 
ATOM     19  C   UNL     1       0.830   0.167  -0.508  0.00  0.00    +0.005 A 
ATOM     20  C   UNL     1       0.524  -1.179  -0.466  0.00  0.00    +0.025 A 
ATOM     21  C   UNL     1       0.624  -1.875   0.732  0.00  0.00    +0.048 A 
ATOM     22  C   UNL     1       1.031  -1.215   1.884  0.00  0.00    +0.028 A 
ATOM     23  C   UNL     1       1.341   0.130   1.834  0.00  0.00    -0.046 A 
ATOM     24  C   UNL     1       1.789   0.846   3.082  0.00  0.00    +0.044 C 
ENDBRANCH  15  21
ENDBRANCH   1  15
TORSDOF 4
