REMARK  Name = ZINC40930891
REMARK  7 active torsions:
REMARK  status: ('A' for Active; 'I' for Inactive)
REMARK    1  A    between atoms: C_4  and  C_30
REMARK    2  A    between atoms: C_5  and  C_7
REMARK    3  A    between atoms: C_7  and  N_8
REMARK    4  A    between atoms: C_9  and  C_11
REMARK    5  A    between atoms: N_14  and  C_17
REMARK    6  A    between atoms: C_17  and  C_18
REMARK    7  A    between atoms: C_20  and  C_23
REMARK                            x       y       z     vdW  Elec       q    Type
REMARK                         _______ _______ _______ _____ _____    ______ ____
ROOT
ATOM      1  C   UNL     1       1.821  -4.511   2.962  0.00  0.00    +0.071 C 
ATOM      2  C   UNL     1       0.714  -4.030   3.904  0.00  0.00    -0.006 C 
ATOM      3  C   UNL     1       0.949  -4.613   5.299  0.00  0.00    -0.077 C 
ATOM      4  N   UNL     1       0.931  -6.079   5.230  0.00  0.00    +0.386 N 
ATOM      5  C   UNL     1       2.036  -6.551   4.385  0.00  0.00    -0.077 C 
ATOM      6  C   UNL     1       1.842  -6.042   2.955  0.00  0.00    -0.006 C 
ATOM      7  H   UNL     1       0.054  -6.386   4.837  0.00  0.00    -0.081 HD
ENDROOT
BRANCH   1   9
ATOM      8  N   UNL     1       1.490  -2.679   1.334  0.00  0.00    -0.311 N 
ATOM      9  C   UNL     1       1.553  -4.004   1.569  0.00  0.00    +0.216 C 
ATOM     10  O   UNL     1       1.394  -4.789   0.658  0.00  0.00    -0.276 OA
ATOM     11  H   UNL     1       1.617  -2.051   2.063  0.00  0.00    +0.149 HD
BRANCH   8  12
ATOM     12  C   UNL     1       1.229  -2.186  -0.020  0.00  0.00    +0.140 C 
BRANCH  12  17
ATOM     13  C   UNL     1      -0.017   1.378   0.010  0.00  0.00    +0.000 A 
ATOM     14  C   UNL     1       1.171   2.085   0.002  0.00  0.00    +0.001 A 
ATOM     15  C   UNL     1       2.377   1.411  -0.013  0.00  0.00    +0.013 A 
ATOM     16  C   UNL     1       2.396   0.028  -0.020  0.00  0.00    +0.059 A 
ATOM     17  C   UNL     1       1.209  -0.679  -0.012  0.00  0.00    -0.019 A 
ATOM     18  C   UNL     1       0.002  -0.004   0.002  0.00  0.00    +0.006 A 
BRANCH  16  19
ATOM     19  C   UNL     1       3.711  -0.707  -0.038  0.00  0.00    +0.418 C 
ATOM     20  F   UNL     1       4.762   0.216  -0.044  0.00  0.00    -0.166 F 
ATOM     21  F   UNL     1       3.808  -1.516   1.100  0.00  0.00    -0.166 F 
ATOM     22  F   UNL     1       3.784  -1.505  -1.185  0.00  0.00    -0.166 F 
ENDBRANCH  16  19
ENDBRANCH  12  17
ENDBRANCH   8  12
ENDBRANCH   1   9
BRANCH   4  23
ATOM     23  C   UNL     1       1.080  -6.634   6.582  0.00  0.00    +0.022 C 
BRANCH  23  24
ATOM     24  C   UNL     1       0.940  -8.133   6.528  0.00  0.00    +0.211 A 
ATOM     25  N   UNL     1       1.911  -8.983   6.354  0.00  0.00    -0.193 NA
ATOM     26  C   UNL     1       1.431 -10.239   6.359  0.00  0.00    +0.202 A 
ATOM     27  N   UNL     1       0.134 -10.191   6.539  0.00  0.00    -0.056 NA
ATOM     28  O   UNL     1      -0.205  -8.818   6.657  0.00  0.00    -0.340 OA
BRANCH  26  29
ATOM     29  C   UNL     1       2.236 -11.475   6.189  0.00  0.00    +0.023 A 
ATOM     30  C   UNL     1       3.615 -11.391   6.010  0.00  0.00    +0.013 A 
ATOM     31  C   UNL     1       4.359 -12.542   5.852  0.00  0.00    +0.021 A 
ATOM     32  C   UNL     1       3.738 -13.779   5.871  0.00  0.00    +0.041 A 
ATOM     33  C   UNL     1       2.368 -13.867   6.049  0.00  0.00    +0.021 A 
ATOM     34  C   UNL     1       1.616 -12.722   6.214  0.00  0.00    +0.013 A 
ATOM     35 CL   UNL     1       4.679 -15.224   5.671  0.00  0.00    -0.084 Cl
ENDBRANCH  26  29
ENDBRANCH  23  24
ENDBRANCH   4  23
TORSDOF 7
