REMARK  Name = ZINC05172511
REMARK  8 active torsions:
REMARK  status: ('A' for Active; 'I' for Inactive)
REMARK    1  A    between atoms: C_1  and  C_2
REMARK    2  A    between atoms: C_3  and  C_28
REMARK    3  A    between atoms: C_4  and  C_26
REMARK    4  A    between atoms: C_5  and  S_9
REMARK    5  A    between atoms: C_7  and  C_8
REMARK    6  A    between atoms: S_9  and  C_10
REMARK    7  A    between atoms: C_10  and  C_11
REMARK    8  A    between atoms: N_13  and  N_14
REMARK                            x       y       z     vdW  Elec       q    Type
REMARK                         _______ _______ _______ _____ _____    ______ ____
ROOT
ATOM      1  C   UNL     1       3.051   2.202   5.345  0.00  0.00    +0.240 C 
ATOM      2  O   UNL     1       2.716   2.587   6.445  0.00  0.00    -0.273 OA
ATOM      3  N   UNL     1       4.345   1.920   5.095  0.00  0.00    -0.223 N 
ATOM      4  H   UNL     1       4.613   1.612   4.215  0.00  0.00    +0.174 HD
ENDROOT
BRANCH   3   5
ATOM      5  N   UNL     1       5.303   2.071   6.106  0.00  0.00    -0.137 N 
ATOM      6  C   UNL     1       5.864   1.045   6.779  0.00  0.00    +0.263 C 
ATOM      7  O   UNL     1       5.645  -0.138   6.629  0.00  0.00    -0.271 OA
ATOM      8  C   UNL     1       6.824   1.681   7.758  0.00  0.00    +0.114 C 
ATOM      9  C   UNL     1       8.251   1.223   7.476  0.00  0.00    +0.035 C 
ATOM     10  C   UNL     1       9.210   1.899   8.459  0.00  0.00    +0.003 C 
ATOM     11  C   UNL     1       8.813   1.533   9.890  0.00  0.00    +0.000 C 
ATOM     12  C   UNL     1       7.389   2.020  10.166  0.00  0.00    +0.003 C 
ATOM     13  C   UNL     1       6.422   1.345   9.190  0.00  0.00    +0.035 C 
ATOM     14  N   UNL     1       6.686   3.121   7.508  0.00  0.00    -0.284 N 
ATOM     15  C   UNL     1       5.779   3.252   6.522  0.00  0.00    +0.326 C 
ATOM     16  O   UNL     1       5.428   4.321   6.062  0.00  0.00    -0.251 OA
ATOM     17  H   UNL     1       7.159   3.837   7.961  0.00  0.00    +0.151 HD
ENDBRANCH   3   5
BRANCH   1  18
ATOM     18  C   UNL     1       2.020   2.040   4.258  0.00  0.00    +0.173 C 
BRANCH  18  19
ATOM     19  S   UNL     1       0.390   2.494   4.899  0.00  0.00    -0.095 S 
BRANCH  19  24
ATOM     20  C   UNL     1      -2.858   1.534  -0.056  0.00  0.00    +0.046 C 
ATOM     21  C   UNL     1      -2.084   1.785   1.212  0.00  0.00    -0.025 A 
ATOM     22  C   UNL     1      -2.736   2.226   2.351  0.00  0.00    -0.026 A 
ATOM     23  C   UNL     1      -1.978   2.453   3.505  0.00  0.00    +0.087 A 
ATOM     24  C   UNL     1      -0.592   2.218   3.461  0.00  0.00    +0.115 A 
ATOM     25  N   UNL     1      -0.020   1.791   2.345  0.00  0.00    -0.244 NA
ATOM     26  C   UNL     1      -0.718   1.572   1.248  0.00  0.00    +0.043 A 
ATOM     27  C   UNL     1      -0.013   1.086   0.008  0.00  0.00    +0.066 C 
ATOM     28  C   UNL     1      -4.224   2.462   2.346  0.00  0.00    +0.045 C 
BRANCH  23  29
ATOM     29  C   UNL     1      -2.602   2.914   4.708  0.00  0.00    +0.102 C 
ATOM     30  N   UNL     1      -3.097   3.280   5.663  0.00  0.00    -0.191 NA
ENDBRANCH  23  29
ENDBRANCH  19  24
ENDBRANCH  18  19
ENDBRANCH   1  18
TORSDOF 5
