REMARK  Name = ZINC22076331
REMARK  9 active torsions:
REMARK  status: ('A' for Active; 'I' for Inactive)
REMARK    1  A    between atoms: C_1  and  O_2
REMARK    2  A    between atoms: O_2  and  C_3
REMARK    3  A    between atoms: C_5  and  C_20
REMARK    4  A    between atoms: C_8  and  O_9
REMARK    5  A    between atoms: O_9  and  C_10
REMARK    6  A    between atoms: C_10  and  C_11
REMARK    7  A    between atoms: C_20  and  N_21
REMARK    8  A    between atoms: N_21  and  C_22
REMARK    9  A    between atoms: C_22  and  C_23
REMARK                            x       y       z     vdW  Elec       q    Type
REMARK                         _______ _______ _______ _____ _____    ______ ____
ROOT
ATOM      1  C   UNL     1      -1.976   1.163   1.348  0.00  0.00    +0.163 A 
ATOM      2  C   UNL     1      -2.590   0.365   0.396  0.00  0.00    +0.051 A 
ATOM      3  C   UNL     1      -3.904  -0.029   0.567  0.00  0.00    -0.060 A 
ATOM      4  C   UNL     1      -4.612   0.380   1.682  0.00  0.00    +0.021 A 
ATOM      5  C   UNL     1      -4.007   1.181   2.634  0.00  0.00    +0.063 A 
ATOM      6  C   UNL     1      -2.688   1.575   2.470  0.00  0.00    +0.176 A 
ATOM      7 BR   UNL     1      -4.979   1.738   4.157  0.00  0.00    -0.046 Br
ENDROOT
BRANCH   1   9
ATOM      8  C   UNL     1      -0.013   1.086   0.008  0.00  0.00    +0.277 C 
ATOM      9  O   UNL     1      -0.682   1.547   1.184  0.00  0.00    -0.491 OA
ENDBRANCH   1   9
BRANCH   6  10
ATOM     10  O   UNL     1      -2.091   2.362   3.405  0.00  0.00    -0.483 OA
BRANCH  10  11
ATOM     11  C   UNL     1      -2.194   3.776   3.224  0.00  0.00    +0.266 C 
BRANCH  11  12
ATOM     12  C   UNL     1      -1.478   4.480   4.348  0.00  0.00    +0.008 A 
ATOM     13  C   UNL     1      -0.858   3.744   5.340  0.00  0.00    +0.010 A 
ATOM     14  C   UNL     1      -0.201   4.389   6.371  0.00  0.00    +0.020 A 
ATOM     15  C   UNL     1      -0.164   5.772   6.410  0.00  0.00    +0.042 A 
ATOM     16  C   UNL     1      -0.784   6.509   5.418  0.00  0.00    +0.040 A 
ATOM     17  C   UNL     1      -1.437   5.862   4.383  0.00  0.00    +0.049 A 
ATOM     18 CL   UNL     1      -2.211   6.786   3.133  0.00  0.00    -0.083 Cl
ATOM     19 CL   UNL     1       0.661   6.582   7.705  0.00  0.00    -0.083 Cl
ENDBRANCH  11  12
ENDBRANCH  10  11
ENDBRANCH   6  10
BRANCH   3  20
ATOM     20  C   UNL     1      -4.568  -0.902  -0.467  0.00  0.00    -0.046 C 
BRANCH  20  21
ATOM     21  N   UNL     1      -5.205  -0.056  -1.485  0.00  0.00    +0.386 N 
ATOM     22  H   UNL     1      -5.960   0.586  -1.008  0.00  0.00    -0.085 HD
ATOM     23  H   UNL     1      -4.443   0.572  -1.970  0.00  0.00    -0.085 HD
BRANCH  21  24
ATOM     24  C   UNL     1      -5.864  -0.874  -2.512  0.00  0.00    -0.006 C 
BRANCH  24  25
ATOM     25  C   UNL     1      -6.505   0.026  -3.536  0.00  0.00    +0.088 A 
ATOM     26  C   UNL     1      -5.918   0.487  -4.655  0.00  0.00    +0.042 A 
ATOM     27  C   UNL     1      -6.875   1.290  -5.319  0.00  0.00    +0.041 A 
ATOM     28  C   UNL     1      -7.989   1.271  -4.565  0.00  0.00    +0.195 A 
ATOM     29  O   UNL     1      -7.761   0.499  -3.490  0.00  0.00    -0.470 OA
ENDBRANCH  24  25
ENDBRANCH  21  24
ENDBRANCH  20  21
ENDBRANCH   3  20
TORSDOF 8
