REMARK  Name = ZINC49122184
REMARK  6 active torsions:
REMARK  status: ('A' for Active; 'I' for Inactive)
REMARK    1  A    between atoms: C_1  and  C_2
REMARK    2  A    between atoms: C_2  and  C_3
REMARK    3  A    between atoms: C_9  and  N_11
REMARK    4  A    between atoms: C_12  and  C_16
REMARK    5  A    between atoms: C_19  and  N_23
REMARK    6  A    between atoms: C_21  and  N_22
REMARK                            x       y       z     vdW  Elec       q    Type
REMARK                         _______ _______ _______ _____ _____    ______ ____
ROOT
ATOM      1  N   UNL     1      -0.554  -2.537  -1.058  0.00  0.00    -0.222 N 
ATOM      2  C   UNL     1      -0.958  -3.515  -0.200  0.00  0.00    +0.184 A 
ATOM      3  N   UNL     1      -2.146  -3.915  -0.606  0.00  0.00    -0.108 NA
ATOM      4  N   UNL     1      -2.508  -3.260  -1.649  0.00  0.00    -0.023 NA
ATOM      5  N   UNL     1      -1.604  -2.404  -1.983  0.00  0.00    -0.043 NA
ENDROOT
BRANCH   1  11
ATOM      6  C   UNL     1       0.395  -0.289  -0.886  0.00  0.00    +0.013 C 
ATOM      7  C   UNL     1      -0.441   0.170  -2.082  0.00  0.00    +0.005 C 
ATOM      8  C   UNL     1       0.340  -0.076  -3.375  0.00  0.00    +0.000 C 
ATOM      9  C   UNL     1       0.646  -1.569  -3.510  0.00  0.00    +0.002 C 
ATOM     10  C   UNL     1       1.482  -2.028  -2.314  0.00  0.00    +0.027 C 
ATOM     11  C   UNL     1       0.701  -1.782  -1.021  0.00  0.00    +0.114 C 
BRANCH   6  13
ATOM     12  C   UNL     1      -0.584   1.461   0.605  0.00  0.00    +0.004 C 
ATOM     13  C   UNL     1      -0.386  -0.043   0.406  0.00  0.00    +0.002 C 
ENDBRANCH   6  13
ENDBRANCH   1  11
BRANCH   2  14
ATOM     14  C   UNL     1      -0.207  -4.029   0.964  0.00  0.00    +0.041 A 
ATOM     15  C   UNL     1       1.137  -4.380   0.831  0.00  0.00    +0.015 A 
ATOM     16  C   UNL     1       1.835  -4.859   1.917  0.00  0.00    +0.023 A 
ATOM     17  C   UNL     1       1.205  -4.994   3.151  0.00  0.00    +0.026 A 
ATOM     18  C   UNL     1      -0.132  -4.648   3.294  0.00  0.00    +0.046 A 
ATOM     19  C   UNL     1      -0.842  -4.160   2.208  0.00  0.00    +0.037 A 
BRANCH  19  20
ATOM     20  N   UNL     1      -2.181  -3.807   2.350  0.00  0.00    -0.357 N 
ATOM     21  H   UNL     1      -2.695  -3.530   1.575  0.00  0.00    +0.142 HD
ATOM     22  H   UNL     1      -2.601  -3.837   3.224  0.00  0.00    +0.142 HD
ENDBRANCH  19  20
BRANCH  17  23
ATOM     23  N   UNL     1       1.918  -5.480   4.246  0.00  0.00    -0.358 N 
ATOM     24  H   UNL     1       2.852  -5.723   4.147  0.00  0.00    +0.142 HD
ATOM     25  H   UNL     1       1.480  -5.575   5.106  0.00  0.00    +0.142 HD
ENDBRANCH  17  23
ENDBRANCH   2  14
TORSDOF 5
