REMARK  Name = ZINC08905628
REMARK  7 active torsions:
REMARK  status: ('A' for Active; 'I' for Inactive)
REMARK    1  A    between atoms: C_1  and  C_2
REMARK    2  A    between atoms: C_6  and  N_8
REMARK    3  A    between atoms: C_10  and  C_15
REMARK    4  A    between atoms: C_21  and  S_23
REMARK    5  A    between atoms: S_23  and  C_24
REMARK    6  A    between atoms: C_24  and  C_25
REMARK    7  A    between atoms: N_27  and  C_28
REMARK                            x       y       z     vdW  Elec       q    Type
REMARK                         _______ _______ _______ _____ _____    ______ ____
ROOT
ATOM      1  C   UNL     1      -0.493   2.714  -0.050  0.00  0.00    +0.224 C 
ATOM      2  O   UNL     1      -0.603   1.506  -0.091  0.00  0.00    -0.275 OA
ATOM      3  N   UNL     1       0.730   3.279  -0.025  0.00  0.00    -0.263 N 
ATOM      4  C   UNL     1       1.869   2.476  -0.047  0.00  0.00    +0.189 A 
ATOM      5  N   UNL     1       1.979   1.159  -0.085  0.00  0.00    -0.125 NA
ATOM      6  N   UNL     1       3.101   0.582  -0.104  0.00  0.00    -0.133 NA
ATOM      7  C   UNL     1       4.238   1.262  -0.076  0.00  0.00    +0.160 A 
ATOM      8  S   UNL     1       3.599   2.934  -0.024  0.00  0.00    -0.024 S 
ATOM      9  H   UNL     1       0.818   4.244   0.007  0.00  0.00    +0.157 HD
ENDROOT
BRANCH   1  12
ATOM     10  N   UNL     1      -3.974   3.421   0.782  0.00  0.00    -0.271 N 
ATOM     11  C   UNL     1      -3.008   2.722  -0.073  0.00  0.00    +0.127 C 
ATOM     12  C   UNL     1      -1.725   3.582  -0.033  0.00  0.00    +0.102 C 
ATOM     13  C   UNL     1      -1.873   4.306   1.325  0.00  0.00    +0.110 C 
ATOM     14  C   UNL     1      -3.364   4.313   1.582  0.00  0.00    +0.221 C 
ATOM     15  O   UNL     1      -3.926   5.019   2.391  0.00  0.00    -0.275 OA
BRANCH  10  21
ATOM     16  C   UNL     1      -8.483   4.613   2.339  0.00  0.00    +0.044 C 
ATOM     17  C   UNL     1      -7.563   3.753   1.512  0.00  0.00    -0.049 A 
ATOM     18  C   UNL     1      -8.083   2.733   0.736  0.00  0.00    +0.003 A 
ATOM     19  C   UNL     1      -7.242   1.941  -0.025  0.00  0.00    +0.002 A 
ATOM     20  C   UNL     1      -5.879   2.167  -0.012  0.00  0.00    +0.023 A 
ATOM     21  C   UNL     1      -5.354   3.190   0.766  0.00  0.00    +0.037 A 
ATOM     22  C   UNL     1      -6.201   3.980   1.534  0.00  0.00    +0.027 A 
ENDBRANCH  10  21
ENDBRANCH   1  12
BRANCH   7  23
ATOM     23  S   UNL     1       5.903   0.685  -0.088  0.00  0.00    -0.088 S 
BRANCH  23  24
ATOM     24  C   UNL     1       5.742  -1.121  -0.148  0.00  0.00    +0.172 C 
BRANCH  24  25
ATOM     25  C   UNL     1       7.112  -1.747  -0.163  0.00  0.00    +0.228 C 
ATOM     26  O   UNL     1       8.101  -1.045  -0.136  0.00  0.00    -0.275 OA
ATOM     27  N   UNL     1       7.239  -3.088  -0.206  0.00  0.00    -0.283 N 
ATOM     28  H   UNL     1       6.451  -3.652  -0.165  0.00  0.00    +0.155 HD
BRANCH  27  29
ATOM     29  C   UNL     1       8.511  -3.668  -0.312  0.00  0.00    +0.069 A 
ATOM     30  C   UNL     1       9.600  -3.073   0.308  0.00  0.00    +0.029 A 
ATOM     31  C   UNL     1      10.853  -3.646   0.203  0.00  0.00    +0.040 A 
ATOM     32  C   UNL     1      11.023  -4.814  -0.521  0.00  0.00    +0.126 A 
ATOM     33  C   UNL     1       9.939  -5.411  -1.142  0.00  0.00    +0.078 A 
ATOM     34  C   UNL     1       8.682  -4.844  -1.034  0.00  0.00    +0.147 A 
ATOM     35  F   UNL     1       7.622  -5.429  -1.635  0.00  0.00    -0.203 F 
ATOM     36  F   UNL     1      12.249  -5.372  -0.623  0.00  0.00    -0.205 F 
ENDBRANCH  27  29
ENDBRANCH  24  25
ENDBRANCH  23  24
ENDBRANCH   7  23
TORSDOF 6
