REMARK  Name = ZINC10453146
REMARK  7 active torsions:
REMARK  status: ('A' for Active; 'I' for Inactive)
REMARK    1  A    between atoms: C_1  and  C_2
REMARK    2  A    between atoms: N_4  and  C_5
REMARK    3  A    between atoms: C_8  and  N_11
REMARK    4  A    between atoms: C_12  and  C_14
REMARK    5  A    between atoms: C_14  and  S_15
REMARK    6  A    between atoms: S_15  and  C_16
REMARK    7  A    between atoms: C_19  and  C_22
REMARK                            x       y       z     vdW  Elec       q    Type
REMARK                         _______ _______ _______ _____ _____    ______ ____
ROOT
ATOM      1  N   UNL     1      -0.229   1.222   2.483  0.00  0.00    -0.285 N 
ATOM      2  C   UNL     1      -0.696   1.549   1.262  0.00  0.00    +0.227 C 
ATOM      3  O   UNL     1      -1.684   2.245   1.157  0.00  0.00    -0.275 OA
ATOM      4  H   UNL     1       0.520   0.612   2.569  0.00  0.00    +0.155 HD
ENDROOT
BRANCH   1   8
ATOM      5  C   UNL     1      -2.002   2.837   5.895  0.00  0.00    +0.033 A 
ATOM      6  C   UNL     1      -2.780   2.530   4.787  0.00  0.00    +0.025 A 
ATOM      7  C   UNL     1      -2.194   1.995   3.658  0.00  0.00    +0.025 A 
ATOM      8  C   UNL     1      -0.824   1.765   3.629  0.00  0.00    +0.034 A 
ATOM      9  C   UNL     1      -0.046   2.067   4.739  0.00  0.00    +0.025 A 
ATOM     10  C   UNL     1      -0.632   2.607   5.867  0.00  0.00    +0.025 A 
BRANCH   5  14
ATOM     11  C   UNL     1      -2.610   4.951   8.951  0.00  0.00    +0.109 C 
ATOM     12  C   UNL     1      -1.932   4.290   7.779  0.00  0.00    +0.214 C 
ATOM     13  O   UNL     1      -0.786   4.577   7.500  0.00  0.00    -0.276 OA
ATOM     14  N   UNL     1      -2.597   3.380   7.040  0.00  0.00    -0.286 N 
ATOM     15  H   UNL     1      -3.489   3.101   7.302  0.00  0.00    +0.155 HD
ENDBRANCH   5  14
ENDBRANCH   1   8
BRANCH   2  16
ATOM     16  C   UNL     1       0.008   1.049   0.027  0.00  0.00    +0.172 C 
BRANCH  16  17
ATOM     17  S   UNL     1      -0.856   1.654  -1.448  0.00  0.00    -0.095 S 
BRANCH  17  18
ATOM     18  C   UNL     1       0.077   0.993  -2.789  0.00  0.00    +0.120 A 
ATOM     19  C   UNL     1      -0.306   1.260  -4.106  0.00  0.00    +0.039 A 
ATOM     20  C   UNL     1       0.457   0.720  -5.125  0.00  0.00    +0.033 A 
ATOM     21  C   UNL     1       1.565  -0.060  -4.774  0.00  0.00    +0.093 A 
ATOM     22  N   UNL     1       1.852  -0.259  -3.495  0.00  0.00    -0.148 NA
ATOM     23  N   UNL     1       1.146   0.247  -2.550  0.00  0.00    -0.142 NA
BRANCH  21  24
ATOM     24  C   UNL     1       2.415  -0.661  -5.830  0.00  0.00    +0.002 A 
ATOM     25  C   UNL     1       2.110  -0.456  -7.175  0.00  0.00    +0.011 A 
ATOM     26  C   UNL     1       2.908  -1.014  -8.153  0.00  0.00    +0.016 A 
ATOM     27  C   UNL     1       4.002  -1.784  -7.801  0.00  0.00    +0.018 A 
ATOM     28  C   UNL     1       4.306  -1.995  -6.468  0.00  0.00    +0.016 A 
ATOM     29  C   UNL     1       3.518  -1.438  -5.481  0.00  0.00    +0.011 A 
ATOM     30 BR   UNL     1       5.086  -2.552  -9.148  0.00  0.00    -0.050 Br
ENDBRANCH  21  24
ENDBRANCH  17  18
ENDBRANCH  16  17
ENDBRANCH   2  16
TORSDOF 6
