REMARK  Name = ZINC29700715
REMARK  7 active torsions:
REMARK  status: ('A' for Active; 'I' for Inactive)
REMARK    1  A    between atoms: C_1  and  C_2
REMARK    2  A    between atoms: C_4  and  N_7
REMARK    3  A    between atoms: N_7  and  S_8
REMARK    4  A    between atoms: S_8  and  C_11
REMARK    5  A    between atoms: C_15  and  C_17
REMARK    6  A    between atoms: N_19  and  C_20
REMARK    7  A    between atoms: C_24  and  C_26
REMARK                            x       y       z     vdW  Elec       q    Type
REMARK                         _______ _______ _______ _____ _____    ______ ____
ROOT
ATOM      1  C   UNL     1       8.448  -0.658  -0.501  0.00  0.00    +0.111 A 
ATOM      2  C   UNL     1       8.460  -2.042  -0.508  0.00  0.00    +0.029 A 
ATOM      3  C   UNL     1       7.278  -2.751  -0.396  0.00  0.00    +0.003 A 
ATOM      4  C   UNL     1       6.078  -2.082  -0.272  0.00  0.00    +0.013 A 
ATOM      5  C   UNL     1       6.058  -0.686  -0.270  0.00  0.00    +0.039 A 
ATOM      6  C   UNL     1       7.255   0.023  -0.384  0.00  0.00    +0.042 A 
ENDROOT
BRANCH   5   7
ATOM      7  C   UNL     1       4.775   0.037  -0.144  0.00  0.00    +0.248 C 
ATOM      8  O   UNL     1       4.761   1.253  -0.138  0.00  0.00    -0.270 OA
ATOM      9  N   UNL     1       3.621  -0.650  -0.035  0.00  0.00    -0.281 N 
ATOM     10  H   UNL     1       3.640  -1.747   0.048  0.00  0.00    +0.155 HD
BRANCH   9  11
ATOM     11  C   UNL     1       2.399   0.030  -0.026  0.00  0.00    +0.034 A 
ATOM     12  C   UNL     1       1.337  -0.455   0.726  0.00  0.00    +0.023 A 
ATOM     13  C   UNL     1       0.132   0.219   0.731  0.00  0.00    +0.002 A 
ATOM     14  C   UNL     1      -0.018   1.376  -0.011  0.00  0.00    +0.005 A 
ATOM     15  C   UNL     1       1.038   1.863  -0.760  0.00  0.00    -0.023 A 
ATOM     16  C   UNL     1       2.245   1.193  -0.770  0.00  0.00    +0.028 A 
BRANCH  15  17
ATOM     17  C   UNL     1       0.870   3.124  -1.567  0.00  0.00    +0.133 C 
ATOM     18  S   UNL     1       0.439   4.500  -0.462  0.00  0.00    -0.142 S 
ATOM     19  C   UNL     1       0.152   5.888  -1.594  0.00  0.00    +0.071 C 
ATOM     20  C   UNL     1      -1.014   5.573  -2.525  0.00  0.00    +0.021 C 
ATOM     21  C   UNL     1      -0.615   4.528  -3.561  0.00  0.00    +0.071 C 
ATOM     22  S   UNL     1      -0.466   2.900  -2.777  0.00  0.00    -0.142 S 
ENDBRANCH  15  17
ENDBRANCH   9  11
ENDBRANCH   5   7
BRANCH   1  23
ATOM     23  S   UNL     1       9.960   0.235  -0.644  0.00  0.00    +0.093 S 
ATOM     24  O   UNL     1      10.884  -0.630  -1.290  0.00  0.00    -0.148 OA
ATOM     25  O   UNL     1       9.628   1.516  -1.160  0.00  0.00    -0.148 OA
BRANCH  23  26
ATOM     26  N   UNL     1      10.532   0.477   0.891  0.00  0.00    -0.074 NA
BRANCH  26  30
ATOM     27  C   UNL     1      12.193  -2.415   4.592  0.00  0.00    +0.089 C 
ATOM     28  C   UNL     1      11.650  -1.871   3.296  0.00  0.00    +0.136 A 
ATOM     29  C   UNL     1      11.429  -0.572   2.995  0.00  0.00    +0.094 A 
ATOM     30  C   UNL     1      10.920  -0.610   1.668  0.00  0.00    +0.205 A 
ATOM     31  N   UNL     1      10.885  -1.872   1.327  0.00  0.00    -0.060 NA
ATOM     32  O   UNL     1      11.291  -2.582   2.217  0.00  0.00    -0.358 OA
ENDBRANCH  26  30
ENDBRANCH  23  26
ENDBRANCH   1  23
TORSDOF 6
