REMARK  Name = ZINC33037212
REMARK  8 active torsions:
REMARK  status: ('A' for Active; 'I' for Inactive)
REMARK    1  A    between atoms: C_1  and  C_2
REMARK    2  A    between atoms: C_5  and  C_8
REMARK    3  A    between atoms: C_9  and  C_36
REMARK    4  A    between atoms: N_11  and  C_17
REMARK    5  A    between atoms: C_12  and  N_13
REMARK    6  A    between atoms: C_14  and  C_16
REMARK    7  A    between atoms: C_20  and  C_23
REMARK    8  A    between atoms: N_25  and  C_26
REMARK                            x       y       z     vdW  Elec       q    Type
REMARK                         _______ _______ _______ _____ _____    ______ ____
ROOT
ATOM      1  C   UNL     1       7.748  -3.653   1.102  0.00  0.00    +0.067 A 
ATOM      2  C   UNL     1       6.472  -4.108   1.414  0.00  0.00    +0.028 A 
ATOM      3  C   UNL     1       5.486  -3.213   1.764  0.00  0.00    +0.015 A 
ATOM      4  C   UNL     1       5.769  -1.845   1.806  0.00  0.00    +0.037 A 
ATOM      5  C   UNL     1       7.051  -1.391   1.486  0.00  0.00    +0.015 A 
ATOM      6  C   UNL     1       8.034  -2.292   1.143  0.00  0.00    +0.028 A 
ENDROOT
BRANCH   1  10
ATOM      7  C   UNL     1      10.506  -5.499  -0.203  0.00  0.00    +0.045 A 
ATOM      8  C   UNL     1       9.934  -6.419   0.697  0.00  0.00    +0.070 A 
ATOM      9  N   UNL     1       8.898  -5.857   1.260  0.00  0.00    -0.169 NA
ATOM     10  N   UNL     1       8.746  -4.564   0.747  0.00  0.00    -0.218 N 
ATOM     11  C   UNL     1       9.743  -4.346  -0.153  0.00  0.00    +0.137 A 
ATOM     12  C   UNL     1      10.437  -7.813   0.970  0.00  0.00    +0.068 C 
BRANCH   7  17
ATOM     13  C   UNL     1      15.157  -6.374  -3.484  0.00  0.00    +0.044 C 
ATOM     14  C   UNL     1      13.940  -6.145  -2.626  0.00  0.00    -0.050 A 
ATOM     15  C   UNL     1      14.062  -6.125  -1.248  0.00  0.00    +0.004 A 
ATOM     16  C   UNL     1      12.951  -5.915  -0.457  0.00  0.00    +0.009 A 
ATOM     17  C   UNL     1      11.704  -5.724  -1.048  0.00  0.00    -0.013 A 
ATOM     18  C   UNL     1      11.585  -5.752  -2.437  0.00  0.00    +0.009 A 
ATOM     19  C   UNL     1      12.704  -5.957  -3.218  0.00  0.00    +0.004 A 
ENDBRANCH   7  17
BRANCH  11  20
ATOM     20  N   UNL     1       9.956  -3.182  -0.885  0.00  0.00    -0.270 N 
ATOM     21  C   UNL     1       8.993  -2.718  -1.707  0.00  0.00    +0.215 C 
ATOM     22  O   UNL     1       7.908  -3.259  -1.736  0.00  0.00    -0.276 OA
ATOM     23  C   UNL     1       9.266  -1.528  -2.589  0.00  0.00    +0.109 C 
ATOM     24  H   UNL     1      10.909  -2.641  -0.794  0.00  0.00    +0.156 HD
ENDBRANCH  11  20
ENDBRANCH   1  10
BRANCH   4  25
ATOM     25  C   UNL     1       4.714  -0.883   2.181  0.00  0.00    +0.248 C 
ATOM     26  O   UNL     1       3.598  -1.280   2.454  0.00  0.00    -0.270 OA
ATOM     27  N   UNL     1       4.989   0.436   2.221  0.00  0.00    -0.281 N 
ATOM     28  H   UNL     1       5.975   0.802   1.898  0.00  0.00    +0.155 HD
BRANCH  27  29
ATOM     29  C   UNL     1       4.020   1.340   2.672  0.00  0.00    +0.037 A 
ATOM     30  C   UNL     1       4.399   2.456   3.406  0.00  0.00    +0.027 A 
ATOM     31  C   UNL     1       3.443   3.347   3.853  0.00  0.00    +0.051 A 
ATOM     32  C   UNL     1       2.102   3.130   3.571  0.00  0.00    +0.162 A 
ATOM     33  C   UNL     1       1.720   2.015   2.835  0.00  0.00    +0.164 A 
ATOM     34  C   UNL     1       2.679   1.120   2.388  0.00  0.00    +0.072 A 
ATOM     35  O   UNL     1       0.410   1.790   2.542  0.00  0.00    -0.485 OA
ATOM     36  C   UNL     1      -0.557   2.502   3.321  0.00  0.00    +0.270 C 
ATOM     37  C   UNL     1      -0.117   3.970   3.407  0.00  0.00    +0.270 C 
ATOM     38  O   UNL     1       1.173   4.015   4.028  0.00  0.00    -0.485 OA
ENDBRANCH  27  29
ENDBRANCH   4  25
TORSDOF 5
