REMARK  Name = ZINC12418723
REMARK  9 active torsions:
REMARK  status: ('A' for Active; 'I' for Inactive)
REMARK    1  A    between atoms: C_1  and  C_2
REMARK    2  A    between atoms: C_2  and  C_3
REMARK    3  A    between atoms: C_3  and  C_5
REMARK    4  A    between atoms: C_3  and  N_15
REMARK    5  A    between atoms: C_18  and  C_22
REMARK    6  A    between atoms: C_18  and  N_26
REMARK    7  A    between atoms: C_27  and  C_29
REMARK    8  A    between atoms: C_32  and  O_35
REMARK    9  A    between atoms: O_35  and  C_36
REMARK                            x       y       z     vdW  Elec       q    Type
REMARK                         _______ _______ _______ _____ _____    ______ ____
ROOT
ATOM      1  N   UNL     1       1.778   2.377   1.598  0.00  0.00    -0.219 N 
ATOM      2  C   UNL     1       1.097   1.276   1.222  0.00  0.00    +0.274 C 
ATOM      3  O   UNL     1       0.834   0.310   1.905  0.00  0.00    -0.271 OA
ATOM      4  C   UNL     1       0.730   1.498  -0.232  0.00  0.00    +0.278 C 
ATOM      5  N   UNL     1       1.299   2.822  -0.535  0.00  0.00    -0.263 N 
ATOM      6  C   UNL     1       1.890   3.254   0.594  0.00  0.00    +0.311 C 
ATOM      7  O   UNL     1       2.461   4.323   0.691  0.00  0.00    -0.252 OA
ATOM      8  H   UNL     1       1.256   3.291  -1.383  0.00  0.00    +0.153 HD
ENDROOT
BRANCH   4   9
ATOM      9  C   UNL     1       1.362   0.424  -1.120  0.00  0.00    +0.436 C 
ATOM     10  F   UNL     1       1.094   0.713  -2.463  0.00  0.00    -0.166 F 
ATOM     11  F   UNL     1       2.746   0.404  -0.915  0.00  0.00    -0.166 F 
ATOM     12  F   UNL     1       0.824  -0.826  -0.795  0.00  0.00    -0.166 F 
ENDBRANCH   4   9
BRANCH   4  13
ATOM     13  N   UNL     1      -0.726   1.511  -0.399  0.00  0.00    -0.276 N 
ATOM     14  C   UNL     1      -1.466   0.483   0.059  0.00  0.00    +0.246 C 
ATOM     15  O   UNL     1      -0.921  -0.494   0.536  0.00  0.00    -0.270 OA
ATOM     16  H   UNL     1      -1.156   2.259  -0.843  0.00  0.00    +0.152 HD
BRANCH  14  17
ATOM     17  C   UNL     1      -2.939   0.541  -0.020  0.00  0.00    +0.037 A 
ATOM     18  C   UNL     1      -3.567   1.665  -0.564  0.00  0.00    +0.016 A 
ATOM     19  C   UNL     1      -4.941   1.713  -0.640  0.00  0.00    +0.046 A 
ATOM     20  C   UNL     1      -5.704   0.651  -0.168  0.00  0.00    +0.120 A 
ATOM     21  C   UNL     1      -5.082  -0.466   0.378  0.00  0.00    +0.046 A 
ATOM     22  C   UNL     1      -3.709  -0.524   0.454  0.00  0.00    +0.016 A 
BRANCH  20  23
ATOM     23  O   UNL     1      -7.058   0.705  -0.240  0.00  0.00    -0.495 OA
ATOM     24  C   UNL     1      -7.630   1.882  -0.813  0.00  0.00    +0.277 C 
ENDBRANCH  20  23
ENDBRANCH  14  17
ENDBRANCH   4  13
BRANCH   1  25
ATOM     25  C   UNL     1       2.327   2.587   2.939  0.00  0.00    +0.092 C 
BRANCH  25  26
ATOM     26  C   UNL     1       1.327   3.382   3.781  0.00  0.00    -0.009 C 
ATOM     27  C   UNL     1       1.941   3.686   5.149  0.00  0.00    +0.012 C 
ATOM     28  C   UNL     1       0.941   4.481   5.992  0.00  0.00    -0.010 C 
ATOM     29  C   UNL     1      -0.336   3.660   6.177  0.00  0.00    +0.007 C 
ATOM     30  C   UNL     1      -0.950   3.356   4.809  0.00  0.00    -0.010 C 
ATOM     31  C   UNL     1       0.050   2.561   3.966  0.00  0.00    +0.012 C 
ATOM     32  C   UNL     1      -1.286   4.668   4.097  0.00  0.00    +0.007 C 
ATOM     33  C   UNL     1      -0.008   5.489   3.912  0.00  0.00    -0.010 C 
ATOM     34  C   UNL     1       0.605   5.794   5.280  0.00  0.00    +0.007 C 
ATOM     35  C   UNL     1       0.992   4.694   3.070  0.00  0.00    +0.012 C 
ENDBRANCH  25  26
BRANCH  25  37
ATOM     36  C   UNL     1       4.598   2.628   1.899  0.00  0.00    +0.006 C 
ATOM     37  C   UNL     1       3.640   3.365   2.837  0.00  0.00    +0.020 C 
ENDBRANCH  25  37
ENDBRANCH   1  25
TORSDOF 7
