REMARK  Name = ZINC36252660
REMARK  3 active torsions:
REMARK  status: ('A' for Active; 'I' for Inactive)
REMARK    1  A    between atoms: C_1  and  C_2
REMARK    2  A    between atoms: C_3  and  N_19
REMARK    3  A    between atoms: C_8  and  C_11
REMARK                            x       y       z     vdW  Elec       q    Type
REMARK                         _______ _______ _______ _____ _____    ______ ____
ROOT
ATOM      1  C   UNL     1      -1.999   1.185   1.005  0.00  0.00    +0.066 C 
ATOM      2  C   UNL     1      -1.638  -0.267   0.825  0.00  0.00    +0.045 A 
ATOM      3  C   UNL     1      -2.330  -1.029  -0.059  0.00  0.00    +0.044 A 
ATOM      4  C   UNL     1      -1.999  -2.389  -0.233  0.00  0.00    +0.028 A 
ATOM      5  C   UNL     1      -0.982  -2.933   0.488  0.00  0.00    +0.050 A 
ATOM      6  C   UNL     1      -0.275  -2.128   1.400  0.00  0.00    +0.162 A 
ATOM      7  N   UNL     1      -0.613  -0.806   1.548  0.00  0.00    -0.278 N 
ATOM      8  C   UNL     1       0.247  -0.301   2.484  0.00  0.00    +0.169 A 
ATOM      9  N   UNL     1       1.045  -1.284   2.853  0.00  0.00    -0.128 NA
ATOM     10  N   UNL     1       0.737  -2.363   2.224  0.00  0.00    -0.129 NA
ENDROOT
BRANCH   8  11
ATOM     11  C   UNL     1       0.277   1.088   2.988  0.00  0.00    +0.022 A 
ATOM     12  C   UNL     1       0.202   1.337   4.360  0.00  0.00    +0.014 A 
ATOM     13  C   UNL     1       0.230   2.635   4.826  0.00  0.00    +0.042 A 
ATOM     14  C   UNL     1       0.333   3.692   3.936  0.00  0.00    +0.158 A 
ATOM     15  C   UNL     1       0.408   3.451   2.571  0.00  0.00    +0.159 A 
ATOM     16  C   UNL     1       0.387   2.155   2.095  0.00  0.00    +0.053 A 
ATOM     17  F   UNL     1       0.508   4.486   1.708  0.00  0.00    -0.202 F 
ATOM     18  F   UNL     1       0.361   4.961   4.398  0.00  0.00    -0.202 F 
ENDBRANCH   8  11
BRANCH   3  19
ATOM     19  N   UNL     1      -3.376  -0.465  -0.799  0.00  0.00    -0.357 N 
ATOM     20  H   UNL     1      -3.605   0.470  -0.680  0.00  0.00    +0.142 HD
ATOM     21  H   UNL     1      -3.872  -1.009  -1.431  0.00  0.00    +0.142 HD
ENDBRANCH   3  19
TORSDOF 2
