REMARK  Name = ZINC11752331
REMARK  4 active torsions:
REMARK  status: ('A' for Active; 'I' for Inactive)
REMARK    1  A    between atoms: C_3  and  N_23
REMARK    2  A    between atoms: C_6  and  C_7
REMARK    3  A    between atoms: N_23  and  S_24
REMARK    4  A    between atoms: S_24  and  C_27
REMARK                            x       y       z     vdW  Elec       q    Type
REMARK                         _______ _______ _______ _____ _____    ______ ____
ROOT
ATOM      1  C   UNL     1       3.456  -3.165  -4.349  0.00  0.00    +0.015 A 
ATOM      2  C   UNL     1       2.464  -3.472  -3.445  0.00  0.00    +0.025 A 
ATOM      3  C   UNL     1       2.112  -2.556  -2.457  0.00  0.00    +0.048 A 
ATOM      4  C   UNL     1       2.758  -1.325  -2.384  0.00  0.00    +0.025 A 
ATOM      5  C   UNL     1       3.754  -1.013  -3.281  0.00  0.00    +0.015 A 
ATOM      6  C   UNL     1       4.109  -1.931  -4.274  0.00  0.00    +0.037 A 
ENDROOT
BRANCH   6   7
ATOM      7  C   UNL     1       5.172  -1.598  -5.241  0.00  0.00    +0.250 C 
ATOM      8  O   UNL     1       5.480  -2.397  -6.104  0.00  0.00    -0.270 OA
ATOM      9  N   UNL     1       5.801  -0.409  -5.168  0.00  0.00    -0.261 N 
ATOM     10  C   UNL     1       6.799  -0.096  -6.076  0.00  0.00    +0.166 A 
ATOM     11  N   UNL     1       7.519   0.998  -6.165  0.00  0.00    -0.224 NA
ATOM     12  C   UNL     1       8.468   1.168  -7.112  0.00  0.00    +0.084 A 
ATOM     13  C   UNL     1       9.304   2.290  -7.315  0.00  0.00    +0.078 A 
ATOM     14  C   UNL     1      10.229   2.311  -8.334  0.00  0.00    +0.164 A 
ATOM     15  C   UNL     1      10.370   1.222  -9.194  0.00  0.00    +0.163 A 
ATOM     16  C   UNL     1       9.565   0.107  -9.021  0.00  0.00    +0.066 A 
ATOM     17  C   UNL     1       8.641   0.088  -8.006  0.00  0.00    +0.044 A 
ATOM     18  S   UNL     1       7.441  -1.084  -7.420  0.00  0.00    -0.052 S 
ATOM     19  O   UNL     1      11.287   1.234 -10.200  0.00  0.00    -0.485 OA
ATOM     20  C   UNL     1      11.816   2.511 -10.572  0.00  0.00    +0.270 C 
ATOM     21  C   UNL     1      12.190   3.267  -9.289  0.00  0.00    +0.270 C 
ATOM     22  O   UNL     1      11.008   3.419  -8.496  0.00  0.00    -0.485 OA
ATOM     23  H   UNL     1       5.556   0.228  -4.479  0.00  0.00    +0.157 HD
ENDBRANCH   6   7
BRANCH   3  24
ATOM     24  N   UNL     1       1.110  -2.869  -1.546  0.00  0.00    -0.216 N 
ATOM     25  H   UNL     1       0.238  -2.453  -1.622  0.00  0.00    +0.174 HD
BRANCH  24  26
ATOM     26  S   UNL     1       1.406  -3.955  -0.330  0.00  0.00    +0.072 S 
ATOM     27  O   UNL     1       1.970  -5.106  -0.943  0.00  0.00    -0.150 OA
ATOM     28  O   UNL     1       0.226  -4.012   0.459  0.00  0.00    -0.150 OA
BRANCH  26  29
ATOM     29  C   UNL     1       2.663  -3.262   0.692  0.00  0.00    +0.109 A 
ATOM     30  C   UNL     1       2.325  -2.377   1.698  0.00  0.00    +0.031 A 
ATOM     31  C   UNL     1       3.310  -1.832   2.501  0.00  0.00    +0.040 A 
ATOM     32  C   UNL     1       4.636  -2.174   2.296  0.00  0.00    +0.124 A 
ATOM     33  C   UNL     1       4.974  -3.061   1.287  0.00  0.00    +0.040 A 
ATOM     34  C   UNL     1       3.987  -3.604   0.486  0.00  0.00    +0.031 A 
ATOM     35  F   UNL     1       5.600  -1.643   3.079  0.00  0.00    -0.205 F 
ENDBRANCH  26  29
ENDBRANCH  24  26
ENDBRANCH   3  24
TORSDOF 4
