REMARK  Name = ZINC01171412
REMARK  7 active torsions:
REMARK  status: ('A' for Active; 'I' for Inactive)
REMARK    1  A    between atoms: C_1  and  C_2
REMARK    2  A    between atoms: C_6  and  C_8
REMARK    3  A    between atoms: N_10  and  C_11
REMARK    4  A    between atoms: C_11  and  N_13
REMARK    5  A    between atoms: N_13  and  C_14
REMARK    6  A    between atoms: C_18  and  N_20
REMARK    7  A    between atoms: C_21  and  C_23
REMARK                            x       y       z     vdW  Elec       q    Type
REMARK                         _______ _______ _______ _____ _____    ______ ____
ROOT
ATOM      1  C   UNL     1       2.352   9.409   0.097  0.00  0.00    +0.034 A 
ATOM      2  C   UNL     1       1.175  10.148   0.119  0.00  0.00    +0.023 A 
ATOM      3  C   UNL     1       1.220  11.525   0.024  0.00  0.00    +0.004 A 
ATOM      4  C   UNL     1       2.435  12.173  -0.092  0.00  0.00    +0.023 A 
ATOM      5  C   UNL     1       3.615  11.440  -0.115  0.00  0.00    +0.035 A 
ATOM      6  C   UNL     1       3.574  10.057  -0.014  0.00  0.00    +0.046 A 
ENDROOT
BRANCH   5   7
ATOM      7  N   UNL     1       4.845  12.097  -0.232  0.00  0.00    -0.281 N 
ATOM      8  C   UNL     1       5.844  11.534  -0.941  0.00  0.00    +0.250 C 
ATOM      9  O   UNL     1       5.696  10.431  -1.430  0.00  0.00    -0.270 OA
ATOM     10  H   UNL     1       4.978  12.957   0.196  0.00  0.00    +0.155 HD
BRANCH   8  11
ATOM     11  C   UNL     1       7.118  12.258  -1.122  0.00  0.00    +0.055 A 
ATOM     12  C   UNL     1       7.292  13.525  -0.562  0.00  0.00    +0.016 A 
ATOM     13  C   UNL     1       8.483  14.196  -0.735  0.00  0.00    +0.021 A 
ATOM     14  C   UNL     1       9.509  13.616  -1.464  0.00  0.00    +0.042 A 
ATOM     15  C   UNL     1       9.345  12.360  -2.022  0.00  0.00    +0.040 A 
ATOM     16  C   UNL     1       8.158  11.675  -1.852  0.00  0.00    +0.054 A 
ATOM     17 CL   UNL     1       7.956  10.097  -2.546  0.00  0.00    -0.083 Cl
ATOM     18 CL   UNL     1      11.007  14.468  -1.677  0.00  0.00    -0.083 Cl
ENDBRANCH   8  11
ENDBRANCH   5   7
BRANCH   1  19
ATOM     19  N   UNL     1       2.305   8.014   0.193  0.00  0.00    -0.297 N 
ATOM     20  H   UNL     1       2.929   7.547   0.770  0.00  0.00    +0.154 HD
BRANCH  19  21
ATOM     21  C   UNL     1       1.393   7.320  -0.516  0.00  0.00    +0.141 C 
ATOM     22  S   UNL     1       0.231   8.150  -1.460  0.00  0.00    -0.018 S 
BRANCH  21  25
ATOM     23  C   UNL     1       0.485   5.279  -1.193  0.00  0.00    +0.250 C 
ATOM     24  O   UNL     1      -0.340   5.868  -1.863  0.00  0.00    -0.270 OA
ATOM     25  N   UNL     1       1.397   5.973  -0.483  0.00  0.00    -0.264 N 
ATOM     26  H   UNL     1       2.055   5.503   0.052  0.00  0.00    +0.157 HD
BRANCH  23  32
ATOM     27  C   UNL     1      -1.456   0.920  -2.650  0.00  0.00    +0.044 C 
ATOM     28  C   UNL     1      -0.443   1.701  -1.855  0.00  0.00    -0.050 A 
ATOM     29  C   UNL     1       0.495   1.033  -1.086  0.00  0.00    +0.003 A 
ATOM     30  C   UNL     1       1.433   1.743  -0.357  0.00  0.00    +0.001 A 
ATOM     31  C   UNL     1       1.435   3.122  -0.387  0.00  0.00    +0.013 A 
ATOM     32  C   UNL     1       0.489   3.802  -1.156  0.00  0.00    +0.037 A 
ATOM     33  C   UNL     1      -0.455   3.080  -1.890  0.00  0.00    +0.016 A 
ENDBRANCH  23  32
ENDBRANCH  21  25
ENDBRANCH  19  21
ENDBRANCH   1  19
TORSDOF 6
