REMARK  Name = ZINC09632962
REMARK  8 active torsions:
REMARK  status: ('A' for Active; 'I' for Inactive)
REMARK    1  A    between atoms: C_1  and  C_2
REMARK    2  A    between atoms: C_5  and  C_16
REMARK    3  A    between atoms: C_7  and  N_8
REMARK    4  A    between atoms: C_9  and  C_11
REMARK    5  A    between atoms: C_16  and  O_18
REMARK    6  A    between atoms: O_18  and  C_19
REMARK    7  A    between atoms: C_19  and  C_20
REMARK    8  A    between atoms: N_22  and  C_23
REMARK                            x       y       z     vdW  Elec       q    Type
REMARK                         _______ _______ _______ _____ _____    ______ ____
ROOT
ATOM      1  C   UNL     1     -10.544  -1.880  -0.770  0.00  0.00    +0.045 C 
ATOM      2  C   UNL     1      -9.367  -0.944  -0.665  0.00  0.00    -0.029 A 
ATOM      3  C   UNL     1      -8.087  -1.456  -0.559  0.00  0.00    +0.006 A 
ATOM      4  C   UNL     1      -7.004  -0.607  -0.467  0.00  0.00    +0.015 A 
ATOM      5  C   UNL     1      -7.199   0.776  -0.471  0.00  0.00    +0.061 A 
ATOM      6  C   UNL     1      -8.491   1.293  -0.578  0.00  0.00    +0.038 A 
ATOM      7  C   UNL     1      -9.572   0.430  -0.676  0.00  0.00    +0.037 A 
ENDROOT
BRANCH   7   8
ATOM      8  N   UNL     1     -10.868   0.943  -0.784  0.00  0.00    -0.279 N 
ATOM      9  C   UNL     1     -11.087   2.085  -1.466  0.00  0.00    +0.284 C 
ATOM     10  O   UNL     1     -10.147   2.715  -1.915  0.00  0.00    -0.266 OA
ATOM     11  H   UNL     1     -11.611   0.478  -0.367  0.00  0.00    +0.155 HD
BRANCH   9  12
ATOM     12  C   UNL     1     -12.457   2.567  -1.669  0.00  0.00    +0.189 A 
ATOM     13  C   UNL     1     -12.817   3.702  -2.338  0.00  0.00    +0.054 A 
ATOM     14  C   UNL     1     -14.218   3.772  -2.287  0.00  0.00    +0.042 A 
ATOM     15  C   UNL     1     -14.646   2.691  -1.598  0.00  0.00    +0.196 A 
ATOM     16  O   UNL     1     -13.582   1.965  -1.232  0.00  0.00    -0.458 OA
ENDBRANCH   9  12
ENDBRANCH   7   8
BRANCH   5  17
ATOM     17  C   UNL     1      -6.042   1.689  -0.367  0.00  0.00    +0.340 C 
ATOM     18  O   UNL     1      -6.214   2.891  -0.375  0.00  0.00    -0.245 OA
BRANCH  17  19
ATOM     19  O   UNL     1      -4.796   1.187  -0.263  0.00  0.00    -0.452 OA
BRANCH  19  20
ATOM     20  C   UNL     1      -3.707   2.143  -0.164  0.00  0.00    +0.328 C 
BRANCH  20  21
ATOM     21  C   UNL     1      -2.398   1.403  -0.056  0.00  0.00    +0.255 C 
ATOM     22  O   UNL     1      -2.385   0.190  -0.062  0.00  0.00    -0.272 OA
ATOM     23  N   UNL     1      -1.243   2.090   0.046  0.00  0.00    -0.280 N 
ATOM     24  H   UNL     1      -1.259   3.055   0.132  0.00  0.00    +0.155 HD
BRANCH  23  25
ATOM     25  C   UNL     1      -0.020   1.408   0.029  0.00  0.00    +0.069 A 
ATOM     26  C   UNL     1       0.076   0.166  -0.585  0.00  0.00    +0.027 A 
ATOM     27  C   UNL     1       1.285  -0.501  -0.605  0.00  0.00    +0.017 A 
ATOM     28  C   UNL     1       2.401   0.065  -0.015  0.00  0.00    +0.021 A 
ATOM     29  C   UNL     1       2.310   1.302   0.598  0.00  0.00    +0.055 A 
ATOM     30  C   UNL     1       1.103   1.976   0.622  0.00  0.00    +0.146 A 
ATOM     31  F   UNL     1       1.014   3.184   1.220  0.00  0.00    -0.204 F 
ATOM     32 BR   UNL     1       4.054  -0.853  -0.047  0.00  0.00    -0.050 Br
ENDBRANCH  23  25
ENDBRANCH  20  21
ENDBRANCH  19  20
ENDBRANCH  17  19
ENDBRANCH   5  17
TORSDOF 7
