REMARK  Name = ZINC42272399
REMARK  5 active torsions:
REMARK  status: ('A' for Active; 'I' for Inactive)
REMARK    1  A    between atoms: C_1  and  C_2
REMARK    2  A    between atoms: C_5  and  N_21
REMARK    3  A    between atoms: C_7  and  S_8
REMARK    4  A    between atoms: S_8  and  N_11
REMARK    5  A    between atoms: C_16  and  C_18
REMARK                            x       y       z     vdW  Elec       q    Type
REMARK                         _______ _______ _______ _____ _____    ______ ____
ROOT
ATOM      1  S   UNL     1       0.148   0.375   2.715  0.00  0.00    +0.062 S 
ATOM      2  O   UNL     1       0.409  -1.009   2.526  0.00  0.00    -0.153 OA
ATOM      3  O   UNL     1      -0.516   1.165   1.738  0.00  0.00    -0.153 OA
ENDROOT
BRANCH   1  10
ATOM      4  C   UNL     1       0.822  -1.059   5.288  0.00  0.00    +0.046 C 
ATOM      5  C   UNL     1      -0.404  -0.183   5.329  0.00  0.00    -0.024 A 
ATOM      6  C   UNL     1      -1.135  -0.073   6.497  0.00  0.00    +0.007 A 
ATOM      7  C   UNL     1      -2.259   0.728   6.538  0.00  0.00    +0.023 A 
ATOM      8  C   UNL     1      -2.654   1.425   5.403  0.00  0.00    +0.026 A 
ATOM      9  C   UNL     1      -1.917   1.312   4.231  0.00  0.00    +0.051 A 
ATOM     10  C   UNL     1      -0.791   0.513   4.199  0.00  0.00    +0.110 A 
BRANCH   8  11
ATOM     11  N   UNL     1      -3.791   2.236   5.440  0.00  0.00    -0.358 N 
ATOM     12  H   UNL     1      -4.304   2.314   6.259  0.00  0.00    +0.142 HD
ATOM     13  H   UNL     1      -4.066   2.722   4.647  0.00  0.00    +0.142 HD
ENDBRANCH   8  11
ENDBRANCH   1  10
BRANCH   1  14
ATOM     14  N   UNL     1       1.612   1.099   2.993  0.00  0.00    -0.165 NA
ATOM     15  C   UNL     1       2.759   0.311   3.464  0.00  0.00    +0.110 C 
ATOM     16  C   UNL     1       3.318   0.964   4.732  0.00  0.00    +0.017 C 
ATOM     17  C   UNL     1       3.639   2.432   4.446  0.00  0.00    +0.003 C 
ATOM     18  C   UNL     1       2.358   3.168   4.048  0.00  0.00    +0.030 C 
ATOM     19  C   UNL     1       1.790   2.540   2.767  0.00  0.00    +0.165 C 
BRANCH  19  20
ATOM     20  C   UNL     1       0.459   3.168   2.441  0.00  0.00    +0.229 C 
ATOM     21  O   UNL     1      -0.473   3.045   3.207  0.00  0.00    -0.274 OA
ATOM     22  N   UNL     1       0.305   3.866   1.299  0.00  0.00    -0.328 N 
ATOM     23  H   UNL     1       1.051   3.964   0.686  0.00  0.00    +0.145 HD
ATOM     24  H   UNL     1      -0.551   4.270   1.089  0.00  0.00    +0.145 HD
ENDBRANCH  19  20
ENDBRANCH   1  14
TORSDOF 4
