REMARK  Name = ZINC20723365
REMARK  5 active torsions:
REMARK  status: ('A' for Active; 'I' for Inactive)
REMARK    1  A    between atoms: C_1  and  O_2
REMARK    2  A    between atoms: O_2  and  C_3
REMARK    3  A    between atoms: C_3  and  C_5
REMARK    4  A    between atoms: C_10  and  N_11
REMARK    5  A    between atoms: C_23  and  C_25
REMARK                            x       y       z     vdW  Elec       q    Type
REMARK                         _______ _______ _______ _____ _____    ______ ____
ROOT
ATOM      1  N   UNL     1       1.977  -1.471   3.152  0.00  0.00    -0.269 N 
ATOM      2  C   UNL     1       2.776  -2.161   3.990  0.00  0.00    +0.307 C 
ATOM      3  O   UNL     1       2.975  -3.346   3.803  0.00  0.00    -0.252 OA
ATOM      4  N   UNL     1       3.354  -1.538   5.036  0.00  0.00    -0.272 N 
ATOM      5  C   UNL     1       3.212  -0.086   5.220  0.00  0.00    +0.116 C 
ATOM      6  C   UNL     1       2.436   0.183   6.516  0.00  0.00    +0.074 C 
ATOM      7  C   UNL     1       2.985  -0.703   7.603  0.00  0.00    +0.040 A 
ATOM      8  C   UNL     1       3.738  -1.804   7.394  0.00  0.00    +0.062 A 
ATOM      9  N   UNL     1       4.038  -2.334   8.582  0.00  0.00    -0.348 N 
ATOM     10  C   UNL     1       3.502  -1.602   9.524  0.00  0.00    +0.171 A 
ATOM     11  N   UNL     1       2.837  -0.573   8.951  0.00  0.00    -0.349 N 
ATOM     12  H   UNL     1       2.348   0.126   9.412  0.00  0.00    +0.166 HD
ATOM     13  C   UNL     1       4.138  -2.296   6.027  0.00  0.00    +0.159 C 
ATOM     14  H   UNL     1       1.871  -0.513   3.262  0.00  0.00    +0.156 HD
ATOM     15  H   UNL     1       4.568  -3.134   8.723  0.00  0.00    +0.167 HD
ENDROOT
BRANCH  13  16
ATOM     16  C   UNL     1       5.610  -2.054   5.811  0.00  0.00    +0.017 A 
ATOM     17  C   UNL     1       6.298  -1.190   6.643  0.00  0.00    +0.011 A 
ATOM     18  C   UNL     1       7.647  -0.967   6.446  0.00  0.00    +0.042 A 
ATOM     19  C   UNL     1       8.313  -1.607   5.415  0.00  0.00    +0.161 A 
ATOM     20  C   UNL     1       7.625  -2.473   4.580  0.00  0.00    +0.194 A 
ATOM     21  C   UNL     1       6.273  -2.701   4.782  0.00  0.00    +0.167 A 
ATOM     22  F   UNL     1       5.601  -3.549   3.973  0.00  0.00    -0.202 F 
ATOM     23  F   UNL     1       8.273  -3.099   3.572  0.00  0.00    -0.199 F 
ATOM     24  F   UNL     1       9.632  -1.388   5.222  0.00  0.00    -0.202 F 
ENDBRANCH  13  16
BRANCH   1  30
ATOM     25  C   UNL     1       0.080  -1.640   1.654  0.00  0.00    +0.080 A 
ATOM     26  C   UNL     1      -0.582  -2.311   0.623  0.00  0.00    +0.017 A 
ATOM     27  C   UNL     1      -0.033  -3.453   0.082  0.00  0.00    +0.001 A 
ATOM     28  C   UNL     1       1.174  -3.941   0.557  0.00  0.00    +0.002 A 
ATOM     29  C   UNL     1       1.840  -3.289   1.575  0.00  0.00    +0.024 A 
ATOM     30  C   UNL     1       1.305  -2.134   2.128  0.00  0.00    +0.049 A 
BRANCH  25  31
ATOM     31  C   UNL     1      -0.502  -0.417   2.237  0.00  0.00    +0.341 C 
ATOM     32  O   UNL     1       0.018   0.102   3.204  0.00  0.00    -0.245 OA
BRANCH  31  34
ATOM     33  C   UNL     1      -2.121   1.309   2.313  0.00  0.00    +0.280 C 
ATOM     34  O   UNL     1      -1.612   0.124   1.697  0.00  0.00    -0.464 OA
ENDBRANCH  31  34
ENDBRANCH  25  31
ENDBRANCH   1  30
TORSDOF 4
