REMARK  Name = ZINC14031773
REMARK  9 active torsions:
REMARK  status: ('A' for Active; 'I' for Inactive)
REMARK    1  A    between atoms: C_1  and  C_2
REMARK    2  A    between atoms: C_5  and  C_9
REMARK    3  A    between atoms: N_11  and  C_12
REMARK    4  A    between atoms: C_12  and  N_14
REMARK    5  A    between atoms: N_14  and  N_15
REMARK    6  A    between atoms: C_16  and  C_18
REMARK    7  A    between atoms: C_18  and  C_20
REMARK    8  A    between atoms: C_18  and  O_21
REMARK    9  A    between atoms: O_21  and  C_22
REMARK                            x       y       z     vdW  Elec       q    Type
REMARK                         _______ _______ _______ _____ _____    ______ ____
ROOT
ATOM      1  N   UNL     1      -4.738  -0.117  -0.553  0.00  0.00    -0.232 N 
ATOM      2  C   UNL     1      -3.520  -0.689  -0.467  0.00  0.00    +0.270 C 
ATOM      3  O   UNL     1      -3.350  -1.818  -0.875  0.00  0.00    -0.270 OA
ATOM      4  H   UNL     1      -4.874   0.786  -0.227  0.00  0.00    +0.173 HD
ENDROOT
BRANCH   1   5
ATOM      5  N   UNL     1      -5.807  -0.828  -1.114  0.00  0.00    -0.245 N 
ATOM      6  H   UNL     1      -5.671  -1.731  -1.440  0.00  0.00    +0.172 HD
BRANCH   5   7
ATOM      7  C   UNL     1      -7.025  -0.256  -1.200  0.00  0.00    +0.153 C 
ATOM      8  S   UNL     1      -8.332  -1.124  -1.885  0.00  0.00    -0.017 S 
BRANCH   7  11
ATOM      9  C   UNL     1      -8.431   1.571  -0.832  0.00  0.00    +0.250 C 
ATOM     10  O   UNL     1      -9.359   0.954  -1.319  0.00  0.00    -0.270 OA
ATOM     11  N   UNL     1      -7.214   0.999  -0.746  0.00  0.00    -0.263 N 
ATOM     12  H   UNL     1      -6.473   1.491  -0.358  0.00  0.00    +0.157 HD
BRANCH   9  17
ATOM     13  C   UNL     1      -9.235   6.930   1.105  0.00  0.00    +0.045 C 
ATOM     14  C   UNL     1      -9.025   5.526   0.597  0.00  0.00    -0.036 A 
ATOM     15  C   UNL     1      -7.774   4.942   0.686  0.00  0.00    +0.005 A 
ATOM     16  C   UNL     1      -7.576   3.655   0.230  0.00  0.00    +0.013 A 
ATOM     17  C   UNL     1      -8.638   2.947  -0.335  0.00  0.00    +0.038 A 
ATOM     18  C   UNL     1      -9.898   3.542  -0.422  0.00  0.00    +0.028 A 
ATOM     19  C   UNL     1     -10.084   4.827   0.044  0.00  0.00    +0.021 A 
ATOM     20 BR   UNL     1     -11.790   5.636  -0.074  0.00  0.00    -0.050 Br
ENDBRANCH   9  17
ENDBRANCH   7  11
ENDBRANCH   5   7
ENDBRANCH   1   5
BRANCH   2  21
ATOM     21  C   UNL     1      -2.370   0.076   0.136  0.00  0.00    +0.257 C 
ATOM     22  C   UNL     1      -2.653   0.339   1.617  0.00  0.00    +0.062 C 
BRANCH  21  23
ATOM     23  O   UNL     1      -1.171  -0.691   0.010  0.00  0.00    -0.480 OA
BRANCH  23  24
ATOM     24  C   UNL     1       0.002  -0.004   0.007  0.00  0.00    +0.122 A 
ATOM     25  C   UNL     1      -0.004   1.375   0.240  0.00  0.00    +0.046 A 
ATOM     26  C   UNL     1       1.153   2.088   0.244  0.00  0.00    +0.012 A 
ATOM     27  C   UNL     1       2.376   1.435   0.010  0.00  0.00    -0.018 A 
ATOM     28  C   UNL     1       3.590   2.142   0.006  0.00  0.00    +0.008 A 
ATOM     29  C   UNL     1       4.756   1.478  -0.224  0.00  0.00    +0.001 A 
ATOM     30  C   UNL     1       4.765   0.104  -0.457  0.00  0.00    +0.001 A 
ATOM     31  C   UNL     1       3.609  -0.614  -0.461  0.00  0.00    +0.008 A 
ATOM     32  C   UNL     1       2.385   0.038  -0.227  0.00  0.00    -0.014 A 
ATOM     33  C   UNL     1       1.172  -0.670  -0.224  0.00  0.00    +0.054 A 
ENDBRANCH  23  24
ENDBRANCH  21  23
ENDBRANCH   2  21
TORSDOF 7
