REMARK  Name = ZINC53169794
REMARK  1 active torsions:
REMARK  status: ('A' for Active; 'I' for Inactive)
REMARK    1  A    between atoms: C_6  and  N_7
REMARK                            x       y       z     vdW  Elec       q    Type
REMARK                         _______ _______ _______ _____ _____    ______ ____
ROOT
ATOM      1  N   UNL     1      -1.201  -0.723   0.010  0.00  0.00    -0.278 N 
ATOM      2  C   UNL     1      -1.659  -1.551   1.025  0.00  0.00    +0.113 A 
ATOM      3  C   UNL     1      -2.899  -2.049   0.593  0.00  0.00    +0.094 A 
ATOM      4  C   UNL     1      -3.614  -2.924   1.414  0.00  0.00    +0.033 A 
ATOM      5  C   UNL     1      -3.098  -3.291   2.638  0.00  0.00    +0.043 A 
ATOM      6  C   UNL     1      -1.872  -2.797   3.062  0.00  0.00    +0.161 A 
ATOM      7  C   UNL     1      -1.153  -1.929   2.260  0.00  0.00    +0.184 A 
ATOM      8  F   UNL     1       0.040  -1.452   2.678  0.00  0.00    -0.200 F 
ATOM      9  F   UNL     1      -1.380  -3.164   4.266  0.00  0.00    -0.202 F 
ATOM     10  N   UNL     1      -3.139  -1.517  -0.636  0.00  0.00    -0.214 NA
ATOM     11  C   UNL     1      -2.147  -0.734  -0.978  0.00  0.00    +0.199 A 
ATOM     12  N   UNL     1      -2.067  -0.027  -2.160  0.00  0.00    -0.329 N 
ATOM     13  H   UNL     1      -1.294   0.531  -2.340  0.00  0.00    +0.145 HD
ATOM     14  H   UNL     1      -2.782  -0.089  -2.812  0.00  0.00    +0.145 HD
ENDROOT
BRANCH   1  20
ATOM     15  C   UNL     1      -0.017   1.384   0.010  0.00  0.00    +0.027 A 
ATOM     16  C   UNL     1       1.171   2.090   0.002  0.00  0.00    +0.017 A 
ATOM     17  C   UNL     1       2.378   1.414  -0.013  0.00  0.00    +0.018 A 
ATOM     18  C   UNL     1       2.400   0.031  -0.021  0.00  0.00    +0.017 A 
ATOM     19  C   UNL     1       1.215  -0.679  -0.014  0.00  0.00    +0.027 A 
ATOM     20  C   UNL     1       0.002  -0.004   0.002  0.00  0.00    +0.050 A 
ATOM     21 BR   UNL     1       4.002   2.384  -0.025  0.00  0.00    -0.050 Br
ENDBRANCH   1  20
TORSDOF 1
