REMARK  Name = ZINC31557491
REMARK  8 active torsions:
REMARK  status: ('A' for Active; 'I' for Inactive)
REMARK    1  A    between atoms: C_1  and  C_2
REMARK    2  A    between atoms: C_9  and  C_11
REMARK    3  A    between atoms: C_14  and  N_17
REMARK    4  A    between atoms: C_18  and  C_20
REMARK    5  A    between atoms: C_20  and  N_21
REMARK    6  A    between atoms: C_25  and  C_27
REMARK    7  A    between atoms: N_29  and  C_30
REMARK    8  A    between atoms: C_30  and  C_31
REMARK                            x       y       z     vdW  Elec       q    Type
REMARK                         _______ _______ _______ _____ _____    ______ ____
ROOT
ATOM      1  N   UNL     1       0.153 -10.274   2.434  0.00  0.00    -0.287 N 
ATOM      2  C   UNL     1       0.065 -11.177   1.436  0.00  0.00    +0.201 C 
ATOM      3  O   UNL     1       0.059 -10.806   0.282  0.00  0.00    -0.278 OA
ATOM      4  H   UNL     1       0.235 -10.574   3.353  0.00  0.00    +0.155 HD
ENDROOT
BRANCH   1   8
ATOM      5  C   UNL     1       0.074  -6.198   1.569  0.00  0.00    +0.007 A 
ATOM      6  C   UNL     1      -0.663  -7.092   0.791  0.00  0.00    +0.012 A 
ATOM      7  C   UNL     1      -0.635  -8.439   1.080  0.00  0.00    +0.024 A 
ATOM      8  C   UNL     1       0.127  -8.908   2.144  0.00  0.00    +0.033 A 
ATOM      9  C   UNL     1       0.862  -8.020   2.921  0.00  0.00    +0.024 A 
ATOM     10  C   UNL     1       0.844  -6.673   2.634  0.00  0.00    +0.012 A 
BRANCH   5  19
ATOM     11  C   UNL     1      -0.123   1.474  -0.117  0.00  0.00    +0.044 C 
ATOM     12  C   UNL     1       0.105   0.089   0.432  0.00  0.00    -0.049 A 
ATOM     13  C   UNL     1       0.939  -0.102   1.525  0.00  0.00    +0.005 A 
ATOM     14  C   UNL     1       1.165  -1.338   2.044  0.00  0.00    +0.029 A 
ATOM     15  C   UNL     1       0.553  -2.484   1.481  0.00  0.00    +0.079 A 
ATOM     16  C   UNL     1      -0.291  -2.256   0.368  0.00  0.00    +0.040 A 
ATOM     17  C   UNL     1      -0.517  -1.002  -0.144  0.00  0.00    +0.020 A 
ATOM     18  S   UNL     1      -0.845  -3.897  -0.028  0.00  0.00    -0.067 S 
ATOM     19  C   UNL     1       0.046  -4.753   1.263  0.00  0.00    +0.109 A 
ATOM     20  N   UNL     1       0.671  -3.768   1.871  0.00  0.00    -0.239 NA
ENDBRANCH   5  19
ENDBRANCH   1   8
BRANCH   2  21
ATOM     21  C   UNL     1      -0.027 -12.646   1.756  0.00  0.00    +0.020 C 
BRANCH  21  22
ATOM     22  N   UNL     1      -0.113 -13.415   0.507  0.00  0.00    +0.393 N 
ATOM     23  C   UNL     1       1.175 -13.339  -0.230  0.00  0.00    -0.077 C 
ATOM     24  C   UNL     1       1.129 -14.583  -1.153  0.00  0.00    -0.020 C 
ATOM     25  C   UNL     1       0.448 -15.648  -0.262  0.00  0.00    -0.008 C 
ATOM     26  C   UNL     1      -0.324 -14.848   0.803  0.00  0.00    +0.020 C 
ATOM     27  H   UNL     1      -0.865 -13.064  -0.067  0.00  0.00    -0.080 HD
BRANCH  26  28
ATOM     28  C   UNL     1      -1.792 -15.177   0.728  0.00  0.00    +0.200 C 
ATOM     29  O   UNL     1      -2.595 -14.310   0.455  0.00  0.00    -0.278 OA
ATOM     30  N   UNL     1      -2.214 -16.435   0.964  0.00  0.00    -0.310 N 
ATOM     31  H   UNL     1      -1.573 -17.129   1.183  0.00  0.00    +0.149 HD
BRANCH  30  32
ATOM     32  C   UNL     1      -3.642 -16.755   0.891  0.00  0.00    +0.178 C 
BRANCH  32  33
ATOM     33  C   UNL     1      -3.846 -18.217   1.195  0.00  0.00    +0.122 A 
ATOM     34  C   UNL     1      -4.064 -18.745   2.413  0.00  0.00    +0.046 A 
ATOM     35  C   UNL     1      -4.198 -20.141   2.236  0.00  0.00    +0.041 A 
ATOM     36  C   UNL     1      -4.053 -20.383   0.921  0.00  0.00    +0.195 A 
ATOM     37  O   UNL     1      -3.845 -19.213   0.294  0.00  0.00    -0.466 OA
ENDBRANCH  32  33
ENDBRANCH  30  32
ENDBRANCH  26  28
ENDBRANCH  21  22
ENDBRANCH   2  21
TORSDOF 7
