REMARK  Name = ZINC40141825
REMARK  6 active torsions:
REMARK  status: ('A' for Active; 'I' for Inactive)
REMARK    1  A    between atoms: C_7  and  S_15
REMARK    2  A    between atoms: S_15  and  C_16
REMARK    3  A    between atoms: C_16  and  C_17
REMARK    4  A    between atoms: N_19  and  C_20
REMARK    5  A    between atoms: C_23  and  S_26
REMARK    6  A    between atoms: S_26  and  N_29
REMARK                            x       y       z     vdW  Elec       q    Type
REMARK                         _______ _______ _______ _____ _____    ______ ____
ROOT
ATOM      1  C   UNL     1       0.713  -4.590   1.455  0.00  0.00    +0.166 C 
ENDROOT
BRANCH   1   2
ATOM      2  C   UNL     1       0.415  -5.224   2.790  0.00  0.00    +0.227 C 
ATOM      3  O   UNL     1       0.298  -4.530   3.777  0.00  0.00    -0.275 OA
ATOM      4  N   UNL     1       0.280  -6.561   2.885  0.00  0.00    -0.285 N 
ATOM      5  H   UNL     1       0.307  -7.110   2.086  0.00  0.00    +0.155 HD
BRANCH   4   6
ATOM      6  C   UNL     1       0.100  -7.158   4.138  0.00  0.00    +0.034 A 
ATOM      7  C   UNL     1       0.659  -8.402   4.402  0.00  0.00    +0.025 A 
ATOM      8  C   UNL     1       0.480  -8.989   5.640  0.00  0.00    +0.030 A 
ATOM      9  C   UNL     1      -0.255  -8.339   6.615  0.00  0.00    +0.105 A 
ATOM     10  C   UNL     1      -0.813  -7.101   6.354  0.00  0.00    +0.030 A 
ATOM     11  C   UNL     1      -0.632  -6.506   5.121  0.00  0.00    +0.025 A 
BRANCH   9  12
ATOM     12  S   UNL     1      -0.481  -9.091   8.192  0.00  0.00    +0.056 S 
ATOM     13  O   UNL     1      -1.663  -8.528   8.745  0.00  0.00    -0.153 OA
ATOM     14  O   UNL     1      -0.320 -10.490   8.002  0.00  0.00    -0.153 OA
BRANCH  12  15
ATOM     15  N   UNL     1       0.773  -8.597   9.155  0.00  0.00    -0.204 NA
ATOM     16  H   UNL     1       0.645  -8.514  10.113  0.00  0.00    +0.144 HD
ATOM     17  H   UNL     1       1.635  -8.391   8.760  0.00  0.00    +0.144 HD
ENDBRANCH  12  15
ENDBRANCH   9  12
ENDBRANCH   4   6
ENDBRANCH   1   2
BRANCH   1  18
ATOM     18  S   UNL     1       0.836  -2.791   1.654  0.00  0.00    -0.138 S 
BRANCH  18  25
ATOM     19  C   UNL     1      -0.023   1.380   0.018  0.00  0.00    +0.001 A 
ATOM     20  C   UNL     1       1.166   2.087   0.003  0.00  0.00    +0.004 A 
ATOM     21  C   UNL     1       2.369   1.411  -0.022  0.00  0.00    +0.046 A 
ATOM     22  C   UNL     1       2.389   0.021  -0.030  0.00  0.00    +0.133 A 
ATOM     23  C   UNL     1       1.197  -0.684  -0.014  0.00  0.00    +0.012 A 
ATOM     24  C   UNL     1      -0.007  -0.001   0.010  0.00  0.00    +0.008 A 
ATOM     25  C   UNL     1       1.192  -2.188  -0.020  0.00  0.00    +0.114 C 
ATOM     26  C   UNL     1       2.526  -2.721  -0.466  0.00  0.00    +0.012 A 
ATOM     27  C   UNL     1       2.624  -4.037  -0.884  0.00  0.00    +0.008 A 
ATOM     28  C   UNL     1       3.841  -4.546  -1.296  0.00  0.00    +0.001 A 
ATOM     29  C   UNL     1       4.965  -3.742  -1.292  0.00  0.00    +0.004 A 
ATOM     30  C   UNL     1       4.873  -2.429  -0.876  0.00  0.00    +0.046 A 
ATOM     31  C   UNL     1       3.650  -1.913  -0.461  0.00  0.00    +0.133 A 
ATOM     32  O   UNL     1       3.581  -0.623  -0.054  0.00  0.00    -0.455 OA
ENDBRANCH  18  25
ENDBRANCH   1  18
TORSDOF 6
