REMARK  Name = ZINC29540713
REMARK  4 active torsions:
REMARK  status: ('A' for Active; 'I' for Inactive)
REMARK    1  A    between atoms: C_2  and  N_10
REMARK    2  A    between atoms: C_5  and  N_8
REMARK    3  A    between atoms: C_11  and  C_13
REMARK    4  A    between atoms: N_18  and  C_20
REMARK                            x       y       z     vdW  Elec       q    Type
REMARK                         _______ _______ _______ _____ _____    ______ ____
ROOT
ATOM      1  N   UNL     1       1.157   3.490   0.010  0.00  0.00    -0.285 N 
ATOM      2  C   UNL     1       2.311   4.179   0.104  0.00  0.00    +0.222 C 
ATOM      3  O   UNL     1       3.371   3.591   0.091  0.00  0.00    -0.275 OA
ATOM      4  H   UNL     1       0.313   3.963  -0.057  0.00  0.00    +0.155 HD
ENDROOT
BRANCH   1   6
ATOM      5  C   UNL     1       0.236   1.382  -0.732  0.00  0.00    +0.045 A 
ATOM      6  C   UNL     1       1.176   2.088   0.008  0.00  0.00    +0.036 A 
ATOM      7  C   UNL     1       2.134   1.406   0.746  0.00  0.00    +0.045 A 
ATOM      8  C   UNL     1       2.154   0.025   0.744  0.00  0.00    +0.065 A 
ATOM      9  C   UNL     1       1.214  -0.682   0.004  0.00  0.00    +0.062 A 
ATOM     10  C   UNL     1       0.255   0.001  -0.734  0.00  0.00    +0.065 A 
ATOM     11 CL   UNL     1      -0.920  -0.882  -1.659  0.00  0.00    -0.082 Cl
ATOM     12 CL   UNL     1       3.352  -0.828   1.666  0.00  0.00    -0.082 Cl
BRANCH   9  13
ATOM     13  N   UNL     1       1.233  -2.082   0.001  0.00  0.00    -0.356 N 
ATOM     14  H   UNL     1       1.903  -2.559   0.516  0.00  0.00    +0.142 HD
ATOM     15  H   UNL     1       0.577  -2.576  -0.515  0.00  0.00    +0.142 HD
ENDBRANCH   9  13
ENDBRANCH   1   6
BRANCH   2  16
ATOM     16  C   UNL     1       2.283   5.681   0.226  0.00  0.00    +0.101 C 
ATOM     17  C   UNL     1       1.609   6.117   1.548  0.00  0.00    +0.110 C 
ATOM     18  C   UNL     1       2.760   6.272   2.517  0.00  0.00    +0.217 C 
ATOM     19  O   UNL     1       2.648   6.329   3.724  0.00  0.00    -0.276 OA
ATOM     20  N   UNL     1       3.923   6.337   1.848  0.00  0.00    -0.298 N 
ATOM     21  C   UNL     1       3.710   6.248   0.397  0.00  0.00    +0.121 C 
BRANCH  20  22
ATOM     22  C   UNL     1       5.236   6.479   2.483  0.00  0.00    +0.076 C 
ATOM     23  C   UNL     1       5.301   6.354   4.006  0.00  0.00    +0.024 C 
ATOM     24  C   UNL     1       5.474   7.722   3.343  0.00  0.00    +0.024 C 
ENDBRANCH  20  22
ENDBRANCH   2  16
TORSDOF 4
