REMARK  Name = ZINC39884128
REMARK  5 active torsions:
REMARK  status: ('A' for Active; 'I' for Inactive)
REMARK    1  A    between atoms: C_3  and  O_36
REMARK    2  A    between atoms: C_6  and  C_7
REMARK    3  A    between atoms: N_11  and  C_15
REMARK    4  A    between atoms: C_15  and  C_16
REMARK    5  A    between atoms: N_18  and  C_19
REMARK                            x       y       z     vdW  Elec       q    Type
REMARK                         _______ _______ _______ _____ _____    ______ ____
ROOT
ATOM      1  C   UNL     1      -1.299  -0.762   0.039  0.00  0.00    +0.072 C 
ATOM      2  C   UNL     1      -1.301  -1.655   1.227  0.00  0.00    +0.033 A 
ATOM      3  C   UNL     1      -1.618  -2.960   1.299  0.00  0.00    +0.091 A 
ATOM      4  N   UNL     1      -1.552  -3.504   2.562  0.00  0.00    -0.288 N 
ATOM      5  C   UNL     1      -1.165  -2.744   3.603  0.00  0.00    +0.292 A 
ATOM      6  O   UNL     1      -1.048  -3.067   4.772  0.00  0.00    -0.259 OA
ATOM      7  S   UNL     1      -0.882  -1.242   2.902  0.00  0.00    -0.030 S 
ATOM      8  S   UNL     1      -2.057  -3.883  -0.151  0.00  0.00    -0.093 S 
ATOM      9  C   UNL     1      -2.441  -2.600  -1.385  0.00  0.00    +0.153 C 
ATOM     10  C   UNL     1      -1.447  -1.440  -1.268  0.00  0.00    +0.112 C 
ATOM     11  C   UNL     1      -0.233  -1.940  -1.984  0.00  0.00    +0.245 C 
ATOM     12  O   UNL     1       1.029  -1.517  -1.812  0.00  0.00    -0.273 OA
ATOM     13  N   UNL     1      -0.641  -2.874  -2.814  0.00  0.00    -0.145 NA
ATOM     14  C   UNL     1      -1.948  -3.169  -2.729  0.00  0.00    +0.253 C 
ATOM     15  O   UNL     1      -2.611  -3.774  -3.547  0.00  0.00    -0.272 OA
ENDROOT
BRANCH   1  21
ATOM     16  C   UNL     1       0.037   1.283  -0.501  0.00  0.00    +0.008 A 
ATOM     17  C   UNL     1       1.224   1.990  -0.512  0.00  0.00    +0.045 A 
ATOM     18  C   UNL     1       2.376   1.418   0.008  0.00  0.00    +0.117 A 
ATOM     19  C   UNL     1       2.332   0.137   0.539  0.00  0.00    +0.045 A 
ATOM     20  C   UNL     1       1.143  -0.566   0.547  0.00  0.00    +0.008 A 
ATOM     21  C   UNL     1      -0.003   0.006   0.028  0.00  0.00    -0.038 A 
BRANCH  18  22
ATOM     22  O   UNL     1       3.545   2.111  -0.002  0.00  0.00    -0.507 OA
ATOM     23  H   UNL     1       3.691   2.648   0.790  0.00  0.00    +0.292 HD
ENDBRANCH  18  22
ENDBRANCH   1  21
BRANCH   4  24
ATOM     24  C   UNL     1      -1.904  -4.910   2.773  0.00  0.00    +0.222 C 
BRANCH  24  25
ATOM     25  C   UNL     1      -0.673  -5.765   2.614  0.00  0.00    +0.237 C 
ATOM     26  O   UNL     1       0.393  -5.250   2.351  0.00  0.00    -0.274 OA
ATOM     27  N   UNL     1      -0.757  -7.102   2.765  0.00  0.00    -0.284 N 
ATOM     28  H   UNL     1      -1.622  -7.522   2.898  0.00  0.00    +0.155 HD
BRANCH  27  29
ATOM     29  C   UNL     1       0.403  -7.885   2.730  0.00  0.00    +0.034 A 
ATOM     30  C   UNL     1       0.368  -9.156   2.171  0.00  0.00    +0.026 A 
ATOM     31  C   UNL     1       1.513  -9.926   2.137  0.00  0.00    +0.040 A 
ATOM     32  C   UNL     1       2.697  -9.433   2.660  0.00  0.00    +0.124 A 
ATOM     33  C   UNL     1       2.734  -8.165   3.218  0.00  0.00    +0.040 A 
ATOM     34  C   UNL     1       1.592  -7.389   3.248  0.00  0.00    +0.026 A 
ATOM     35  F   UNL     1       3.816 -10.188   2.627  0.00  0.00    -0.205 F 
ENDBRANCH  27  29
ENDBRANCH  24  25
ENDBRANCH   4  24
TORSDOF 5
