REMARK  Name = ZINC08851286
REMARK  10 active torsions:
REMARK  status: ('A' for Active; 'I' for Inactive)
REMARK    1  A    between atoms: C_1  and  C_2
REMARK    2  A    between atoms: C_5  and  C_35
REMARK    3  A    between atoms: C_5  and  C_36
REMARK    4  A    between atoms: N_11  and  C_15
REMARK    5  A    between atoms: C_15  and  N_70
REMARK    6  A    between atoms: C_20  and  O_33
REMARK    7  A    between atoms: C_21  and  O_31
REMARK    8  A    between atoms: C_24  and  C_26
REMARK    9  A    between atoms: O_31  and  C_32
REMARK   10  A    between atoms: O_33  and  C_34
REMARK                            x       y       z     vdW  Elec       q    Type
REMARK                         _______ _______ _______ _____ _____    ______ ____
ROOT
ATOM      1  C   UNL     1      -2.418  -6.406  -2.070  0.00  0.00    -0.071 C 
ATOM      2  C   UNL     1      -1.657  -7.588  -1.469  0.00  0.00    +0.017 C 
ATOM      3  C   UNL     1      -0.723  -8.174  -2.496  0.00  0.00    -0.043 A 
ATOM      4  C   UNL     1      -0.215  -9.446  -2.276  0.00  0.00    +0.053 A 
ATOM      5  C   UNL     1       0.647 -10.024  -3.190  0.00  0.00    +0.162 A 
ATOM      6  C   UNL     1       1.007  -9.321  -4.337  0.00  0.00    +0.162 A 
ATOM      7  C   UNL     1       0.497  -8.054  -4.552  0.00  0.00    +0.052 A 
ATOM      8  C   UNL     1      -0.370  -7.479  -3.633  0.00  0.00    -0.049 A 
ATOM      9  C   UNL     1      -0.904  -6.101  -3.920  0.00  0.00    +0.003 C 
ATOM     10  N   UNL     1      -1.429  -5.496  -2.684  0.00  0.00    +0.398 N 
ATOM     11  H   UNL     1      -0.654  -5.350  -2.027  0.00  0.00    -0.078 HD
ENDROOT
BRANCH   9  12
ATOM     12  C   UNL     1       0.210  -5.235  -4.450  0.00  0.00    -0.019 A 
ATOM     13  C   UNL     1       0.506  -4.916  -5.733  0.00  0.00    +0.010 A 
ATOM     14  C   UNL     1       1.586  -4.092  -5.987  0.00  0.00    +0.008 A 
ATOM     15  C   UNL     1       2.325  -3.637  -4.945  0.00  0.00    +0.045 A 
ATOM     16  S   UNL     1       1.487  -4.372  -3.550  0.00  0.00    -0.103 S 
ENDBRANCH   9  12
BRANCH   6  17
ATOM     17  O   UNL     1       1.855  -9.879  -5.242  0.00  0.00    -0.491 OA
ATOM     18  C   UNL     1       2.179  -9.099  -6.394  0.00  0.00    +0.277 C 
ENDBRANCH   6  17
BRANCH   5  19
ATOM     19  O   UNL     1       1.142 -11.271  -2.970  0.00  0.00    -0.491 OA
ATOM     20  C   UNL     1       0.728 -11.931  -1.772  0.00  0.00    +0.277 C 
ENDBRANCH   5  19
BRANCH  10  21
ATOM     21  C   UNL     1      -2.058  -4.191  -2.984  0.00  0.00    +0.044 C 
BRANCH  21  31
ATOM     22  C   UNL     1      -0.019   1.528   0.010  0.00  0.00    +0.007 C 
ATOM     23  C   UNL     1       0.002  -0.004   0.002  0.00  0.00    -0.011 C 
ATOM     24  C   UNL     1       0.721  -0.507   1.252  0.00  0.00    +0.009 C 
ATOM     25  C   UNL     1       0.787  -2.030   1.267  0.00  0.00    -0.032 C 
ATOM     26  C   UNL     1      -0.572  -2.675   1.056  0.00  0.00    +0.041 C 
ATOM     27  C   UNL     1      -1.433  -2.050  -0.022  0.00  0.00    +0.113 C 
ATOM     28  C   UNL     1      -1.435  -0.529   0.020  0.00  0.00    +0.038 C 
ATOM     29  C   UNL     1      -1.067  -2.547  -1.399  0.00  0.00    +0.245 C 
ATOM     30  O   UNL     1      -0.097  -2.258  -2.067  0.00  0.00    -0.273 OA
ATOM     31  N   UNL     1      -2.066  -3.379  -1.765  0.00  0.00    -0.241 N 
ATOM     32  C   UNL     1      -3.074  -3.349  -0.886  0.00  0.00    +0.308 C 
ATOM     33  O   UNL     1      -4.098  -3.994  -1.009  0.00  0.00    -0.252 OA
ATOM     34  N   UNL     1      -2.823  -2.530   0.150  0.00  0.00    -0.285 N 
ATOM     35  C   UNL     1       1.790  -2.523   0.220  0.00  0.00    +0.011 C 
ATOM     36  C   UNL     1       1.313  -2.464   2.652  0.00  0.00    +0.011 C 
ATOM     37  H   UNL     1      -3.422  -2.292   0.872  0.00  0.00    +0.151 HD
ENDBRANCH  21  31
ENDBRANCH  10  21
TORSDOF 5
