REMARK  Name = ZINC22938251
REMARK  8 active torsions:
REMARK  status: ('A' for Active; 'I' for Inactive)
REMARK    1  A    between atoms: C_1  and  N_2
REMARK    2  A    between atoms: N_5  and  C_8
REMARK    3  A    between atoms: C_8  and  C_10
REMARK    4  A    between atoms: C_8  and  C_18
REMARK    5  A    between atoms: C_13  and  S_16
REMARK    6  A    between atoms: S_16  and  C_17
REMARK    7  A    between atoms: C_19  and  N_27
REMARK    8  A    between atoms: C_28  and  C_30
REMARK                            x       y       z     vdW  Elec       q    Type
REMARK                         _______ _______ _______ _____ _____    ______ ____
ROOT
ATOM      1  C   UNL     1       2.545  -4.009   1.141  0.00  0.00    +0.149 A 
ATOM      2  C   UNL     1       3.395  -5.043   1.270  0.00  0.00    +0.085 A 
ATOM      3  C   UNL     1       3.778  -5.081   2.690  0.00  0.00    +0.042 A 
ATOM      4  C   UNL     1       4.612  -5.896   3.452  0.00  0.00    +0.013 A 
ATOM      5  C   UNL     1       4.755  -5.657   4.791  0.00  0.00    +0.001 A 
ATOM      6  C   UNL     1       4.074  -4.610   5.394  0.00  0.00    +0.004 A 
ATOM      7  C   UNL     1       3.245  -3.793   4.656  0.00  0.00    +0.047 A 
ATOM      8  C   UNL     1       3.086  -4.018   3.294  0.00  0.00    +0.137 A 
ATOM      9  O   UNL     1       2.369  -3.405   2.331  0.00  0.00    -0.456 OA
ENDROOT
BRANCH   2  10
ATOM     10  N   UNL     1       3.831  -5.910   0.255  0.00  0.00    -0.278 N 
ATOM     11  C   UNL     1       5.081  -6.413   0.288  0.00  0.00    +0.255 C 
ATOM     12  O   UNL     1       5.801  -6.191   1.244  0.00  0.00    -0.269 OA
ATOM     13  H   UNL     1       3.231  -6.148  -0.470  0.00  0.00    +0.155 HD
BRANCH  11  14
ATOM     14  C   UNL     1       5.574  -7.226  -0.828  0.00  0.00    +0.074 A 
ATOM     15  C   UNL     1       6.809  -7.834  -0.987  0.00  0.00    +0.021 A 
ATOM     16  C   UNL     1       6.982  -8.540  -2.153  0.00  0.00    +0.008 A 
ATOM     17  C   UNL     1       5.963  -8.596  -3.046  0.00  0.00    +0.046 A 
ATOM     18  S   UNL     1       4.737  -7.698  -2.329  0.00  0.00    -0.092 S 
ENDBRANCH  11  14
ENDBRANCH   2  10
BRANCH   1  19
ATOM     19  C   UNL     1       1.889  -3.586  -0.149  0.00  0.00    +0.155 C 
BRANCH  19  24
ATOM     20  C   UNL     1       2.860   1.768  -1.612  0.00  0.00    -0.096 C 
ATOM     21  N   UNL     1       2.815   0.302  -1.525  0.00  0.00    +0.379 N 
ATOM     22  C   UNL     1       3.385  -0.130  -0.242  0.00  0.00    -0.064 C 
ATOM     23  C   UNL     1       3.355  -1.658  -0.159  0.00  0.00    +0.067 C 
ATOM     24  N   UNL     1       1.966  -2.125  -0.281  0.00  0.00    -0.293 NA
ATOM     25  C   UNL     1       1.374  -1.678  -1.549  0.00  0.00    +0.067 C 
ATOM     26  C   UNL     1       1.421  -0.150  -1.621  0.00  0.00    -0.064 C 
ATOM     27  H   UNL     1       3.350  -0.096  -2.282  0.00  0.00    -0.082 HD
ENDBRANCH  19  24
BRANCH  19  28
ATOM     28  C   UNL     1       0.444  -4.014  -0.142  0.00  0.00    -0.023 A 
ATOM     29  C   UNL     1      -0.469  -3.346   0.654  0.00  0.00    +0.007 A 
ATOM     30  C   UNL     1      -1.794  -3.736   0.663  0.00  0.00    +0.015 A 
ATOM     31  C   UNL     1      -2.209  -4.800  -0.129  0.00  0.00    +0.008 A 
ATOM     32  C   UNL     1      -1.288  -5.468  -0.927  0.00  0.00    +0.015 A 
ATOM     33  C   UNL     1       0.034  -5.069  -0.935  0.00  0.00    +0.007 A 
BRANCH  31  34
ATOM     34  S   UNL     1      -3.898  -5.301  -0.120  0.00  0.00    -0.129 S 
ATOM     35  C   UNL     1      -3.949  -6.693  -1.282  0.00  0.00    +0.090 C 
ENDBRANCH  31  34
ENDBRANCH  19  28
ENDBRANCH   1  19
TORSDOF 6
