REMARK  Name = ZINC09305250
REMARK  6 active torsions:
REMARK  status: ('A' for Active; 'I' for Inactive)
REMARK    1  A    between atoms: C_1  and  C_2
REMARK    2  A    between atoms: C_9  and  N_13
REMARK    3  A    between atoms: C_10  and  C_11
REMARK    4  A    between atoms: C_14  and  C_16
REMARK    5  A    between atoms: C_21  and  C_32
REMARK    6  A    between atoms: C_24  and  C_27
REMARK                            x       y       z     vdW  Elec       q    Type
REMARK                         _______ _______ _______ _____ _____    ______ ____
ROOT
ATOM      1  C   UNL     1      -1.164   1.895   0.017  0.00  0.00    +0.149 A 
ATOM      2  C   UNL     1      -0.013   1.076   0.008  0.00  0.00    +0.078 A 
ATOM      3  C   UNL     1       1.064   1.887   0.002  0.00  0.00    +0.119 A 
ATOM      4  N   UNL     1       0.623   3.180   0.014  0.00  0.00    -0.238 N 
ATOM      5  N   UNL     1      -0.771   3.157   0.026  0.00  0.00    -0.164 NA
ATOM      6  C   UNL     1       1.514   4.343   0.017  0.00  0.00    +0.215 C 
ATOM      7  C   UNL     1       2.905   3.900   0.484  0.00  0.00    +0.066 C 
ATOM      8  C   UNL     1       3.354   2.666  -0.306  0.00  0.00    +0.140 C 
ATOM      9  N   UNL     1       2.422   1.558  -0.015  0.00  0.00    -0.319 N 
ATOM     10  H   UNL     1       2.735   0.656   0.155  0.00  0.00    +0.148 HD
ENDROOT
BRANCH   8  11
ATOM     11  C   UNL     1       3.329   2.973  -1.781  0.00  0.00    +0.125 A 
ATOM     12  C   UNL     1       4.398   3.281  -2.538  0.00  0.00    +0.046 A 
ATOM     13  C   UNL     1       3.922   3.489  -3.853  0.00  0.00    +0.041 A 
ATOM     14  C   UNL     1       2.590   3.303  -3.819  0.00  0.00    +0.195 A 
ATOM     15  O   UNL     1       2.237   2.991  -2.562  0.00  0.00    -0.466 OA
ENDBRANCH   8  11
BRANCH   1  17
ATOM     16  N   UNL     1      -3.575   2.314   0.029  0.00  0.00    -0.274 N 
ATOM     17  C   UNL     1      -2.564   1.423   0.020  0.00  0.00    +0.269 C 
ATOM     18  O   UNL     1      -2.803   0.231   0.014  0.00  0.00    -0.268 OA
ATOM     19  H   UNL     1      -3.384   3.265   0.034  0.00  0.00    +0.156 HD
BRANCH  16  27
ATOM     20  C   UNL     1     -10.838  -0.589  -0.051  0.00  0.00    +0.008 C 
ATOM     21  C   UNL     1      -9.634   0.311  -0.337  0.00  0.00    -0.009 C 
ATOM     22  C   UNL     1      -9.734   1.585   0.507  0.00  0.00    +0.008 C 
ATOM     23  C   UNL     1      -8.679   2.594   0.052  0.00  0.00    +0.037 C 
ATOM     24  C   UNL     1      -7.318   1.910   0.042  0.00  0.00    -0.018 A 
ATOM     25  C   UNL     1      -7.216   0.562   0.033  0.00  0.00    -0.004 A 
ATOM     26  S   UNL     1      -5.476   0.240   0.017  0.00  0.00    -0.077 S 
ATOM     27  C   UNL     1      -4.889   1.871   0.032  0.00  0.00    +0.090 A 
ATOM     28  C   UNL     1      -6.053   2.625   0.041  0.00  0.00    +0.084 A 
ATOM     29  C   UNL     1      -8.340  -0.428   0.032  0.00  0.00    +0.046 C 
BRANCH  28  30
ATOM     30  C   UNL     1      -6.010   4.056   0.048  0.00  0.00    +0.102 C 
ATOM     31  N   UNL     1      -5.976   5.192   0.054  0.00  0.00    -0.191 NA
ENDBRANCH  28  30
ENDBRANCH  16  27
ENDBRANCH   1  17
BRANCH   6  32
ATOM     32  C   UNL     1       0.967   5.406   0.971  0.00  0.00    +0.412 C 
ATOM     33  F   UNL     1       1.827   6.510   0.982  0.00  0.00    -0.168 F 
ATOM     34  F   UNL     1      -0.302   5.809   0.542  0.00  0.00    -0.168 F 
ATOM     35  F   UNL     1       0.876   4.873   2.261  0.00  0.00    -0.168 F 
ENDBRANCH   6  32
TORSDOF 5
