REMARK  Name = ZINC12064317
REMARK  8 active torsions:
REMARK  status: ('A' for Active; 'I' for Inactive)
REMARK    1  A    between atoms: C_1  and  C_2
REMARK    2  A    between atoms: C_5  and  C_36
REMARK    3  A    between atoms: N_8  and  S_10
REMARK    4  A    between atoms: S_10  and  C_13
REMARK    5  A    between atoms: C_16  and  C_19
REMARK    6  A    between atoms: N_21  and  C_22
REMARK    7  A    between atoms: C_23  and  C_32
REMARK    8  A    between atoms: N_34  and  C_35
REMARK                            x       y       z     vdW  Elec       q    Type
REMARK                         _______ _______ _______ _____ _____    ______ ____
ROOT
ATOM      1  C   UNL     1      -7.645   1.503   0.083  0.00  0.00    +0.249 C 
ATOM      2  O   UNL     1      -8.150   1.175   1.139  0.00  0.00    -0.270 OA
ATOM      3  N   UNL     1      -8.228   1.153  -1.081  0.00  0.00    -0.275 N 
ATOM      4  H   UNL     1      -7.825   1.415  -1.923  0.00  0.00    +0.156 HD
ENDROOT
BRANCH   3   5
ATOM      5  C   UNL     1      -9.403   0.418  -1.074  0.00  0.00    +0.085 A 
ATOM      6  C   UNL     1     -10.147  -0.028  -2.155  0.00  0.00    +0.069 A 
ATOM      7  C   UNL     1     -11.353  -0.796  -1.877  0.00  0.00    -0.023 A 
ATOM      8  C   UNL     1     -11.624  -0.976  -0.566  0.00  0.00    -0.004 A 
ATOM      9  S   UNL     1     -10.303  -0.160   0.288  0.00  0.00    -0.077 S 
ATOM     10  C   UNL     1     -12.791  -1.692   0.037  0.00  0.00    +0.043 C 
ATOM     11  C   UNL     1     -12.954  -3.058  -0.643  0.00  0.00    +0.005 C 
ATOM     12  C   UNL     1     -13.870  -2.889  -1.851  0.00  0.00    +0.001 C 
ATOM     13  C   UNL     1     -13.670  -1.508  -2.473  0.00  0.00    +0.005 C 
ATOM     14  C   UNL     1     -12.241  -1.355  -2.982  0.00  0.00    +0.037 C 
BRANCH   6  15
ATOM     15  C   UNL     1      -9.732   0.261  -3.531  0.00  0.00    +0.246 C 
ATOM     16  O   UNL     1      -9.000  -0.512  -4.121  0.00  0.00    -0.270 OA
ATOM     17  N   UNL     1     -10.162   1.382  -4.144  0.00  0.00    -0.314 N 
ATOM     18  C   UNL     1      -9.748   1.670  -5.519  0.00  0.00    +0.128 C 
ATOM     19  H   UNL     1     -10.746   1.998  -3.674  0.00  0.00    +0.149 HD
ENDBRANCH   6  15
ENDBRANCH   3   5
BRANCH   1  23
ATOM     20  C   UNL     1      -4.043   3.754   0.061  0.00  0.00    +0.106 A 
ATOM     21  C   UNL     1      -4.642   3.400  -1.135  0.00  0.00    +0.029 A 
ATOM     22  C   UNL     1      -5.809   2.665  -1.135  0.00  0.00    +0.015 A 
ATOM     23  C   UNL     1      -6.392   2.287   0.075  0.00  0.00    +0.037 A 
ATOM     24  C   UNL     1      -5.786   2.651   1.279  0.00  0.00    +0.015 A 
ATOM     25  C   UNL     1      -4.616   3.382   1.264  0.00  0.00    +0.029 A 
BRANCH  20  26
ATOM     26  S   UNL     1      -2.550   4.688   0.052  0.00  0.00    +0.061 S 
ATOM     27  O   UNL     1      -2.485   5.364   1.300  0.00  0.00    -0.153 OA
ATOM     28  O   UNL     1      -2.509   5.377  -1.190  0.00  0.00    -0.153 OA
BRANCH  26  34
ATOM     29  C   UNL     1      -2.198   1.093  -1.204  0.00  0.00    +0.009 C 
ATOM     30  C   UNL     1      -0.752   1.593  -1.232  0.00  0.00    +0.002 C 
ATOM     31  C   UNL     1      -0.013   1.086   0.008  0.00  0.00    +0.009 C 
ATOM     32  C   UNL     1      -0.729   1.579   1.268  0.00  0.00    +0.002 C 
ATOM     33  C   UNL     1      -0.717   3.111   1.290  0.00  0.00    +0.112 C 
ATOM     34  N   UNL     1      -1.296   3.606   0.034  0.00  0.00    -0.176 NA
ATOM     35  C   UNL     1      -0.741   3.124  -1.238  0.00  0.00    +0.112 C 
ATOM     36  C   UNL     1      -0.008   1.045   2.507  0.00  0.00    +0.009 C 
ENDBRANCH  26  34
ENDBRANCH  20  26
ENDBRANCH   1  23
TORSDOF 5
