REMARK  Name = ZINC09698937
REMARK  6 active torsions:
REMARK  status: ('A' for Active; 'I' for Inactive)
REMARK    1  A    between atoms: C_1  and  C_2
REMARK    2  A    between atoms: C_5  and  N_8
REMARK    3  A    between atoms: C_10  and  C_15
REMARK    4  A    between atoms: C_20  and  C_23
REMARK    5  A    between atoms: C_23  and  C_24
REMARK    6  A    between atoms: C_32  and  C_36
REMARK                            x       y       z     vdW  Elec       q    Type
REMARK                         _______ _______ _______ _____ _____    ______ ____
ROOT
ATOM      1  C   UNL     1      -0.341  -7.474  -1.515  0.00  0.00    +0.224 C 
ATOM      2  O   UNL     1      -1.156  -7.177  -2.362  0.00  0.00    -0.275 OA
ATOM      3  N   UNL     1      -0.142  -8.768  -1.195  0.00  0.00    -0.264 N 
ATOM      4  C   UNL     1      -0.872  -9.762  -1.836  0.00  0.00    +0.165 A 
ATOM      5  N   UNL     1      -0.822 -11.069  -1.664  0.00  0.00    -0.229 NA
ATOM      6  C   UNL     1      -1.592 -11.880  -2.362  0.00  0.00    +0.059 A 
ATOM      7  C   UNL     1      -2.444 -11.342  -3.268  0.00  0.00    +0.072 A 
ATOM      8  S   UNL     1      -2.090  -9.602  -3.064  0.00  0.00    -0.060 S 
ATOM      9  H   UNL     1       0.510  -9.006  -0.518  0.00  0.00    +0.157 HD
ENDROOT
BRANCH   1  12
ATOM     10  N   UNL     1       0.059  -4.170  -0.021  0.00  0.00    -0.271 N 
ATOM     11  C   UNL     1      -0.053  -4.993  -1.231  0.00  0.00    +0.127 C 
ATOM     12  C   UNL     1       0.451  -6.396  -0.821  0.00  0.00    +0.102 C 
ATOM     13  C   UNL     1       0.171  -6.397   0.700  0.00  0.00    +0.110 C 
ATOM     14  C   UNL     1       0.176  -4.933   1.079  0.00  0.00    +0.221 C 
ATOM     15  O   UNL     1       0.274  -4.509   2.212  0.00  0.00    -0.275 OA
BRANCH  10  20
ATOM     16  C   UNL     1      -0.018   1.503   0.010  0.00  0.00    +0.044 C 
ATOM     17  C   UNL     1       0.002  -0.004   0.002  0.00  0.00    -0.050 A 
ATOM     18  C   UNL     1       0.010  -0.687  -1.200  0.00  0.00    +0.005 A 
ATOM     19  C   UNL     1       0.033  -2.068  -1.211  0.00  0.00    +0.024 A 
ATOM     20  C   UNL     1       0.039  -2.771  -0.013  0.00  0.00    +0.036 A 
ATOM     21  C   UNL     1       0.026  -2.082   1.192  0.00  0.00    +0.024 A 
ATOM     22  C   UNL     1       0.007  -0.701   1.197  0.00  0.00    +0.005 A 
ENDBRANCH  10  20
ENDBRANCH   1  12
BRANCH   6  23
ATOM     23  C   UNL     1      -1.526 -13.372  -2.157  0.00  0.00    +0.152 C 
BRANCH  23  24
ATOM     24  C   UNL     1      -0.106 -13.842  -2.340  0.00  0.00    +0.224 C 
ATOM     25  O   UNL     1       0.767 -13.044  -2.610  0.00  0.00    -0.275 OA
ATOM     26  N   UNL     1       0.195 -15.148  -2.203  0.00  0.00    -0.264 N 
ATOM     27  C   UNL     1       1.500 -15.580  -2.371  0.00  0.00    +0.165 A 
ATOM     28  N   UNL     1       2.568 -14.877  -2.668  0.00  0.00    -0.225 NA
ATOM     29  C   UNL     1       3.792 -15.434  -2.798  0.00  0.00    +0.080 A 
ATOM     30  C   UNL     1       5.014 -14.795  -3.107  0.00  0.00    +0.029 A 
ATOM     31  C   UNL     1       6.175 -15.515  -3.209  0.00  0.00    +0.005 A 
ATOM     32  C   UNL     1       6.196 -16.889  -3.013  0.00  0.00    -0.049 A 
ATOM     33  C   UNL     1       5.019 -17.547  -2.709  0.00  0.00    +0.020 A 
ATOM     34  C   UNL     1       3.850 -16.834  -2.606  0.00  0.00    +0.041 A 
ATOM     35  S   UNL     1       2.158 -17.237  -2.247  0.00  0.00    -0.052 S 
ATOM     36  C   UNL     1       7.488 -17.655  -3.130  0.00  0.00    +0.044 C 
ATOM     37  H   UNL     1      -0.503 -15.787  -1.987  0.00  0.00    +0.157 HD
ENDBRANCH  23  24
ENDBRANCH   6  23
TORSDOF 4
