REMARK  Name = ZINC20719743
REMARK  4 active torsions:
REMARK  status: ('A' for Active; 'I' for Inactive)
REMARK    1  A    between atoms: C_4  and  N_7
REMARK    2  A    between atoms: N_7  and  S_8
REMARK    3  A    between atoms: S_8  and  C_11
REMARK    4  A    between atoms: C_24  and  C_27
REMARK                            x       y       z     vdW  Elec       q    Type
REMARK                         _______ _______ _______ _____ _____    ______ ____
ROOT
ATOM      1  C   UNL     1      -3.057  -2.560  -1.236  0.00  0.00    +0.109 A 
ATOM      2  C   UNL     1      -4.000  -1.934  -2.031  0.00  0.00    +0.030 A 
ATOM      3  C   UNL     1      -3.827  -0.610  -2.383  0.00  0.00    +0.025 A 
ATOM      4  C   UNL     1      -2.711   0.087  -1.939  0.00  0.00    +0.031 A 
ATOM      5  C   UNL     1      -1.765  -0.535  -1.139  0.00  0.00    -0.018 A 
ATOM      6  C   UNL     1      -1.949  -1.867  -0.793  0.00  0.00    +0.034 A 
ATOM      7  C   UNL     1      -0.550   0.176  -0.634  0.00  0.00    +0.049 C 
ATOM      8  C   UNL     1       0.691  -0.253  -1.381  0.00  0.00    -0.023 C 
ATOM      9  C   UNL     1       1.500   0.766  -1.539  0.00  0.00    -0.030 C 
ATOM     10  C   UNL     1       0.910   2.015  -0.914  0.00  0.00    +0.033 C 
ATOM     11  C   UNL     1      -0.613   1.701  -0.847  0.00  0.00    +0.029 C 
ATOM     12  C   UNL     1      -1.204   2.012  -2.225  0.00  0.00    +0.107 C 
ATOM     13  N   UNL     1      -2.546   1.426  -2.310  0.00  0.00    -0.336 N 
ATOM     14  H   UNL     1      -3.392   2.037  -2.658  0.00  0.00    +0.147 HD
ENDROOT
BRANCH  12  15
ATOM     15  C   UNL     1      -0.326   1.418  -3.296  0.00  0.00    -0.002 A 
ATOM     16  C   UNL     1      -0.456   0.203  -3.852  0.00  0.00    +0.089 A 
ATOM     17  N   UNL     1       0.523   0.011  -4.789  0.00  0.00    -0.360 N 
ATOM     18  H   UNL     1       0.572  -0.935  -5.348  0.00  0.00    +0.165 HD
ATOM     19  C   UNL     1       1.327   1.127  -4.861  0.00  0.00    +0.047 A 
ATOM     20  C   UNL     1       0.827   2.059  -3.933  0.00  0.00    +0.005 A 
ATOM     21  C   UNL     1       1.448   3.301  -3.791  0.00  0.00    +0.010 A 
ATOM     22  C   UNL     1       2.538   3.607  -4.556  0.00  0.00    +0.001 A 
ATOM     23  C   UNL     1       3.033   2.692  -5.475  0.00  0.00    +0.002 A 
ATOM     24  C   UNL     1       2.440   1.458  -5.627  0.00  0.00    +0.026 A 
ENDBRANCH  12  15
BRANCH   1  25
ATOM     25  S   UNL     1      -3.272  -4.250  -0.787  0.00  0.00    +0.072 S 
ATOM     26  O   UNL     1      -4.205  -4.800  -1.708  0.00  0.00    -0.150 OA
ATOM     27  O   UNL     1      -1.970  -4.791  -0.608  0.00  0.00    -0.150 OA
BRANCH  25  28
ATOM     28  N   UNL     1      -4.003  -4.273   0.698  0.00  0.00    -0.216 N 
ATOM     29  H   UNL     1      -3.467  -4.679   1.569  0.00  0.00    +0.174 HD
BRANCH  28  33
ATOM     30  C   UNL     1      -7.871  -2.795   1.139  0.00  0.00    +0.000 A 
ATOM     31  C   UNL     1      -7.664  -4.011   0.514  0.00  0.00    +0.002 A 
ATOM     32  C   UNL     1      -6.383  -4.504   0.366  0.00  0.00    +0.024 A 
ATOM     33  C   UNL     1      -5.301  -3.777   0.846  0.00  0.00    +0.048 A 
ATOM     34  C   UNL     1      -5.512  -2.558   1.478  0.00  0.00    +0.024 A 
ATOM     35  C   UNL     1      -6.796  -2.068   1.618  0.00  0.00    +0.002 A 
ENDBRANCH  28  33
ENDBRANCH  25  28
ENDBRANCH   1  25
TORSDOF 4
