REMARK  Name = ZINC24095366
REMARK  8 active torsions:
REMARK  status: ('A' for Active; 'I' for Inactive)
REMARK    1  A    between atoms: N_13  and  C_17
REMARK    2  A    between atoms: C_17  and  C_18
REMARK    3  A    between atoms: C_18  and  C_20
REMARK    4  A    between atoms: C_18  and  O_37
REMARK    5  A    between atoms: C_20  and  O_21
REMARK    6  A    between atoms: O_21  and  C_22
REMARK    7  A    between atoms: C_22  and  C_23
REMARK    8  A    between atoms: C_22  and  C_30
REMARK                            x       y       z     vdW  Elec       q    Type
REMARK                         _______ _______ _______ _____ _____    ______ ____
ROOT
ATOM      1  C   UNL     1       1.286   1.562  -0.002  0.00  0.00    +0.158 C 
ENDROOT
BRANCH   1   2
ATOM      2  O   UNL     1      -0.011   0.963   0.007  0.00  0.00    -0.388 OA
ATOM      3  H   UNL     1      -0.702   1.160   0.840  0.00  0.00    +0.210 HD
ENDBRANCH   1   2
BRANCH   1   4
ATOM      4  C   UNL     1       2.040   1.127  -1.261  0.00  0.00    +0.151 C 
BRANCH   4  17
ATOM      5  C   UNL     1      -3.286   3.000  -2.723  0.00  0.00    +0.001 A 
ATOM      6  C   UNL     1      -4.105   3.086  -3.834  0.00  0.00    +0.004 A 
ATOM      7  C   UNL     1      -3.602   2.793  -5.085  0.00  0.00    +0.046 A 
ATOM      8  C   UNL     1      -2.273   2.411  -5.233  0.00  0.00    +0.126 A 
ATOM      9  C   UNL     1      -1.454   2.331  -4.119  0.00  0.00    +0.027 A 
ATOM     10  C   UNL     1      -1.965   2.624  -2.866  0.00  0.00    +0.010 A 
ATOM     11  C   UNL     1      -0.011   1.930  -4.245  0.00  0.00    +0.144 C 
ATOM     12  C   UNL     1       0.248   1.259  -5.590  0.00  0.00    +0.081 C 
ATOM     13  C   UNL     1      -0.400   2.114  -6.688  0.00  0.00    +0.232 C 
ATOM     14  O   UNL     1      -1.812   2.125  -6.479  0.00  0.00    -0.492 OA
ATOM     15  C   UNL     1       0.386   1.008  -3.116  0.00  0.00    +0.251 C 
ATOM     16  O   UNL     1      -0.074  -0.085  -2.864  0.00  0.00    -0.272 OA
ATOM     17  N   UNL     1       1.359   1.658  -2.445  0.00  0.00    -0.221 N 
ATOM     18  C   UNL     1       1.630   2.847  -2.998  0.00  0.00    +0.310 C 
ATOM     19  O   UNL     1       2.472   3.614  -2.574  0.00  0.00    -0.252 OA
ATOM     20  N   UNL     1       0.864   3.097  -4.077  0.00  0.00    -0.281 N 
ATOM     21  H   UNL     1       0.793   3.942  -4.778  0.00  0.00    +0.152 HD
ENDBRANCH   4  17
ENDBRANCH   1   4
BRANCH   1  22
ATOM     22  C   UNL     1       2.064   1.114   1.238  0.00  0.00    +0.194 C 
BRANCH  22  23
ATOM     23  O   UNL     1       1.422   1.619   2.410  0.00  0.00    -0.365 OA
BRANCH  23  24
ATOM     24  C   UNL     1       2.072   1.256   3.630  0.00  0.00    +0.178 C 
BRANCH  24  25
ATOM     25  C   UNL     1       3.094   2.305   3.986  0.00  0.00    -0.014 A 
ATOM     26  C   UNL     1       2.808   3.643   3.789  0.00  0.00    +0.009 A 
ATOM     27  C   UNL     1       3.743   4.606   4.120  0.00  0.00    +0.039 A 
ATOM     28  C   UNL     1       4.970   4.229   4.639  0.00  0.00    +0.123 A 
ATOM     29  C   UNL     1       5.257   2.889   4.831  0.00  0.00    +0.039 A 
ATOM     30  C   UNL     1       4.319   1.928   4.505  0.00  0.00    +0.009 A 
ATOM     31  F   UNL     1       5.886   5.169   4.958  0.00  0.00    -0.205 F 
ENDBRANCH  24  25
BRANCH  24  32
ATOM     32  C   UNL     1       1.050   1.156   4.733  0.00  0.00    -0.014 A 
ATOM     33  C   UNL     1      -0.030   2.019   4.755  0.00  0.00    +0.009 A 
ATOM     34  C   UNL     1      -0.970   1.925   5.763  0.00  0.00    +0.039 A 
ATOM     35  C   UNL     1      -0.825   0.973   6.758  0.00  0.00    +0.123 A 
ATOM     36  C   UNL     1       0.259   0.112   6.738  0.00  0.00    +0.039 A 
ATOM     37  C   UNL     1       1.196   0.205   5.726  0.00  0.00    +0.009 A 
ATOM     38  F   UNL     1      -1.742   0.883   7.746  0.00  0.00    -0.205 F 
ENDBRANCH  24  32
ENDBRANCH  23  24
ENDBRANCH  22  23
ENDBRANCH   1  22
TORSDOF 8
