REMARK  Name = ZINC13363058
REMARK  9 active torsions:
REMARK  status: ('A' for Active; 'I' for Inactive)
REMARK    1  A    between atoms: C_1  and  C_2
REMARK    2  A    between atoms: C_4  and  C_20
REMARK    3  A    between atoms: C_5  and  C_19
REMARK    4  A    between atoms: N_6  and  C_7
REMARK    5  A    between atoms: C_7  and  C_8
REMARK    6  A    between atoms: C_21  and  C_22
REMARK    7  A    between atoms: C_21  and  C_24
REMARK    8  A    between atoms: N_26  and  C_27
REMARK    9  A    between atoms: C_32  and  C_33
REMARK                            x       y       z     vdW  Elec       q    Type
REMARK                         _______ _______ _______ _____ _____    ______ ____
ROOT
ATOM      1  C   UNL     1       3.131   3.801  -2.922  0.00  0.00    +0.063 C 
ATOM      2  C   UNL     1       3.684   3.964  -1.529  0.00  0.00    +0.017 A 
ATOM      3  C   UNL     1       4.878   4.499  -1.224  0.00  0.00    +0.030 A 
ATOM      4  C   UNL     1       4.990   4.452   0.241  0.00  0.00    -0.003 A 
ATOM      5  C   UNL     1       3.812   3.880   0.692  0.00  0.00    +0.023 A 
ATOM      6  N   UNL     1       3.050   3.591  -0.379  0.00  0.00    -0.344 N 
ATOM      7  C   UNL     1       3.449   3.622   2.132  0.00  0.00    +0.064 C 
ENDROOT
BRANCH   4   8
ATOM      8  C   UNL     1       6.079   4.905   1.030  0.00  0.00    +0.033 C 
ATOM      9  C   UNL     1       7.013   5.765   0.488  0.00  0.00    +0.114 C 
BRANCH   9  10
ATOM     10  C   UNL     1       8.231   6.094   1.240  0.00  0.00    +0.259 C 
ATOM     11  O   UNL     1       8.417   5.609   2.340  0.00  0.00    -0.269 OA
ATOM     12  N   UNL     1       9.143   6.934   0.711  0.00  0.00    -0.280 N 
ATOM     13  H   UNL     1       8.952   7.397  -0.119  0.00  0.00    +0.155 HD
BRANCH  12  14
ATOM     14  C   UNL     1      10.358   7.138   1.358  0.00  0.00    +0.048 A 
ATOM     15  C   UNL     1      10.892   6.146   2.170  0.00  0.00    +0.024 A 
ATOM     16  C   UNL     1      12.098   6.350   2.809  0.00  0.00    +0.002 A 
ATOM     17  C   UNL     1      12.785   7.543   2.648  0.00  0.00    +0.001 A 
ATOM     18  C   UNL     1      12.271   8.539   1.847  0.00  0.00    +0.017 A 
ATOM     19  C   UNL     1      11.054   8.345   1.188  0.00  0.00    +0.084 A 
BRANCH  19  20
ATOM     20  C   UNL     1      10.502   9.404   0.325  0.00  0.00    +0.388 C 
ATOM     21  O   UNL     1       9.387   9.286  -0.145  0.00  0.00    -0.241 OA
ATOM     22  O   UNL     1      11.232  10.504   0.056  0.00  0.00    -0.241 OA
ENDBRANCH  19  20
ENDBRANCH  12  14
ENDBRANCH   9  10
BRANCH   9  23
ATOM     23  C   UNL     1       6.794   6.337  -0.806  0.00  0.00    +0.104 C 
ATOM     24  N   UNL     1       6.620   6.791  -1.833  0.00  0.00    -0.191 NA
ENDBRANCH   9  23
ENDBRANCH   4   8
BRANCH   6  25
ATOM     25  C   UNL     1       1.724   2.971  -0.318  0.00  0.00    +0.169 C 
BRANCH  25  26
ATOM     26  C   UNL     1       1.870   1.449  -0.385  0.00  0.00    +0.230 C 
ATOM     27  C   UNL     1       0.482   0.798  -0.448  0.00  0.00    +0.275 C 
ATOM     28  O   UNL     1       0.654  -0.622  -0.495  0.00  0.00    -0.485 OA
ATOM     29  C   UNL     1       1.539  -1.161   0.388  0.00  0.00    +0.162 A 
ATOM     30  C   UNL     1       1.496  -2.523   0.648  0.00  0.00    +0.049 A 
ATOM     31  C   UNL     1       2.390  -3.085   1.540  0.00  0.00    +0.004 A 
ATOM     32  C   UNL     1       3.328  -2.292   2.175  0.00  0.00    +0.004 A 
ATOM     33  C   UNL     1       3.375  -0.934   1.921  0.00  0.00    +0.049 A 
ATOM     34  C   UNL     1       2.480  -0.364   1.028  0.00  0.00    +0.163 A 
ATOM     35  O   UNL     1       2.534   0.976   0.792  0.00  0.00    -0.480 OA
ENDBRANCH  25  26
ENDBRANCH   6  25
TORSDOF 7
