REMARK  Name = ZINC33289247
REMARK  8 active torsions:
REMARK  status: ('A' for Active; 'I' for Inactive)
REMARK    1  A    between atoms: C_1  and  C_2
REMARK    2  A    between atoms: N_4  and  C_5
REMARK    3  A    between atoms: C_8  and  N_11
REMARK    4  A    between atoms: C_12  and  C_14
REMARK    5  A    between atoms: C_19  and  S_20
REMARK    6  A    between atoms: S_20  and  C_21
REMARK    7  A    between atoms: C_22  and  O_27
REMARK    8  A    between atoms: O_27  and  C_28
REMARK                            x       y       z     vdW  Elec       q    Type
REMARK                         _______ _______ _______ _____ _____    ______ ____
ROOT
ATOM      1  C   UNL     1      -0.145   9.848  -0.809  0.00  0.00    +0.051 A 
ATOM      2  C   UNL     1      -1.363  10.534  -0.806  0.00  0.00    +0.014 A 
ATOM      3  C   UNL     1      -1.383  11.899  -0.983  0.00  0.00    +0.001 A 
ATOM      4  C   UNL     1      -0.201  12.598  -1.176  0.00  0.00    +0.001 A 
ATOM      5  C   UNL     1       1.008  11.936  -1.188  0.00  0.00    +0.016 A 
ATOM      6  C   UNL     1       1.050  10.559  -1.005  0.00  0.00    +0.026 A 
ENDROOT
BRANCH   1   8
ATOM      7  N   UNL     1      -1.265   7.710  -0.425  0.00  0.00    -0.281 N 
ATOM      8  C   UNL     1      -0.116   8.387  -0.613  0.00  0.00    +0.249 C 
ATOM      9  O   UNL     1       0.946   7.794  -0.621  0.00  0.00    -0.270 OA
ATOM     10  H   UNL     1      -2.218   8.254  -0.342  0.00  0.00    +0.155 HD
BRANCH   7  14
ATOM     11  C   UNL     1      -1.213   3.549  -0.157  0.00  0.00    +0.033 A 
ATOM     12  C   UNL     1      -2.280   4.192  -0.769  0.00  0.00    +0.025 A 
ATOM     13  C   UNL     1      -2.300   5.570  -0.854  0.00  0.00    +0.025 A 
ATOM     14  C   UNL     1      -1.247   6.312  -0.335  0.00  0.00    +0.034 A 
ATOM     15  C   UNL     1      -0.177   5.669   0.272  0.00  0.00    +0.025 A 
ATOM     16  C   UNL     1      -0.160   4.292   0.361  0.00  0.00    +0.025 A 
BRANCH  11  20
ATOM     17  C   UNL     1      -2.334  -0.044  -0.095  0.00  0.00    +0.109 C 
ATOM     18  C   UNL     1      -2.353   1.462  -0.059  0.00  0.00    +0.214 C 
ATOM     19  O   UNL     1      -3.411   2.054  -0.020  0.00  0.00    -0.276 OA
ATOM     20  N   UNL     1      -1.195   2.151  -0.066  0.00  0.00    -0.286 N 
ATOM     21  H   UNL     1      -0.236   1.617  -0.001  0.00  0.00    +0.155 HD
ENDBRANCH  11  20
ENDBRANCH   7  14
ENDBRANCH   1   8
BRANCH   6  22
ATOM     22  S   UNL     1       2.594   9.709  -1.019  0.00  0.00    -0.064 S 
BRANCH  22  23
ATOM     23  C   UNL     1       2.674   8.998  -2.629  0.00  0.00    +0.164 A 
ATOM     24  C   UNL     1       3.736   8.153  -2.972  0.00  0.00    +0.253 A 
ATOM     25  N   UNL     1       3.787   7.619  -4.181  0.00  0.00    -0.217 NA
ATOM     26  C   UNL     1       2.840   7.892  -5.066  0.00  0.00    +0.134 A 
ATOM     27  C   UNL     1       1.795   8.728  -4.730  0.00  0.00    +0.132 A 
ATOM     28  N   UNL     1       1.731   9.264  -3.522  0.00  0.00    -0.242 NA
BRANCH  24  29
ATOM     29  O   UNL     1       4.709   7.880  -2.066  0.00  0.00    -0.436 OA
BRANCH  29  30
ATOM     30  C   UNL     1       5.773   7.141  -2.475  0.00  0.00    +0.130 A 
ATOM     31  C   UNL     1       5.885   5.812  -2.092  0.00  0.00    +0.046 A 
ATOM     32  C   UNL     1       6.965   5.061  -2.515  0.00  0.00    +0.004 A 
ATOM     33  C   UNL     1       7.940   5.636  -3.309  0.00  0.00    +0.000 A 
ATOM     34  C   UNL     1       7.833   6.962  -3.688  0.00  0.00    +0.004 A 
ATOM     35  C   UNL     1       6.753   7.715  -3.273  0.00  0.00    +0.046 A 
ENDBRANCH  29  30
ENDBRANCH  24  29
ENDBRANCH  22  23
ENDBRANCH   6  22
TORSDOF 7
