REMARK  Name = ZINC35239606
REMARK  13 active torsions:
REMARK  status: ('A' for Active; 'I' for Inactive)
REMARK    1  A    between atoms: C_1  and  C_2
REMARK    2  A    between atoms: C_2  and  C_3
REMARK    3  A    between atoms: C_3  and  C_4
REMARK    4  A    between atoms: C_4  and  C_5
REMARK    5  A    between atoms: C_5  and  C_6
REMARK    6  A    between atoms: C_6  and  C_7
REMARK    7  A    between atoms: N_9  and  C_10
REMARK    8  A    between atoms: C_14  and  C_16
REMARK    9  A    between atoms: C_18  and  C_28
REMARK   10  A    between atoms: C_19  and  C_27
REMARK   11  A    between atoms: N_30  and  C_31
REMARK   12  A    between atoms: C_36  and  O_37
REMARK   13  A    between atoms: O_37  and  C_38
REMARK                            x       y       z     vdW  Elec       q    Type
REMARK                         _______ _______ _______ _____ _____    ______ ____
ROOT
ATOM      1  C   UNL     1      -7.492  -9.720   0.417  0.00  0.00    +0.143 C 
ATOM      2  C   UNL     1      -7.708 -10.227   1.823  0.00  0.00    +0.058 C 
ATOM      3  C   UNL     1      -8.978 -10.411   2.281  0.00  0.00    +0.025 C 
ATOM      4  N   UNL     1     -10.028 -10.190   1.490  0.00  0.00    -0.341 N 
ATOM      5  C   UNL     1      -9.888 -10.057   0.186  0.00  0.00    +0.135 C 
ATOM      6  N   UNL     1      -8.651 -10.124  -0.400  0.00  0.00    -0.300 N 
ATOM      7  C   UNL     1      -8.429 -10.613  -1.747  0.00  0.00    +0.109 C 
ATOM      8  C   UNL     1      -9.467 -10.220  -2.772  0.00  0.00    +0.030 C 
ATOM      9  C   UNL     1     -10.874 -10.650  -2.356  0.00  0.00    +0.078 C 
ATOM     10  S   UNL     1     -11.301  -9.743  -0.830  0.00  0.00    -0.092 S 
ATOM     11  C   UNL     1      -9.198 -10.869   3.700  0.00  0.00    +0.064 C 
ATOM     12  H   UNL     1     -10.914 -10.127   1.881  0.00  0.00    +0.167 HD
ENDROOT
BRANCH   1  17
ATOM     13  C   UNL     1      -6.026  -6.237   0.374  0.00  0.00    +0.034 A 
ATOM     14  C   UNL     1      -7.172  -5.456   0.453  0.00  0.00    +0.023 A 
ATOM     15  C   UNL     1      -8.413  -6.059   0.520  0.00  0.00    +0.002 A 
ATOM     16  C   UNL     1      -8.515  -7.438   0.508  0.00  0.00    +0.006 A 
ATOM     17  C   UNL     1      -7.376  -8.218   0.429  0.00  0.00    -0.021 A 
ATOM     18  C   UNL     1      -6.132  -7.621   0.356  0.00  0.00    +0.029 A 
BRANCH  13  21
ATOM     19  C   UNL     1      -4.532  -4.489   0.986  0.00  0.00    +0.217 C 
ATOM     20  O   UNL     1      -5.432  -3.948   1.593  0.00  0.00    -0.275 OA
ATOM     21  N   UNL     1      -4.767  -5.629   0.306  0.00  0.00    -0.285 N 
ATOM     22  H   UNL     1      -4.064  -6.028  -0.230  0.00  0.00    +0.155 HD
BRANCH  19  23
ATOM     23  C   UNL     1      -3.151  -3.886   0.991  0.00  0.00    +0.096 C 
BRANCH  23  24
ATOM     24  C   UNL     1      -3.156  -2.607   1.829  0.00  0.00    +0.009 C 
BRANCH  24  25
ATOM     25  C   UNL     1      -1.754  -1.994   1.834  0.00  0.00    +0.000 C 
BRANCH  25  26
ATOM     26  C   UNL     1      -1.758  -0.715   2.673  0.00  0.00    -0.000 C 
BRANCH  26  28
ATOM     27  C   UNL     1      -0.361   1.177   3.517  0.00  0.00    +0.004 C 
ATOM     28  C   UNL     1      -0.356  -0.103   2.678  0.00  0.00    -0.003 C 
ENDBRANCH  26  28
ENDBRANCH  25  26
ENDBRANCH  24  25
ENDBRANCH  23  24
ENDBRANCH  19  23
ENDBRANCH  13  21
ENDBRANCH   1  17
BRANCH   2  29
ATOM     29  C   UNL     1      -6.608 -10.505   2.654  0.00  0.00    +0.248 C 
ATOM     30  O   UNL     1      -6.787 -10.960   3.771  0.00  0.00    -0.270 OA
ATOM     31  N   UNL     1      -5.355 -10.271   2.215  0.00  0.00    -0.279 N 
ATOM     32  H   UNL     1      -5.214  -9.867   1.344  0.00  0.00    +0.155 HD
BRANCH  31  33
ATOM     33  C   UNL     1      -4.257 -10.609   3.016  0.00  0.00    +0.076 A 
ATOM     34  C   UNL     1      -4.393 -10.662   4.396  0.00  0.00    +0.027 A 
ATOM     35  C   UNL     1      -3.308 -10.996   5.184  0.00  0.00    +0.002 A 
ATOM     36  C   UNL     1      -2.086 -11.279   4.601  0.00  0.00    +0.004 A 
ATOM     37  C   UNL     1      -1.944 -11.228   3.227  0.00  0.00    +0.047 A 
ATOM     38  C   UNL     1      -3.028 -10.899   2.429  0.00  0.00    +0.141 A 
BRANCH  38  39
ATOM     39  O   UNL     1      -2.890 -10.855   1.077  0.00  0.00    -0.493 OA
ATOM     40  C   UNL     1      -1.601 -11.165   0.545  0.00  0.00    +0.277 C 
ENDBRANCH  38  39
ENDBRANCH  31  33
ENDBRANCH   2  29
TORSDOF 10
