REMARK  Name = ZINC67317125
REMARK  6 active torsions:
REMARK  status: ('A' for Active; 'I' for Inactive)
REMARK    1  A    between atoms: C_1  and  C_2
REMARK    2  A    between atoms: C_2  and  C_4
REMARK    3  A    between atoms: C_2  and  N_13
REMARK    4  A    between atoms: N_16  and  C_17
REMARK    5  A    between atoms: C_21  and  S_23
REMARK    6  A    between atoms: S_23  and  C_26
REMARK                            x       y       z     vdW  Elec       q    Type
REMARK                         _______ _______ _______ _____ _____    ______ ____
ROOT
ATOM      1  N   UNL     1      -1.370  -0.517   0.012  0.00  0.00    -0.290 N 
ATOM      2  C   UNL     1      -2.051  -0.641  -1.144  0.00  0.00    +0.304 C 
ATOM      3  O   UNL     1      -1.525  -0.332  -2.196  0.00  0.00    -0.252 OA
ATOM      4  N   UNL     1      -3.315  -1.109  -1.135  0.00  0.00    -0.269 N 
ATOM      5  H   UNL     1      -1.790  -0.764   0.851  0.00  0.00    +0.151 HD
ATOM      6  H   UNL     1      -3.712  -1.419  -0.306  0.00  0.00    +0.156 HD
ENDROOT
BRANCH   4   7
ATOM      7  C   UNL     1      -4.056  -1.148  -2.322  0.00  0.00    +0.037 A 
ATOM      8  C   UNL     1      -3.426  -1.431  -3.527  0.00  0.00    +0.023 A 
ATOM      9  C   UNL     1      -4.159  -1.468  -4.696  0.00  0.00    +0.004 A 
ATOM     10  C   UNL     1      -5.520  -1.224  -4.668  0.00  0.00    +0.027 A 
ATOM     11  C   UNL     1      -6.151  -0.941  -3.470  0.00  0.00    +0.096 A 
ATOM     12  C   UNL     1      -5.423  -0.908  -2.296  0.00  0.00    +0.050 A 
BRANCH  11  13
ATOM     13  S   UNL     1      -7.885  -0.630  -3.441  0.00  0.00    +0.058 S 
ATOM     14  O   UNL     1      -8.086   0.188  -2.296  0.00  0.00    -0.164 OA
ATOM     15  O   UNL     1      -8.188  -0.143  -4.741  0.00  0.00    -0.164 OA
BRANCH  13  16
ATOM     16  C   UNL     1      -8.646  -2.256  -3.189  0.00  0.00    +0.485 C 
ATOM     17  F   UNL     1      -8.291  -3.106  -4.242  0.00  0.00    -0.183 F 
ATOM     18  F   UNL     1      -8.197  -2.800  -1.980  0.00  0.00    -0.183 F 
ENDBRANCH  13  16
ENDBRANCH  11  13
ENDBRANCH   4   7
BRANCH   1  20
ATOM     19  C   UNL     1      -0.018   1.521   0.020  0.00  0.00    +0.036 C 
ATOM     20  C   UNL     1       0.004  -0.009   0.002  0.00  0.00    +0.140 C 
BRANCH  20  21
ATOM     21  C   UNL     1       0.736  -0.515   1.218  0.00  0.00    +0.158 A 
ATOM     22  N   UNL     1       0.276  -0.542   2.442  0.00  0.00    -0.132 NA
ATOM     23  N   UNL     1       1.157  -1.036   3.239  0.00  0.00    -0.129 NA
ATOM     24  C   UNL     1       2.242  -1.356   2.553  0.00  0.00    +0.161 A 
ATOM     25  N   UNL     1       1.994  -1.033   1.242  0.00  0.00    -0.285 N 
ATOM     26  C   UNL     1       2.939  -1.256   0.284  0.00  0.00    +0.094 A 
ATOM     27  C   UNL     1       4.130  -1.798   0.610  0.00  0.00    +0.018 A 
ATOM     28  C   UNL     1       4.413  -2.142   1.943  0.00  0.00    +0.005 A 
ATOM     29  C   UNL     1       3.483  -1.918   2.910  0.00  0.00    +0.048 A 
ENDBRANCH  20  21
ENDBRANCH   1  20
TORSDOF 5
