REMARK  Name = ZINC32974226
REMARK  10 active torsions:
REMARK  status: ('A' for Active; 'I' for Inactive)
REMARK    1  A    between atoms: C_1  and  C_2
REMARK    2  A    between atoms: C_5  and  C_8
REMARK    3  A    between atoms: C_13  and  C_16
REMARK    4  A    between atoms: C_16  and  C_17
REMARK    5  A    between atoms: N_19  and  C_20
REMARK    6  A    between atoms: C_20  and  C_21
REMARK    7  A    between atoms: C_21  and  N_22
REMARK    8  A    between atoms: N_25  and  C_28
REMARK    9  A    between atoms: C_32  and  C_35
REMARK   10  A    between atoms: C_33  and  C_34
REMARK                            x       y       z     vdW  Elec       q    Type
REMARK                         _______ _______ _______ _____ _____    ______ ____
ROOT
ATOM      1  C   UNL     1       1.673  -8.230   4.644  0.00  0.00    +0.213 C 
ATOM      2  O   UNL     1       0.803  -8.850   4.070  0.00  0.00    -0.276 OA
ATOM      3  N   UNL     1       2.518  -8.868   5.477  0.00  0.00    -0.314 N 
ATOM      4  H   UNL     1       3.213  -8.372   5.936  0.00  0.00    +0.149 HD
ENDROOT
BRANCH   1   5
ATOM      5  C   UNL     1       1.808  -6.745   4.425  0.00  0.00    +0.099 C 
BRANCH   5  11
ATOM      6  C   UNL     1      -0.075  -4.320  -0.080  0.00  0.00    +0.247 C 
ATOM      7  O   UNL     1      -0.012  -3.106  -0.073  0.00  0.00    -0.270 OA
ATOM      8  N   UNL     1      -0.162  -4.997   1.083  0.00  0.00    -0.298 N 
ATOM      9  C   UNL     1      -0.307  -4.279   2.357  0.00  0.00    +0.108 C 
ATOM     10  C   UNL     1       0.792  -4.750   3.315  0.00  0.00    +0.023 C 
ATOM     11  C   UNL     1       0.734  -6.274   3.442  0.00  0.00    +0.001 C 
ATOM     12  C   UNL     1       0.982  -6.911   2.072  0.00  0.00    +0.023 C 
ATOM     13  C   UNL     1      -0.120  -6.465   1.099  0.00  0.00    +0.108 C 
BRANCH   6  18
ATOM     14  C   UNL     1      -0.006  -7.180  -5.073  0.00  0.00    +0.044 C 
ATOM     15  C   UNL     1      -0.024  -6.431  -3.765  0.00  0.00    -0.050 A 
ATOM     16  C   UNL     1       0.689  -5.252  -3.637  0.00  0.00    +0.004 A 
ATOM     17  C   UNL     1       0.676  -4.561  -2.443  0.00  0.00    +0.013 A 
ATOM     18  C   UNL     1      -0.058  -5.055  -1.363  0.00  0.00    +0.037 A 
ATOM     19  C   UNL     1      -0.774  -6.245  -1.499  0.00  0.00    +0.013 A 
ATOM     20  C   UNL     1      -0.758  -6.923  -2.700  0.00  0.00    +0.004 A 
ENDBRANCH   6  18
ENDBRANCH   5  11
ENDBRANCH   1   5
BRANCH   3  21
ATOM     21  C   UNL     1       2.386 -10.311   5.690  0.00  0.00    +0.119 C 
BRANCH  21  22
ATOM     22  C   UNL     1       3.460 -10.782   6.673  0.00  0.00    +0.103 C 
BRANCH  22  23
ATOM     23  N   UNL     1       3.328 -12.230   6.886  0.00  0.00    -0.298 NA
ATOM     24  C   UNL     1       2.068 -12.548   7.573  0.00  0.00    +0.102 C 
ATOM     25  C   UNL     1       1.942 -14.066   7.723  0.00  0.00    +0.100 C 
ATOM     26  N   UNL     1       3.083 -14.579   8.492  0.00  0.00    -0.391 NA
ATOM     27  C   UNL     1       4.332 -14.275   7.781  0.00  0.00    +0.100 C 
ATOM     28  C   UNL     1       4.478 -12.759   7.632  0.00  0.00    +0.102 C 
ATOM     29  H   UNL     1       3.099 -14.142   9.401  0.00  0.00    +0.127 HD
BRANCH  26  30
ATOM     30  C   UNL     1       2.958 -15.963   8.643  0.00  0.00    +0.017 A 
ATOM     31  C   UNL     1       2.998 -16.786   7.533  0.00  0.00    +0.022 A 
ATOM     32  C   UNL     1       2.874 -18.154   7.682  0.00  0.00    +0.002 A 
ATOM     33  C   UNL     1       2.711 -18.701   8.941  0.00  0.00    +0.004 A 
ATOM     34  C   UNL     1       2.671 -17.878  10.051  0.00  0.00    -0.046 A 
ATOM     35  C   UNL     1       2.799 -16.510   9.903  0.00  0.00    -0.028 A 
ATOM     36  C   UNL     1       2.762 -15.613  11.113  0.00  0.00    +0.046 C 
ATOM     37  C   UNL     1       2.493 -18.473  11.424  0.00  0.00    +0.044 C 
ENDBRANCH  26  30
ENDBRANCH  22  23
ENDBRANCH  21  22
ENDBRANCH   3  21
TORSDOF 7
