REMARK  Name = ZINC02076778
REMARK  5 active torsions:
REMARK  status: ('A' for Active; 'I' for Inactive)
REMARK    1  A    between atoms: C_1  and  C_2
REMARK    2  A    between atoms: C_7  and  N_8
REMARK    3  A    between atoms: C_9  and  C_11
REMARK    4  A    between atoms: N_13  and  N_14
REMARK    5  A    between atoms: C_15  and  C_16
REMARK                            x       y       z     vdW  Elec       q    Type
REMARK                         _______ _______ _______ _____ _____    ______ ____
ROOT
ATOM      1  C   UNL     1      -3.527   1.652   0.013  0.00  0.00    +0.318 C 
ATOM      2  O   UNL     1      -3.543   2.866   0.013  0.00  0.00    -0.263 OA
ATOM      3  N   UNL     1      -2.350   0.994   0.001  0.00  0.00    -0.199 N 
ATOM      4  H   UNL     1      -2.337   0.024   0.001  0.00  0.00    +0.178 HD
ENDROOT
BRANCH   1   6
ATOM      5  N   UNL     1      -5.984   1.546   0.039  0.00  0.00    -0.277 N 
ATOM      6  C   UNL     1      -4.807   0.889   0.027  0.00  0.00    +0.305 C 
ATOM      7  O   UNL     1      -4.790  -0.325   0.027  0.00  0.00    -0.265 OA
ATOM      8  H   UNL     1      -5.998   2.513   0.119  0.00  0.00    +0.155 HD
BRANCH   5  15
ATOM      9  C   UNL     1      -8.342   2.732   1.100  0.00  0.00    +0.045 C 
ATOM     10  C   UNL     1      -8.358   1.377   0.440  0.00  0.00    -0.029 A 
ATOM     11  C   UNL     1      -9.542   0.673   0.336  0.00  0.00    +0.006 A 
ATOM     12  C   UNL     1      -9.558  -0.570  -0.269  0.00  0.00    +0.020 A 
ATOM     13  C   UNL     1      -8.388  -1.113  -0.774  0.00  0.00    +0.043 A 
ATOM     14  C   UNL     1      -7.202  -0.411  -0.678  0.00  0.00    +0.043 A 
ATOM     15  C   UNL     1      -7.182   0.836  -0.065  0.00  0.00    +0.038 A 
ATOM     16 CL   UNL     1      -8.413  -2.674  -1.533  0.00  0.00    -0.083 Cl
ENDBRANCH   5  15
ENDBRANCH   1   6
BRANCH   3  17
ATOM     17  N   UNL     1      -1.147   1.711  -0.012  0.00  0.00    -0.187 NA
ATOM     18  C   UNL     1      -0.013   1.077  -0.024  0.00  0.00    +0.139 C 
BRANCH  18  19
ATOM     19  C   UNL     1       1.252   1.831  -0.043  0.00  0.00    +0.012 A 
ATOM     20  C   UNL     1       2.474   1.151  -0.056  0.00  0.00    +0.060 A 
ATOM     21  C   UNL     1       3.658   1.862  -0.079  0.00  0.00    +0.167 A 
ATOM     22  C   UNL     1       3.634   3.257  -0.079  0.00  0.00    +0.167 A 
ATOM     23  C   UNL     1       2.423   3.933  -0.061  0.00  0.00    +0.065 A 
ATOM     24  C   UNL     1       1.236   3.229  -0.043  0.00  0.00    +0.030 A 
ATOM     25 BR   UNL     1      -0.413   4.156  -0.019  0.00  0.00    -0.050 Br
ATOM     26  O   UNL     1       4.920   3.714  -0.098  0.00  0.00    -0.453 OA
ATOM     27  C   UNL     1       5.720   2.595  -0.523  0.00  0.00    +0.466 C 
ATOM     28  O   UNL     1       4.959   1.449  -0.098  0.00  0.00    -0.453 OA
ENDBRANCH  18  19
ENDBRANCH   3  17
TORSDOF 4
