REMARK  Name = ZINC45166286
REMARK  3 active torsions:
REMARK  status: ('A' for Active; 'I' for Inactive)
REMARK    1  A    between atoms: C_3  and  N_23
REMARK    2  A    between atoms: C_4  and  S_8
REMARK    3  A    between atoms: S_8  and  N_11
REMARK                            x       y       z     vdW  Elec       q    Type
REMARK                         _______ _______ _______ _____ _____    ______ ____
ROOT
ATOM      1  S   UNL     1       3.933  -0.796  -0.094  0.00  0.00    +0.064 S 
ATOM      2  O   UNL     1       4.115  -1.960  -0.888  0.00  0.00    -0.153 OA
ATOM      3  O   UNL     1       4.555   0.443  -0.406  0.00  0.00    -0.153 OA
ENDROOT
BRANCH   1   4
ATOM      4  N   UNL     1       4.409  -1.191   1.442  0.00  0.00    -0.173 NA
ATOM      5  C   UNL     1       5.128  -0.222   2.283  0.00  0.00    +0.110 C 
ATOM      6  C   UNL     1       6.421  -0.864   2.794  0.00  0.00    +0.017 C 
ATOM      7  C   UNL     1       6.100  -2.192   3.487  0.00  0.00    +0.006 C 
ATOM      8  C   UNL     1       5.441  -3.136   2.483  0.00  0.00    +0.008 C 
ATOM      9  C   UNL     1       4.120  -2.515   2.003  0.00  0.00    +0.083 C 
ATOM     10  C   UNL     1       3.495  -3.422   0.944  0.00  0.00    +0.021 C 
ATOM     11  C   UNL     1       3.201  -4.790   1.569  0.00  0.00    +0.002 C 
ATOM     12  C   UNL     1       4.498  -5.413   2.087  0.00  0.00    +0.000 C 
ATOM     13  C   UNL     1       5.143  -4.488   3.128  0.00  0.00    +0.005 C 
ENDBRANCH   1   4
BRANCH   1  17
ATOM     14  C   UNL     1      -0.528  -0.006   0.045  0.00  0.00    +0.003 A 
ATOM     15  C   UNL     1       0.342   0.858   0.681  0.00  0.00    +0.025 A 
ATOM     16  C   UNL     1       1.710   0.619   0.641  0.00  0.00    +0.053 A 
ATOM     17  C   UNL     1       2.199  -0.489  -0.040  0.00  0.00    +0.144 A 
ATOM     18  C   UNL     1       1.324  -1.349  -0.674  0.00  0.00    +0.069 A 
ATOM     19  C   UNL     1      -0.039  -1.108  -0.632  0.00  0.00    +0.022 A 
ATOM     20 CL   UNL     1       1.933  -2.734  -1.526  0.00  0.00    -0.081 Cl
BRANCH  16  21
ATOM     21  N   UNL     1       2.592   1.491   1.284  0.00  0.00    -0.356 N 
ATOM     22  H   UNL     1       2.260   2.313   1.677  0.00  0.00    +0.142 HD
ATOM     23  H   UNL     1       3.536   1.275   1.336  0.00  0.00    +0.142 HD
ENDBRANCH  16  21
ENDBRANCH   1  17
TORSDOF 3
