REMARK  Name = ZINC02211847
REMARK  9 active torsions:
REMARK  status: ('A' for Active; 'I' for Inactive)
REMARK    1  A    between atoms: C_1  and  C_2
REMARK    2  A    between atoms: C_3  and  C_23
REMARK    3  A    between atoms: N_11  and  C_14
REMARK    4  A    between atoms: C_14  and  C_15
REMARK    5  A    between atoms: C_17  and  C_21
REMARK    6  A    between atoms: C_18  and  N_20
REMARK    7  A    between atoms: C_23  and  O_25
REMARK    8  A    between atoms: O_25  and  C_26
REMARK    9  A    between atoms: C_26  and  C_27
REMARK                            x       y       z     vdW  Elec       q    Type
REMARK                         _______ _______ _______ _____ _____    ______ ____
ROOT
ATOM      1  C   UNL     1      -0.136   1.493  -0.039  0.00  0.00    +0.087 C 
ATOM      2  C   UNL     1      -0.058  -0.012  -0.011  0.00  0.00    +0.116 C 
ATOM      3  C   UNL     1      -1.194  -0.723  -0.014  0.00  0.00    +0.099 C 
ATOM      4  C   UNL     1      -1.165  -2.223   0.012  0.00  0.00    +0.148 C 
ATOM      5  C   UNL     1      -1.593  -2.738   1.363  0.00  0.00    -0.001 A 
ATOM      6  C   UNL     1      -1.083  -2.584   2.633  0.00  0.00    +0.007 A 
ATOM      7  C   UNL     1      -1.708  -3.192   3.708  0.00  0.00    +0.000 A 
ATOM      8  C   UNL     1      -2.844  -3.954   3.501  0.00  0.00    +0.002 A 
ATOM      9  C   UNL     1      -3.358  -4.110   2.231  0.00  0.00    +0.024 A 
ATOM     10  C   UNL     1      -2.734  -3.500   1.144  0.00  0.00    +0.042 A 
ATOM     11  N   UNL     1      -3.056  -3.507  -0.214  0.00  0.00    -0.258 N 
ATOM     12  C   UNL     1      -2.190  -2.784  -0.946  0.00  0.00    +0.241 C 
ATOM     13  O   UNL     1      -2.225  -2.615  -2.146  0.00  0.00    -0.273 OA
ATOM     14  C   UNL     1       0.204  -2.732  -0.335  0.00  0.00    +0.110 C 
ATOM     15  C   UNL     1       1.275  -1.899  -0.316  0.00  0.00    +0.199 C 
ATOM     16  O   UNL     1       1.148  -0.601   0.009  0.00  0.00    -0.445 OA
ENDROOT
BRANCH  15  17
ATOM     17  N   UNL     1       2.515  -2.391  -0.640  0.00  0.00    -0.328 N 
ATOM     18  H   UNL     1       2.618  -3.325  -0.880  0.00  0.00    +0.145 HD
ATOM     19  H   UNL     1       3.287  -1.805  -0.630  0.00  0.00    +0.145 HD
ENDBRANCH  15  17
BRANCH  14  20
ATOM     20  C   UNL     1       0.382  -4.109  -0.688  0.00  0.00    +0.102 C 
ATOM     21  N   UNL     1       0.523  -5.200  -0.968  0.00  0.00    -0.191 NA
ENDBRANCH  14  20
BRANCH   3  22
ATOM     22  C   UNL     1      -2.440  -0.049  -0.041  0.00  0.00    +0.340 C 
ATOM     23  O   UNL     1      -3.473  -0.683  -0.145  0.00  0.00    -0.245 OA
BRANCH  22  24
ATOM     24  O   UNL     1      -2.481   1.296   0.050  0.00  0.00    -0.457 OA
BRANCH  24  25
ATOM     25  C   UNL     1      -3.773   1.902   0.131  0.00  0.00    +0.268 C 
BRANCH  25  26
ATOM     26  C   UNL     1      -3.620   3.386   0.346  0.00  0.00    -0.010 A 
ATOM     27  C   UNL     1      -3.447   3.884   1.624  0.00  0.00    +0.007 A 
ATOM     28  C   UNL     1      -3.306   5.245   1.822  0.00  0.00    +0.000 A 
ATOM     29  C   UNL     1      -3.338   6.107   0.742  0.00  0.00    +0.000 A 
ATOM     30  C   UNL     1      -3.510   5.609  -0.536  0.00  0.00    +0.000 A 
ATOM     31  C   UNL     1      -3.646   4.247  -0.734  0.00  0.00    +0.007 A 
ENDBRANCH  25  26
ENDBRANCH  24  25
ENDBRANCH  22  24
ENDBRANCH   3  22
BRANCH  11  32
ATOM     32  C   UNL     1      -4.205  -4.220  -0.777  0.00  0.00    +0.202 C 
BRANCH  32  33
ATOM     33  C   UNL     1      -5.348  -3.299  -0.890  0.00  0.00    -0.086 C 
ATOM     34  C   UNL     1      -6.259  -2.563  -0.980  0.00  0.00    +0.005 C 
ENDBRANCH  32  33
ENDBRANCH  11  32
TORSDOF 8
