REMARK  Name = ZINC01059993
REMARK  14 active torsions:
REMARK  status: ('A' for Active; 'I' for Inactive)
REMARK    1  A    between atoms: C_1  and  C_2
REMARK    2  A    between atoms: C_2  and  O_3
REMARK    3  A    between atoms: O_3  and  C_4
REMARK    4  A    between atoms: C_4  and  C_6
REMARK    5  A    between atoms: C_10  and  N_11
REMARK    6  A    between atoms: C_14  and  C_21
REMARK    7  A    between atoms: C_16  and  C_19
REMARK    8  A    between atoms: C_17  and  N_18
REMARK    9  A    between atoms: C_24  and  O_29
REMARK   10  A    between atoms: C_25  and  O_27
REMARK   11  A    between atoms: O_27  and  C_28
REMARK   12  A    between atoms: O_29  and  C_30
REMARK   13  A    between atoms: C_34  and  C_36
REMARK   14  A    between atoms: C_34  and  C_37
REMARK                            x       y       z     vdW  Elec       q    Type
REMARK                         _______ _______ _______ _____ _____    ______ ____
ROOT
ATOM      1  N   UNL     1      -0.315  -2.376  -3.788  0.00  0.00    -0.254 N 
ATOM      2  C   UNL     1      -0.844  -2.526  -5.045  0.00  0.00    +0.025 C 
ATOM      3  C   UNL     1      -1.980  -1.886  -5.394  0.00  0.00    +0.025 C 
ATOM      4  C   UNL     1      -2.696  -0.990  -4.416  0.00  0.00    +0.097 C 
ATOM      5  C   UNL     1      -2.254  -1.260  -3.008  0.00  0.00    +0.077 C 
ATOM      6  C   UNL     1      -1.101  -1.931  -2.748  0.00  0.00    +0.107 C 
ATOM      7  C   UNL     1      -2.528  -2.032  -6.681  0.00  0.00    +0.162 C 
ATOM      8  O   UNL     1      -3.561  -1.456  -6.958  0.00  0.00    -0.292 OA
ATOM      9  C   UNL     1      -1.858  -2.888  -7.721  0.00  0.00    +0.086 C 
ATOM     10  C   UNL     1      -0.351  -2.917  -7.448  0.00  0.00    -0.023 C 
ATOM     11  C   UNL     1      -0.127  -3.425  -6.022  0.00  0.00    +0.058 C 
ATOM     12  C   UNL     1       0.225  -1.506  -7.587  0.00  0.00    +0.011 C 
ATOM     13  C   UNL     1       0.334  -3.857  -8.442  0.00  0.00    +0.011 C 
ENDROOT
BRANCH   1  18
ATOM     14  C   UNL     1       1.561  -3.885  -3.143  0.00  0.00    +0.091 A 
ATOM     15  C   UNL     1       3.003  -3.946  -2.986  0.00  0.00    -0.021 A 
ATOM     16  C   UNL     1       3.640  -2.789  -3.269  0.00  0.00    -0.004 A 
ATOM     17  S   UNL     1       2.351  -1.669  -3.729  0.00  0.00    -0.077 S 
ATOM     18  C   UNL     1       1.020  -2.679  -3.562  0.00  0.00    +0.092 A 
ATOM     19  C   UNL     1       5.114  -2.534  -3.202  0.00  0.00    +0.043 C 
ATOM     20  C   UNL     1       5.764  -3.670  -2.400  0.00  0.00    +0.005 C 
ATOM     21  C   UNL     1       5.242  -5.010  -2.927  0.00  0.00    +0.005 C 
ATOM     22  C   UNL     1       3.771  -5.183  -2.543  0.00  0.00    +0.037 C 
BRANCH  14  23
ATOM     23  C   UNL     1       0.714  -5.051  -2.877  0.00  0.00    +0.342 C 
ATOM     24  O   UNL     1       0.527  -5.878  -3.749  0.00  0.00    -0.245 OA
BRANCH  23  25
ATOM     25  O   UNL     1       0.141  -5.205  -1.666  0.00  0.00    -0.461 OA
BRANCH  25  27
ATOM     26  C   UNL     1      -1.045  -6.470   0.018  0.00  0.00    +0.048 C 
ATOM     27  C   UNL     1      -0.574  -6.422  -1.437  0.00  0.00    +0.229 C 
ENDBRANCH  25  27
ENDBRANCH  23  25
ENDBRANCH  14  23
ENDBRANCH   1  18
BRANCH   4  28
ATOM     28  C   UNL     1      -2.403   0.448  -4.758  0.00  0.00    -0.031 A 
ATOM     29  C   UNL     1      -1.098   0.906  -4.753  0.00  0.00    +0.008 A 
ATOM     30  C   UNL     1      -0.823   2.224  -5.065  0.00  0.00    +0.050 A 
ATOM     31  C   UNL     1      -1.857   3.090  -5.385  0.00  0.00    +0.162 A 
ATOM     32  C   UNL     1      -3.170   2.629  -5.391  0.00  0.00    +0.162 A 
ATOM     33  C   UNL     1      -3.438   1.305  -5.081  0.00  0.00    +0.054 A 
BRANCH  32  34
ATOM     34  O   UNL     1      -4.188   3.475  -5.704  0.00  0.00    -0.491 OA
ATOM     35  C   UNL     1      -5.510   2.933  -5.689  0.00  0.00    +0.277 C 
ENDBRANCH  32  34
BRANCH  31  36
ATOM     36  O   UNL     1      -1.589   4.387  -5.693  0.00  0.00    -0.491 OA
ATOM     37  C   UNL     1      -0.218   4.790  -5.666  0.00  0.00    +0.277 C 
ENDBRANCH  31  36
ENDBRANCH   4  28
BRANCH   6  38
ATOM     38  N   UNL     1      -0.716  -2.162  -1.449  0.00  0.00    -0.345 N 
ATOM     39  H   UNL     1       0.146  -2.565  -1.264  0.00  0.00    +0.144 HD
ATOM     40  H   UNL     1      -1.307  -1.922  -0.718  0.00  0.00    +0.144 HD
ENDBRANCH   6  38
BRANCH   5  41
ATOM     41  C   UNL     1      -3.064  -0.806  -1.917  0.00  0.00    +0.099 C 
ATOM     42  N   UNL     1      -3.707  -0.447  -1.052  0.00  0.00    -0.191 NA
ENDBRANCH   5  41
TORSDOF 9
