REMARK  Name = ZINC08606761
REMARK  9 active torsions:
REMARK  status: ('A' for Active; 'I' for Inactive)
REMARK    1  A    between atoms: C_1  and  C_2
REMARK    2  A    between atoms: C_9  and  C_14
REMARK    3  A    between atoms: C_12  and  C_13
REMARK    4  A    between atoms: N_16  and  C_17
REMARK    5  A    between atoms: C_20  and  S_23
REMARK    6  A    between atoms: S_23  and  N_26
REMARK    7  A    between atoms: N_26  and  C_27
REMARK    8  A    between atoms: C_28  and  C_33
REMARK    9  A    between atoms: C_29  and  C_32
REMARK                            x       y       z     vdW  Elec       q    Type
REMARK                         _______ _______ _______ _____ _____    ______ ____
ROOT
ATOM      1  C   UNL     1       0.340  -2.890   4.751  0.00  0.00    +0.284 C 
ATOM      2  O   UNL     1       0.857  -2.450   5.759  0.00  0.00    -0.266 OA
ATOM      3  N   UNL     1      -0.494  -3.946   4.828  0.00  0.00    -0.279 N 
ATOM      4  H   UNL     1      -0.958  -4.256   4.035  0.00  0.00    +0.155 HD
ENDROOT
BRANCH   1  13
ATOM      5  C   UNL     1       0.098  -3.736  -2.434  0.00  0.00    +0.044 C 
ATOM      6  C   UNL     1       0.531  -2.909  -1.251  0.00  0.00    -0.044 A 
ATOM      7  C   UNL     1       1.375  -1.825  -1.444  0.00  0.00    +0.004 A 
ATOM      8  C   UNL     1       1.781  -1.066  -0.382  0.00  0.00    +0.015 A 
ATOM      9  C   UNL     1       1.341  -1.386   0.901  0.00  0.00    +0.064 A 
ATOM     10  C   UNL     1       1.764  -0.605   2.081  0.00  0.00    +0.193 A 
ATOM     11  O   UNL     1       2.322   0.473   1.975  0.00  0.00    -0.287 OA
ATOM     12  C   UNL     1       1.471  -1.207   3.393  0.00  0.00    +0.103 A 
ATOM     13  C   UNL     1       0.628  -2.268   3.438  0.00  0.00    +0.194 A 
ATOM     14  O   UNL     1       0.043  -2.776   2.345  0.00  0.00    -0.450 OA
ATOM     15  C   UNL     1       0.479  -2.478   1.106  0.00  0.00    +0.143 A 
ATOM     16  C   UNL     1       0.078  -3.235   0.010  0.00  0.00    -0.005 A 
ATOM     17  C   UNL     1      -0.844  -4.411   0.200  0.00  0.00    +0.048 C 
ENDBRANCH   1  13
BRANCH   3  18
ATOM     18  C   UNL     1      -0.690  -4.594   6.051  0.00  0.00    +0.034 A 
ATOM     19  C   UNL     1      -0.880  -5.970   6.087  0.00  0.00    +0.025 A 
ATOM     20  C   UNL     1      -1.074  -6.607   7.297  0.00  0.00    +0.031 A 
ATOM     21  C   UNL     1      -1.079  -5.877   8.472  0.00  0.00    +0.111 A 
ATOM     22  C   UNL     1      -0.890  -4.507   8.439  0.00  0.00    +0.031 A 
ATOM     23  C   UNL     1      -0.690  -3.865   7.233  0.00  0.00    +0.025 A 
BRANCH  21  24
ATOM     24  S   UNL     1      -1.327  -6.694  10.013  0.00  0.00    +0.094 S 
ATOM     25  O   UNL     1      -1.832  -5.717  10.913  0.00  0.00    -0.148 OA
ATOM     26  O   UNL     1      -2.023  -7.899   9.726  0.00  0.00    -0.148 OA
BRANCH  24  27
ATOM     27  N   UNL     1       0.166  -7.133  10.580  0.00  0.00    -0.057 NA
BRANCH  27  28
ATOM     28  C   UNL     1       0.278  -7.799  11.786  0.00  0.00    +0.262 A 
ATOM     29  C   UNL     1       1.435  -8.211  12.369  0.00  0.00    +0.037 A 
ATOM     30  C   UNL     1       1.112  -8.842  13.577  0.00  0.00    +0.085 A 
ATOM     31  N   UNL     1      -0.185  -8.812  13.719  0.00  0.00    -0.081 NA
ATOM     32  O   UNL     1      -0.736  -8.150  12.595  0.00  0.00    -0.336 OA
ATOM     33  C   UNL     1       2.092  -9.450  14.547  0.00  0.00    +0.069 C 
ATOM     34  C   UNL     1       2.823  -8.023  11.812  0.00  0.00    +0.051 C 
ENDBRANCH  27  28
ENDBRANCH  24  27
ENDBRANCH  21  24
ENDBRANCH   3  18
TORSDOF 5
