REMARK  Name = ZINC12060029
REMARK  6 active torsions:
REMARK  status: ('A' for Active; 'I' for Inactive)
REMARK    1  A    between atoms: C_10  and  C_11
REMARK    2  A    between atoms: C_11  and  C_12
REMARK    3  A    between atoms: N_14  and  N_15
REMARK    4  A    between atoms: C_16  and  C_18
REMARK    5  A    between atoms: N_21  and  S_24
REMARK    6  A    between atoms: S_24  and  C_27
REMARK                            x       y       z     vdW  Elec       q    Type
REMARK                         _______ _______ _______ _____ _____    ______ ____
ROOT
ATOM      1  N   UNL     1       1.143   1.898   0.001  0.00  0.00    -0.234 N 
ATOM      2  C   UNL     1      -0.014   1.209   0.009  0.00  0.00    +0.232 C 
ATOM      3  O   UNL     1       0.002  -0.004   0.002  0.00  0.00    -0.274 OA
ATOM      4  H   UNL     1       1.130   2.868   0.007  0.00  0.00    +0.173 HD
ENDROOT
BRANCH   2   5
ATOM      5  C   UNL     1      -1.330   1.944   0.019  0.00  0.00    +0.079 C 
ATOM      6  C   UNL     1      -1.416   2.817   1.273  0.00  0.00    +0.030 C 
ATOM      7  C   UNL     1      -2.739   3.590   1.263  0.00  0.00    +0.110 C 
ATOM      8  N   UNL     1      -3.844   2.633   1.117  0.00  0.00    -0.176 NA
ATOM      9  C   UNL     1      -3.814   1.685  -0.006  0.00  0.00    +0.110 C 
ATOM     10  C   UNL     1      -2.479   0.934   0.019  0.00  0.00    +0.030 C 
BRANCH   8  11
ATOM     11  S   UNL     1      -5.099   2.623   2.196  0.00  0.00    +0.064 S 
ATOM     12  O   UNL     1      -5.150   3.921   2.773  0.00  0.00    -0.153 OA
ATOM     13  O   UNL     1      -6.209   2.044   1.524  0.00  0.00    -0.153 OA
BRANCH  11  14
ATOM     14  C   UNL     1      -4.662   1.513   3.493  0.00  0.00    +0.140 A 
ATOM     15  C   UNL     1      -4.464   1.991   4.775  0.00  0.00    +0.031 A 
ATOM     16  C   UNL     1      -4.126   1.120   5.793  0.00  0.00    +0.002 A 
ATOM     17  C   UNL     1      -3.975  -0.229   5.529  0.00  0.00    +0.003 A 
ATOM     18  C   UNL     1      -4.167  -0.709   4.248  0.00  0.00    +0.040 A 
ATOM     19  C   UNL     1      -4.511   0.163   3.228  0.00  0.00    +0.150 A 
ATOM     20  F   UNL     1      -4.698  -0.305   1.974  0.00  0.00    -0.203 F 
ENDBRANCH  11  14
ENDBRANCH   8  11
ENDBRANCH   2   5
BRANCH   1  23
ATOM     21  C   UNL     1       3.524   1.904  -0.021  0.00  0.00    +0.233 C 
ATOM     22  O   UNL     1       3.508   3.117  -0.015  0.00  0.00    -0.274 OA
ATOM     23  N   UNL     1       2.366   1.214  -0.014  0.00  0.00    -0.234 N 
ATOM     24  H   UNL     1       2.379   0.244  -0.019  0.00  0.00    +0.173 HD
BRANCH  21  25
ATOM     25  C   UNL     1       4.839   1.168  -0.038  0.00  0.00    +0.133 C 
BRANCH  25  35
ATOM     26  C   UNL     1       7.410   3.796   3.524  0.00  0.00    +0.001 A 
ATOM     27  C   UNL     1       6.362   2.878   3.549  0.00  0.00    +0.001 A 
ATOM     28  C   UNL     1       5.878   2.335   2.398  0.00  0.00    +0.009 A 
ATOM     29  C   UNL     1       6.439   2.707   1.165  0.00  0.00    -0.014 A 
ATOM     30  C   UNL     1       7.508   3.638   1.140  0.00  0.00    -0.018 A 
ATOM     31  C   UNL     1       7.981   4.177   2.349  0.00  0.00    +0.008 A 
ATOM     32  C   UNL     1       8.072   4.006  -0.093  0.00  0.00    +0.008 A 
ATOM     33  C   UNL     1       7.589   3.463  -1.244  0.00  0.00    +0.001 A 
ATOM     34  C   UNL     1       6.542   2.544  -1.219  0.00  0.00    +0.005 A 
ATOM     35  C   UNL     1       5.971   2.163  -0.043  0.00  0.00    -0.031 A 
ENDBRANCH  25  35
ENDBRANCH  21  25
ENDBRANCH   1  23
TORSDOF 6
