REMARK  Name = ZINC35268121
REMARK  8 active torsions:
REMARK  status: ('A' for Active; 'I' for Inactive)
REMARK    1  A    between atoms: C_1  and  C_2
REMARK    2  A    between atoms: C_2  and  C_3
REMARK    3  A    between atoms: C_3  and  C_5
REMARK    4  A    between atoms: C_3  and  C_6
REMARK    5  A    between atoms: C_6  and  C_8
REMARK    6  A    between atoms: C_6  and  N_23
REMARK    7  A    between atoms: C_14  and  C_16
REMARK    8  A    between atoms: N_26  and  C_27
REMARK                            x       y       z     vdW  Elec       q    Type
REMARK                         _______ _______ _______ _____ _____    ______ ____
ROOT
ATOM      1  C   UNL     1       0.588  -2.042  -1.402  0.00  0.00    +0.163 C 
ENDROOT
BRANCH   1   2
ATOM      2  C   UNL     1       1.006  -2.712  -0.118  0.00  0.00    +0.239 C 
ATOM      3  O   UNL     1       0.247  -3.473   0.444  0.00  0.00    -0.273 OA
ATOM      4  N   UNL     1       2.223  -2.464   0.406  0.00  0.00    -0.262 N 
ATOM      5  C   UNL     1       2.571  -3.002   1.639  0.00  0.00    +0.188 A 
ATOM      6  N   UNL     1       1.874  -3.779   2.458  0.00  0.00    -0.125 NA
ATOM      7  N   UNL     1       2.345  -4.184   3.555  0.00  0.00    -0.140 NA
ATOM      8  C   UNL     1       3.567  -3.857   3.956  0.00  0.00    +0.134 A 
ATOM      9  S   UNL     1       4.091  -2.849   2.572  0.00  0.00    -0.030 S 
ATOM     10  H   UNL     1       2.856  -1.911  -0.079  0.00  0.00    +0.157 HD
BRANCH   8  11
ATOM     11  C   UNL     1       4.292  -4.225   5.191  0.00  0.00    +0.009 A 
ATOM     12  C   UNL     1       5.588  -3.754   5.410  0.00  0.00    +0.012 A 
ATOM     13  C   UNL     1       6.259  -4.101   6.564  0.00  0.00    +0.020 A 
ATOM     14  C   UNL     1       5.649  -4.914   7.505  0.00  0.00    +0.041 A 
ATOM     15  C   UNL     1       4.364  -5.384   7.293  0.00  0.00    +0.020 A 
ATOM     16  C   UNL     1       3.681  -5.040   6.145  0.00  0.00    +0.012 A 
ATOM     17 CL   UNL     1       6.500  -5.347   8.954  0.00  0.00    -0.084 Cl
ENDBRANCH   8  11
ENDBRANCH   1   2
BRANCH   1  18
ATOM     18  N   UNL     1      -0.518  -2.791  -2.005  0.00  0.00    -0.288 N 
ATOM     19  C   UNL     1      -0.732  -2.722  -3.334  0.00  0.00    +0.300 C 
ATOM     20  O   UNL     1      -0.008  -2.038  -4.032  0.00  0.00    -0.253 OA
ATOM     21  N   UNL     1      -1.749  -3.411  -3.889  0.00  0.00    -0.297 N 
ATOM     22  H   UNL     1      -1.095  -3.336  -1.449  0.00  0.00    +0.151 HD
ATOM     23  H   UNL     1      -2.326  -3.956  -3.333  0.00  0.00    +0.151 HD
BRANCH  21  24
ATOM     24  C   UNL     1      -1.981  -3.336  -5.334  0.00  0.00    +0.074 C 
ATOM     25  C   UNL     1      -2.835  -2.106  -5.650  0.00  0.00    +0.022 C 
ATOM     26  C   UNL     1      -3.079  -2.028  -7.158  0.00  0.00    +0.002 C 
ATOM     27  C   UNL     1      -3.809  -3.289  -7.623  0.00  0.00    +0.000 C 
ATOM     28  C   UNL     1      -2.955  -4.519  -7.307  0.00  0.00    +0.002 C 
ATOM     29  C   UNL     1      -2.712  -4.597  -5.799  0.00  0.00    +0.022 C 
ENDBRANCH  21  24
ENDBRANCH   1  18
BRANCH   1  30
ATOM     30  C   UNL     1       0.133  -0.611  -1.106  0.00  0.00    +0.015 C 
ATOM     31  C   UNL     1      -1.101  -0.645  -0.201  0.00  0.00    +0.010 C 
BRANCH  30  33
ATOM     32  C   UNL     1      -0.550   1.560  -2.135  0.00  0.00    +0.004 C 
ATOM     33  C   UNL     1      -0.216   0.094  -2.418  0.00  0.00    +0.002 C 
ENDBRANCH  30  33
ENDBRANCH   1  30
TORSDOF 6
