REMARK  Name = ZINC63581953
REMARK  7 active torsions:
REMARK  status: ('A' for Active; 'I' for Inactive)
REMARK    1  A    between atoms: C_7  and  C_10
REMARK    2  A    between atoms: C_10  and  C_11
REMARK    3  A    between atoms: C_11  and  N_12
REMARK    4  A    between atoms: C_13  and  C_15
REMARK    5  A    between atoms: C_15  and  N_23
REMARK    6  A    between atoms: C_16  and  C_17
REMARK    7  A    between atoms: C_24  and  C_26
REMARK                            x       y       z     vdW  Elec       q    Type
REMARK                         _______ _______ _______ _____ _____    ______ ____
ROOT
ATOM      1  C   UNL     1      -1.917  -6.321  -2.706  0.00  0.00    +0.097 C 
ATOM      2  C   UNL     1      -2.181  -7.150  -3.742  0.00  0.00    +0.038 C 
ENDROOT
BRANCH   2   3
ATOM      3  C   UNL     1      -1.673  -6.833  -5.086  0.00  0.00    -0.005 A 
ATOM      4  C   UNL     1      -0.369  -6.345  -5.260  0.00  0.00    +0.011 A 
ATOM      5  C   UNL     1       0.059  -6.063  -6.544  0.00  0.00    +0.020 A 
ATOM      6  C   UNL     1      -0.804  -6.268  -7.607  0.00  0.00    +0.111 A 
ATOM      7  N   UNL     1      -2.026  -6.727  -7.415  0.00  0.00    -0.263 NA
ATOM      8  C   UNL     1      -2.480  -7.017  -6.214  0.00  0.00    +0.118 A 
ENDBRANCH   2   3
BRANCH   1  10
ATOM      9  N   UNL     1      -0.995  -4.198  -1.930  0.00  0.00    -0.310 N 
ATOM     10  C   UNL     1      -1.395  -4.970  -2.960  0.00  0.00    +0.258 C 
ATOM     11  O   UNL     1      -1.326  -4.549  -4.099  0.00  0.00    -0.269 OA
ATOM     12  H   UNL     1      -1.050  -4.534  -1.022  0.00  0.00    +0.149 HD
BRANCH   9  13
ATOM     13  C   UNL     1      -0.475  -2.852  -2.183  0.00  0.00    +0.109 C 
BRANCH  13  14
ATOM     14  C   UNL     1      -0.095  -2.194  -0.855  0.00  0.00    +0.052 C 
BRANCH  14  21
ATOM     15  C   UNL     1      -2.072   1.946  -0.829  0.00  0.00    +0.001 A 
ATOM     16  C   UNL     1      -1.190   2.992  -1.134  0.00  0.00    +0.002 A 
ATOM     17  C   UNL     1       0.116   2.789  -1.407  0.00  0.00    +0.026 A 
ATOM     18  C   UNL     1       0.656   1.473  -1.395  0.00  0.00    +0.043 A 
ATOM     19  N   UNL     1       1.867   1.024  -1.623  0.00  0.00    -0.380 N 
ATOM     20  C   UNL     1       1.860  -0.435  -1.473  0.00  0.00    +0.144 C 
ATOM     21  C   UNL     1       0.440  -0.809  -1.115  0.00  0.00    -0.040 C 
ATOM     22  C   UNL     1      -0.255   0.351  -1.076  0.00  0.00    -0.001 A 
ATOM     23  C   UNL     1      -1.661   0.658  -0.790  0.00  0.00    +0.010 A 
ATOM     24  H   UNL     1       2.638   1.567  -1.852  0.00  0.00    +0.160 HD
ENDBRANCH  14  21
ENDBRANCH  13  14
ENDBRANCH   9  13
ENDBRANCH   1  10
BRANCH   1  25
ATOM     25  N   UNL     1      -2.138  -6.750  -1.395  0.00  0.00    -0.277 N 
ATOM     26  C   UNL     1      -2.991  -6.074  -0.600  0.00  0.00    +0.255 C 
ATOM     27  O   UNL     1      -3.632  -5.141  -1.048  0.00  0.00    -0.269 OA
ATOM     28  H   UNL     1      -1.679  -7.534  -1.056  0.00  0.00    +0.155 HD
BRANCH  26  29
ATOM     29  C   UNL     1      -3.147  -6.461   0.805  0.00  0.00    +0.074 A 
ATOM     30  C   UNL     1      -3.964  -5.907   1.779  0.00  0.00    +0.021 A 
ATOM     31  C   UNL     1      -3.893  -6.492   3.021  0.00  0.00    +0.008 A 
ATOM     32  C   UNL     1      -3.054  -7.540   3.209  0.00  0.00    +0.046 A 
ATOM     33  S   UNL     1      -2.341  -7.771   1.706  0.00  0.00    -0.092 S 
ENDBRANCH  26  29
ENDBRANCH   1  25
TORSDOF 7
