REMARK  Name = ZINC12533004
REMARK  7 active torsions:
REMARK  status: ('A' for Active; 'I' for Inactive)
REMARK    1  A    between atoms: C_1  and  C_2
REMARK    2  A    between atoms: C_11  and  N_31
REMARK    3  A    between atoms: C_13  and  C_15
REMARK    4  A    between atoms: C_15  and  S_16
REMARK    5  A    between atoms: S_16  and  C_17
REMARK    6  A    between atoms: C_20  and  C_25
REMARK    7  A    between atoms: N_21  and  C_22
REMARK                            x       y       z     vdW  Elec       q    Type
REMARK                         _______ _______ _______ _____ _____    ______ ____
ROOT
ATOM      1  C   UNL     1      -5.154   3.959  -0.910  0.00  0.00    +0.008 C 
ATOM      2  C   UNL     1      -3.755   3.381  -1.130  0.00  0.00    -0.009 C 
ATOM      3  C   UNL     1      -2.713   4.297  -0.482  0.00  0.00    +0.008 C 
ATOM      4  C   UNL     1      -1.308   3.865  -0.903  0.00  0.00    +0.037 C 
ATOM      5  C   UNL     1      -1.143   2.375  -0.619  0.00  0.00    -0.025 A 
ATOM      6  C   UNL     1      -2.221   1.587  -0.427  0.00  0.00    -0.004 A 
ATOM      7  S   UNL     1      -1.564  -0.033  -0.134  0.00  0.00    -0.073 S 
ATOM      8  C   UNL     1       0.163   0.352  -0.262  0.00  0.00    +0.114 A 
ATOM      9  C   UNL     1       0.171   1.736  -0.529  0.00  0.00    +0.051 A 
ATOM     10  C   UNL     1       1.458   2.321  -0.681  0.00  0.00    +0.128 A 
ATOM     11  N   UNL     1       2.531   1.554  -0.566  0.00  0.00    -0.216 NA
ATOM     12  C   UNL     1       2.449   0.260  -0.315  0.00  0.00    +0.143 A 
ATOM     13  N   UNL     1       1.283  -0.338  -0.164  0.00  0.00    -0.224 NA
ATOM     14  C   UNL     1      -3.662   1.996  -0.463  0.00  0.00    +0.046 C 
ENDROOT
BRANCH  10  15
ATOM     15  N   UNL     1       1.587   3.672  -0.945  0.00  0.00    -0.343 N 
ATOM     16  H   UNL     1       2.412   4.133  -0.723  0.00  0.00    +0.144 HD
ATOM     17  H   UNL     1       0.854   4.159  -1.352  0.00  0.00    +0.144 HD
ENDBRANCH  10  15
BRANCH  12  18
ATOM     18  C   UNL     1       3.714  -0.550  -0.198  0.00  0.00    +0.153 C 
BRANCH  18  19
ATOM     19  S   UNL     1       4.168  -1.196  -1.827  0.00  0.00    -0.078 S 
BRANCH  19  20
ATOM     20  C   UNL     1       5.636  -2.076  -1.408  0.00  0.00    +0.193 A 
ATOM     21  N   UNL     1       6.171  -2.176  -0.210  0.00  0.00    -0.122 NA
ATOM     22  N   UNL     1       7.237  -2.892  -0.262  0.00  0.00    -0.128 NA
ATOM     23  C   UNL     1       7.449  -3.292  -1.494  0.00  0.00    +0.165 A 
ATOM     24  N   UNL     1       6.426  -2.787  -2.264  0.00  0.00    -0.299 N 
BRANCH  23  25
ATOM     25  C   UNL     1       8.570  -4.132  -1.964  0.00  0.00    +0.022 A 
ATOM     26  C   UNL     1       8.901  -4.196  -3.323  0.00  0.00    +0.031 A 
ATOM     27  C   UNL     1       9.958  -4.989  -3.717  0.00  0.00    +0.111 A 
ATOM     28  N   UNL     1      10.646  -5.689  -2.835  0.00  0.00    -0.263 NA
ATOM     29  C   UNL     1      10.364  -5.662  -1.546  0.00  0.00    +0.111 A 
ATOM     30  C   UNL     1       9.327  -4.892  -1.064  0.00  0.00    +0.031 A 
ENDBRANCH  23  25
BRANCH  24  31
ATOM     31  C   UNL     1       6.229  -2.971  -3.704  0.00  0.00    +0.091 C 
ATOM     32  C   UNL     1       4.827  -3.357  -4.181  0.00  0.00    +0.027 C 
ATOM     33  C   UNL     1       5.956  -4.391  -4.204  0.00  0.00    +0.027 C 
ENDBRANCH  24  31
ENDBRANCH  19  20
ENDBRANCH  18  19
ENDBRANCH  12  18
TORSDOF 6
