REMARK  Name = ZINC57853786
REMARK  10 active torsions:
REMARK  status: ('A' for Active; 'I' for Inactive)
REMARK    1  A    between atoms: C_1  and  C_2
REMARK    2  A    between atoms: N_5  and  C_11
REMARK    3  A    between atoms: C_7  and  C_10
REMARK    4  A    between atoms: C_14  and  N_18
REMARK    5  A    between atoms: N_21  and  C_22
REMARK    6  A    between atoms: C_22  and  C_23
REMARK    7  A    between atoms: C_23  and  C_25
REMARK    8  A    between atoms: C_23  and  N_30
REMARK    9  A    between atoms: N_30  and  C_31
REMARK   10  A    between atoms: N_30  and  C_32
REMARK                            x       y       z     vdW  Elec       q    Type
REMARK                         _______ _______ _______ _____ _____    ______ ____
ROOT
ATOM      1  N   UNL     1      -4.625  -5.686  -3.019  0.00  0.00    -0.269 N 
ATOM      2  C   UNL     1      -3.871  -6.435  -3.848  0.00  0.00    +0.304 C 
ATOM      3  O   UNL     1      -2.661  -6.447  -3.726  0.00  0.00    -0.253 OA
ATOM      4  N   UNL     1      -4.458  -7.172  -4.812  0.00  0.00    -0.300 N 
ATOM      5  H   UNL     1      -5.592  -5.733  -3.068  0.00  0.00    +0.156 HD
ATOM      6  H   UNL     1      -5.423  -7.163  -4.909  0.00  0.00    +0.150 HD
ENDROOT
BRANCH   1  10
ATOM      7  C   UNL     1      -2.795  -3.164  -0.244  0.00  0.00    +0.066 A 
ATOM      8  C   UNL     1      -2.210  -3.372  -1.486  0.00  0.00    +0.028 A 
ATOM      9  C   UNL     1      -2.816  -4.207  -2.404  0.00  0.00    +0.025 A 
ATOM     10  C   UNL     1      -4.010  -4.839  -2.086  0.00  0.00    +0.038 A 
ATOM     11  C   UNL     1      -4.597  -4.632  -0.845  0.00  0.00    +0.063 A 
ATOM     12  C   UNL     1      -3.988  -3.801   0.077  0.00  0.00    +0.146 A 
ATOM     13  F   UNL     1      -4.555  -3.604   1.287  0.00  0.00    -0.203 F 
BRANCH   7  17
ATOM     14  C   UNL     1      -1.465   1.389   0.947  0.00  0.00    +0.039 C 
ATOM     15  C   UNL     1      -1.179  -0.095   0.711  0.00  0.00    +0.133 C 
ATOM     16  C   UNL     1      -2.495  -0.880   0.727  0.00  0.00    +0.136 C 
ATOM     17  N   UNL     1      -2.180  -2.317   0.686  0.00  0.00    -0.323 N 
ATOM     18  C   UNL     1      -1.200  -2.837   1.653  0.00  0.00    +0.136 C 
ATOM     19  C   UNL     1       0.053  -1.957   1.593  0.00  0.00    +0.133 C 
ATOM     20  O   UNL     1      -0.324  -0.587   1.746  0.00  0.00    -0.371 OA
ATOM     21  C   UNL     1       0.746  -2.147   0.242  0.00  0.00    +0.039 C 
ENDBRANCH   7  17
ENDBRANCH   1  10
BRANCH   4  22
ATOM     22  C   UNL     1      -3.639  -7.986  -5.713  0.00  0.00    +0.095 C 
BRANCH  22  23
ATOM     23  C   UNL     1      -4.531  -8.614  -6.786  0.00  0.00    -0.014 C 
BRANCH  23  24
ATOM     24  C   UNL     1      -5.143  -7.526  -7.630  0.00  0.00    -0.022 A 
ATOM     25  C   UNL     1      -6.384  -6.987  -7.558  0.00  0.00    +0.009 A 
ATOM     26  C   UNL     1      -6.732  -5.986  -8.446  0.00  0.00    +0.008 A 
ATOM     27  C   UNL     1      -5.822  -5.574  -9.362  0.00  0.00    +0.045 A 
ATOM     28  S   UNL     1      -4.419  -6.609  -8.979  0.00  0.00    -0.103 S 
ENDBRANCH  23  24
BRANCH  23  29
ATOM     29  N   UNL     1      -3.724  -9.499  -7.637  0.00  0.00    +0.382 N 
ATOM     30  C   UNL     1      -3.213 -10.618  -6.834  0.00  0.00    -0.096 C 
ATOM     31  C   UNL     1      -4.556 -10.020  -8.729  0.00  0.00    -0.096 C 
ATOM     32  H   UNL     1      -2.949  -8.980  -8.022  0.00  0.00    -0.082 HD
ENDBRANCH  23  29
ENDBRANCH  22  23
ENDBRANCH   4  22
TORSDOF 6
