REMARK  Name = ZINC59294462
REMARK  10 active torsions:
REMARK  status: ('A' for Active; 'I' for Inactive)
REMARK    1  A    between atoms: C_1  and  C_2
REMARK    2  A    between atoms: N_5  and  C_8
REMARK    3  A    between atoms: C_11  and  C_17
REMARK    4  A    between atoms: C_13  and  N_14
REMARK    5  A    between atoms: N_19  and  C_20
REMARK    6  A    between atoms: C_21  and  C_34
REMARK    7  A    between atoms: C_26  and  C_30
REMARK    8  A    between atoms: C_30  and  C_31
REMARK    9  A    between atoms: C_30  and  C_32
REMARK   10  A    between atoms: C_30  and  C_33
REMARK                            x       y       z     vdW  Elec       q    Type
REMARK                         _______ _______ _______ _____ _____    ______ ____
ROOT
ATOM      1  C   UNL     1      -2.626  -6.340   4.717  0.00  0.00    +0.249 C 
ATOM      2  O   UNL     1      -3.130  -5.969   5.759  0.00  0.00    -0.270 OA
ATOM      3  N   UNL     1      -2.561  -7.655   4.430  0.00  0.00    -0.275 N 
ATOM      4  H   UNL     1      -2.158  -7.950   3.598  0.00  0.00    +0.156 HD
ENDROOT
BRANCH   3   5
ATOM      5  C   UNL     1      -3.069  -8.584   5.322  0.00  0.00    +0.085 A 
ATOM      6  C   UNL     1      -3.085  -9.965   5.198  0.00  0.00    +0.068 A 
ATOM      7  C   UNL     1      -3.682 -10.723   6.285  0.00  0.00    -0.023 A 
ATOM      8  C   UNL     1      -4.153  -9.961   7.295  0.00  0.00    -0.004 A 
ATOM      9  S   UNL     1      -3.802  -8.298   6.806  0.00  0.00    -0.077 S 
ATOM     10  C   UNL     1      -4.817 -10.441   8.549  0.00  0.00    +0.046 C 
ATOM     11  C   UNL     1      -4.547 -11.946   8.692  0.00  0.00    -0.000 C 
ATOM     12  C   UNL     1      -4.845 -12.632   7.356  0.00  0.00    +0.009 C 
ATOM     13  C   UNL     1      -3.788 -12.240   6.322  0.00  0.00    +0.037 C 
BRANCH   6  14
ATOM     14  C   UNL     1      -2.523 -10.633   4.020  0.00  0.00    +0.244 C 
ATOM     15  O   UNL     1      -1.351 -10.963   4.009  0.00  0.00    -0.270 OA
ATOM     16  N   UNL     1      -3.303 -10.880   2.950  0.00  0.00    -0.325 N 
ATOM     17  H   UNL     1      -4.236 -10.616   2.958  0.00  0.00    +0.145 HD
ATOM     18  H   UNL     1      -2.931 -11.322   2.170  0.00  0.00    +0.145 HD
ENDBRANCH   6  14
BRANCH  11  19
ATOM     19  C   UNL     1      -5.449 -12.527   9.783  0.00  0.00    -0.035 C 
ATOM     20  C   UNL     1      -6.915 -12.307   9.402  0.00  0.00    +0.011 C 
ATOM     21  C   UNL     1      -5.178 -14.026   9.924  0.00  0.00    +0.011 C 
ATOM     22  C   UNL     1      -5.157 -11.828  11.112  0.00  0.00    +0.011 C 
ENDBRANCH  11  19
ENDBRANCH   3   5
BRANCH   1  26
ATOM     23  C   UNL     1      -1.068  -3.490   1.981  0.00  0.00    +0.060 A 
ATOM     24  C   UNL     1      -1.000  -4.849   1.683  0.00  0.00    +0.026 A 
ATOM     25  C   UNL     1      -1.503  -5.775   2.568  0.00  0.00    +0.015 A 
ATOM     26  C   UNL     1      -2.084  -5.350   3.767  0.00  0.00    +0.039 A 
ATOM     27  C   UNL     1      -2.151  -3.985   4.063  0.00  0.00    +0.047 A 
ATOM     28  C   UNL     1      -1.640  -3.065   3.176  0.00  0.00    +0.148 A 
BRANCH  23  33
ATOM     29  C   UNL     1       1.514  -1.764  -2.546  0.00  0.00    +0.007 C 
ATOM     30  C   UNL     1       0.760  -1.596  -1.226  0.00  0.00    -0.011 C 
ATOM     31  C   UNL     1       1.556  -2.254  -0.097  0.00  0.00    +0.022 C 
ATOM     32  C   UNL     1       0.815  -2.054   1.229  0.00  0.00    +0.105 C 
ATOM     33  N   UNL     1      -0.558  -2.557   1.085  0.00  0.00    -0.328 N 
ATOM     34  C   UNL     1      -1.381  -2.057  -0.024  0.00  0.00    +0.105 C 
ATOM     35  C   UNL     1      -0.616  -2.257  -1.336  0.00  0.00    +0.022 C 
ENDBRANCH  23  33
BRANCH  28  36
ATOM     36  N   UNL     1      -1.705  -1.620   3.492  0.00  0.00    +0.058 N 
ATOM     37  O   UNL     1      -2.110  -1.254   4.571  0.00  0.00    -0.126 OA
ATOM     38  O   UNL     1      -1.354  -0.805   2.670  0.00  0.00    -0.126 OA
ENDBRANCH  28  36
ENDBRANCH   1  26
TORSDOF 6
