REMARK  Name = ZINC13059384
REMARK  7 active torsions:
REMARK  status: ('A' for Active; 'I' for Inactive)
REMARK    1  A    between atoms: C_1  and  C_2
REMARK    2  A    between atoms: C_9  and  C_11
REMARK    3  A    between atoms: C_12  and  C_37
REMARK    4  A    between atoms: C_16  and  C_18
REMARK    5  A    between atoms: C_21  and  O_24
REMARK    6  A    between atoms: O_24  and  C_25
REMARK    7  A    between atoms: C_29  and  C_32
REMARK                            x       y       z     vdW  Elec       q    Type
REMARK                         _______ _______ _______ _____ _____    ______ ____
ROOT
ATOM      1  C   UNL     1       5.707   3.693  -1.278  0.00  0.00    +0.043 C 
ATOM      2  C   UNL     1       6.710   2.799  -1.264  0.00  0.00    +0.014 C 
ATOM      3  N   UNL     1       7.088   2.199  -0.094  0.00  0.00    -0.321 N 
ATOM      4  C   UNL     1       6.758   2.755   1.113  0.00  0.00    +0.016 C 
ATOM      5  C   UNL     1       5.750   3.649   1.202  0.00  0.00    +0.024 C 
ATOM      6  C   UNL     1       4.968   4.053  -0.023  0.00  0.00    +0.090 C 
ATOM      7  C   UNL     1       5.400   4.227   2.434  0.00  0.00    +0.162 C 
ATOM      8  O   UNL     1       4.498   5.041   2.478  0.00  0.00    -0.292 OA
ATOM      9  C   UNL     1       6.122   3.857   3.701  0.00  0.00    +0.091 C 
ATOM     10  C   UNL     1       6.652   2.425   3.572  0.00  0.00    +0.068 C 
ATOM     11  C   UNL     1       7.546   2.348   2.332  0.00  0.00    +0.062 C 
ATOM     12  C   UNL     1       7.423   2.455  -2.546  0.00  0.00    +0.061 C 
ATOM     13  H   UNL     1       7.663   1.262  -0.117  0.00  0.00    +0.152 HD
ENDROOT
BRANCH   1  22
ATOM     14  C   UNL     1       3.227   7.901  -7.335  0.00  0.00    +0.045 C 
ATOM     15  C   UNL     1       3.498   7.199  -6.029  0.00  0.00    -0.032 A 
ATOM     16  C   UNL     1       2.804   7.560  -4.882  0.00  0.00    +0.008 A 
ATOM     17  C   UNL     1       3.080   6.887  -3.705  0.00  0.00    +0.044 A 
ATOM     18  C   UNL     1       4.045   5.886  -3.708  0.00  0.00    +0.125 A 
ATOM     19  N   UNL     1       4.685   5.571  -4.823  0.00  0.00    -0.240 NA
ATOM     20  C   UNL     1       4.439   6.192  -5.961  0.00  0.00    +0.116 A 
ATOM     21  N   UNL     1       4.336   5.204  -2.529  0.00  0.00    -0.267 N 
ATOM     22  C   UNL     1       5.341   4.306  -2.500  0.00  0.00    +0.248 C 
ATOM     23  O   UNL     1       5.933   4.023  -3.526  0.00  0.00    -0.270 OA
ATOM     24  H   UNL     1       3.746   5.399  -1.621  0.00  0.00    +0.157 HD
ENDBRANCH   1  22
BRANCH   6  25
ATOM     25  C   UNL     1       3.636   3.347  -0.014  0.00  0.00    -0.035 A 
ATOM     26  C   UNL     1       2.466   4.083   0.001  0.00  0.00    +0.008 A 
ATOM     27  C   UNL     1       1.244   3.439   0.009  0.00  0.00    +0.046 A 
ATOM     28  C   UNL     1       1.192   2.053   0.003  0.00  0.00    +0.120 A 
ATOM     29  C   UNL     1       2.368   1.317  -0.006  0.00  0.00    +0.046 A 
ATOM     30  C   UNL     1       3.587   1.966  -0.020  0.00  0.00    +0.008 A 
BRANCH  28  31
ATOM     31  O   UNL     1      -0.009   1.416   0.011  0.00  0.00    -0.495 OA
ATOM     32  C   UNL     1       0.013  -0.013   0.004  0.00  0.00    +0.277 C 
ENDBRANCH  28  31
ENDBRANCH   6  25
BRANCH  10  33
ATOM     33  C   UNL     1       7.454   2.069   4.797  0.00  0.00    +0.109 A 
ATOM     34  C   UNL     1       7.194   1.052   5.639  0.00  0.00    +0.045 A 
ATOM     35  C   UNL     1       8.192   1.084   6.640  0.00  0.00    +0.041 A 
ATOM     36  C   UNL     1       8.997   2.124   6.355  0.00  0.00    +0.195 A 
ATOM     37  O   UNL     1       8.545   2.716   5.238  0.00  0.00    -0.468 OA
ENDBRANCH  10  33
TORSDOF 4
