REMARK  Name = ZINC35456497
REMARK  7 active torsions:
REMARK  status: ('A' for Active; 'I' for Inactive)
REMARK    1  A    between atoms: C_1  and  C_2
REMARK    2  A    between atoms: C_2  and  C_3
REMARK    3  A    between atoms: C_3  and  C_4
REMARK    4  A    between atoms: C_5  and  C_17
REMARK    5  A    between atoms: N_7  and  C_9
REMARK    6  A    between atoms: N_21  and  C_25
REMARK    7  A    between atoms: C_25  and  C_26
REMARK                            x       y       z     vdW  Elec       q    Type
REMARK                         _______ _______ _______ _____ _____    ______ ____
ROOT
ATOM      1  C   UNL     1       2.952  -2.369  -0.006  0.00  0.00    +0.043 C 
ATOM      2  C   UNL     1       3.273  -2.888   1.210  0.00  0.00    +0.099 C 
ATOM      3  C   UNL     1       4.396  -2.554   2.013  0.00  0.00    +0.269 C 
ATOM      4  O   UNL     1       5.263  -1.741   1.744  0.00  0.00    -0.268 OA
ATOM      5  N   UNL     1       4.321  -3.304   3.129  0.00  0.00    -0.216 N 
ATOM      6  C   UNL     1       3.228  -4.084   3.077  0.00  0.00    +0.313 C 
ATOM      7  O   UNL     1       2.891  -4.872   3.940  0.00  0.00    -0.252 OA
ATOM      8  N   UNL     1       2.559  -3.859   1.931  0.00  0.00    -0.265 N 
ATOM      9  H   UNL     1       1.736  -4.290   1.653  0.00  0.00    +0.157 HD
ENDROOT
BRANCH   1  11
ATOM     10  C   UNL     1       0.739  -2.004  -1.265  0.00  0.00    +0.074 A 
ATOM     11  C   UNL     1       1.746  -2.824  -0.701  0.00  0.00    +0.066 A 
ATOM     12  C   UNL     1       1.371  -4.146  -0.932  0.00  0.00    +0.281 A 
ATOM     13  N   UNL     1       0.199  -4.115  -1.601  0.00  0.00    -0.196 N 
ATOM     14  N   UNL     1      -0.171  -2.778  -1.788  0.00  0.00    -0.167 NA
ATOM     15  O   UNL     1       2.054  -5.253  -0.557  0.00  0.00    -0.265 OA
BRANCH  13  16
ATOM     16  C   UNL     1      -0.529  -5.233  -2.032  0.00  0.00    +0.069 A 
ATOM     17  C   UNL     1       0.138  -6.375  -2.455  0.00  0.00    +0.029 A 
ATOM     18  C   UNL     1      -0.581  -7.476  -2.878  0.00  0.00    +0.022 A 
ATOM     19  C   UNL     1      -1.964  -7.441  -2.881  0.00  0.00    +0.041 A 
ATOM     20  C   UNL     1      -2.631  -6.303  -2.461  0.00  0.00    +0.022 A 
ATOM     21  C   UNL     1      -1.917  -5.202  -2.030  0.00  0.00    +0.029 A 
ATOM     22 CL   UNL     1      -2.865  -8.826  -3.414  0.00  0.00    -0.084 Cl
ENDBRANCH  13  16
BRANCH  10  23
ATOM     23  C   UNL     1       0.718  -0.497  -1.257  0.00  0.00    +0.058 C 
BRANCH  23  25
ATOM     24  C   UNL     1      -0.019   1.526   0.010  0.00  0.00    +0.004 C 
ATOM     25  C   UNL     1       0.002  -0.004   0.002  0.00  0.00    +0.003 C 
ENDBRANCH  23  25
ENDBRANCH  10  23
ENDBRANCH   1  11
BRANCH   5  26
ATOM     26  C   UNL     1       5.285  -3.275   4.232  0.00  0.00    +0.156 C 
BRANCH  26  27
ATOM     27  C   UNL     1       4.858  -2.245   5.245  0.00  0.00    +0.008 A 
ATOM     28  C   UNL     1       5.451  -0.996   5.253  0.00  0.00    +0.008 A 
ATOM     29  C   UNL     1       5.061  -0.050   6.182  0.00  0.00    +0.003 A 
ATOM     30  C   UNL     1       4.076  -0.351   7.105  0.00  0.00    +0.041 A 
ATOM     31  C   UNL     1       3.481  -1.600   7.100  0.00  0.00    +0.159 A 
ATOM     32  C   UNL     1       3.869  -2.547   6.164  0.00  0.00    +0.163 A 
ATOM     33  F   UNL     1       3.285  -3.765   6.153  0.00  0.00    -0.202 F 
ATOM     34  F   UNL     1       2.519  -1.894   8.002  0.00  0.00    -0.202 F 
ENDBRANCH  26  27
ENDBRANCH   5  26
TORSDOF 6
