REMARK  Name = ZINC14857020
REMARK  7 active torsions:
REMARK  status: ('A' for Active; 'I' for Inactive)
REMARK    1  A    between atoms: C_1  and  C_2
REMARK    2  A    between atoms: C_2  and  C_3
REMARK    3  A    between atoms: C_6  and  C_9
REMARK    4  A    between atoms: C_15  and  C_17
REMARK    5  A    between atoms: C_17  and  N_18
REMARK    6  A    between atoms: C_21  and  C_25
REMARK    7  A    between atoms: C_21  and  C_26
REMARK                            x       y       z     vdW  Elec       q    Type
REMARK                         _______ _______ _______ _____ _____    ______ ____
ROOT
ATOM      1  C   UNL     1       1.107   2.019   0.002  0.00  0.00    +0.080 A 
ATOM      2  C   UNL     1       2.307   1.365  -0.013  0.00  0.00    +0.076 A 
ATOM      3  S   UNL     1       1.758  -0.336  -0.017  0.00  0.00    -0.060 S 
ATOM      4  C   UNL     1       0.002  -0.004   0.002  0.00  0.00    +0.165 A 
ATOM      5  N   UNL     1      -0.016   1.316   0.009  0.00  0.00    -0.225 NA
ATOM      6  N   UNL     1      -1.062  -0.898   0.007  0.00  0.00    -0.263 N 
ATOM      7  C   UNL     1      -0.827  -2.225  -0.002  0.00  0.00    +0.237 C 
ATOM      8  O   UNL     1       0.313  -2.639  -0.015  0.00  0.00    -0.274 OA
ATOM      9  H   UNL     1      -1.974  -0.567   0.018  0.00  0.00    +0.157 HD
ENDROOT
BRANCH   1  13
ATOM     10  C   UNL     1       0.977   6.269   0.025  0.00  0.00    -0.048 A 
ATOM     11  C   UNL     1      -0.201   5.543   0.033  0.00  0.00    +0.004 A 
ATOM     12  C   UNL     1      -0.165   4.164   0.026  0.00  0.00    +0.010 A 
ATOM     13  C   UNL     1       1.061   3.501   0.010  0.00  0.00    +0.001 A 
ATOM     14  C   UNL     1       2.245   4.237   0.008  0.00  0.00    +0.010 A 
ATOM     15  C   UNL     1       2.197   5.617   0.011  0.00  0.00    +0.004 A 
BRANCH  10  17
ATOM     16  C   UNL     1       0.929   8.277   1.479  0.00  0.00    +0.009 C 
ATOM     17  C   UNL     1       0.931   7.775   0.034  0.00  0.00    +0.032 C 
ENDBRANCH  10  17
ENDBRANCH   1  13
BRANCH   7  18
ATOM     18  C   UNL     1      -1.981  -3.194   0.004  0.00  0.00    +0.214 C 
BRANCH  18  19
ATOM     19  N   UNL     1      -1.466  -4.566  -0.009  0.00  0.00    -0.215 N 
ATOM     20  C   UNL     1      -1.190  -5.281   1.100  0.00  0.00    +0.251 C 
ATOM     21  O   UNL     1      -1.314  -4.923   2.252  0.00  0.00    -0.272 OA
ATOM     22  C   UNL     1      -0.691  -6.625   0.607  0.00  0.00    +0.135 C 
ATOM     23  N   UNL     1      -0.749  -6.499  -0.859  0.00  0.00    -0.281 N 
ATOM     24  C   UNL     1      -1.219  -5.266  -1.121  0.00  0.00    +0.310 C 
ATOM     25  O   UNL     1      -1.395  -4.834  -2.244  0.00  0.00    -0.252 OA
ATOM     26  C   UNL     1      -1.609  -7.750   1.088  0.00  0.00    +0.047 C 
ATOM     27  H   UNL     1      -0.501  -7.175  -1.509  0.00  0.00    +0.152 HD
BRANCH  22  28
ATOM     28  C   UNL     1       0.726  -6.863   1.063  0.00  0.00    -0.015 A 
ATOM     29  C   UNL     1       1.174  -6.307   2.246  0.00  0.00    +0.009 A 
ATOM     30  C   UNL     1       2.471  -6.529   2.667  0.00  0.00    +0.039 A 
ATOM     31  C   UNL     1       3.326  -7.301   1.898  0.00  0.00    +0.123 A 
ATOM     32  C   UNL     1       2.877  -7.853   0.710  0.00  0.00    +0.039 A 
ATOM     33  C   UNL     1       1.578  -7.634   0.294  0.00  0.00    +0.009 A 
ATOM     34  F   UNL     1       4.595  -7.515   2.307  0.00  0.00    -0.205 F 
ENDBRANCH  22  28
ENDBRANCH  18  19
ENDBRANCH   7  18
TORSDOF 5
