REMARK  Name = ZINC22405240
REMARK  8 active torsions:
REMARK  status: ('A' for Active; 'I' for Inactive)
REMARK    1  A    between atoms: C_1  and  C_2
REMARK    2  A    between atoms: C_8  and  N_10
REMARK    3  A    between atoms: N_10  and  S_11
REMARK    4  A    between atoms: S_11  and  C_14
REMARK    5  A    between atoms: C_16  and  C_22
REMARK    6  A    between atoms: C_19  and  O_20
REMARK    7  A    between atoms: O_20  and  C_21
REMARK    8  A    between atoms: N_24  and  C_25
REMARK                            x       y       z     vdW  Elec       q    Type
REMARK                         _______ _______ _______ _____ _____    ______ ____
ROOT
ATOM      1  C   UNL     1       4.815   0.526   0.124  0.00  0.00    +0.147 A 
ATOM      2  C   UNL     1       3.684   1.307   0.036  0.00  0.00    +0.045 A 
ATOM      3  C   UNL     1       2.421   0.710   0.069  0.00  0.00    +0.039 A 
ATOM      4  C   UNL     1       2.311  -0.679   0.179  0.00  0.00    +0.017 A 
ATOM      5  C   UNL     1       3.447  -1.453   0.260  0.00  0.00    +0.048 A 
ATOM      6  C   UNL     1       4.701  -0.854   0.234  0.00  0.00    +0.146 A 
ENDROOT
BRANCH   3   7
ATOM      7  C   UNL     1       1.206   1.544  -0.019  0.00  0.00    +0.248 C 
ATOM      8  O   UNL     1       1.304   2.752  -0.115  0.00  0.00    -0.270 OA
ATOM      9  N   UNL     1      -0.011   0.966   0.007  0.00  0.00    -0.281 N 
ATOM     10  H   UNL     1      -0.099  -0.131   0.024  0.00  0.00    +0.155 HD
BRANCH   9  11
ATOM     11  C   UNL     1      -1.163   1.760   0.014  0.00  0.00    +0.048 A 
ATOM     12  C   UNL     1      -1.185   2.959  -0.687  0.00  0.00    +0.024 A 
ATOM     13  C   UNL     1      -2.323   3.741  -0.679  0.00  0.00    +0.002 A 
ATOM     14  C   UNL     1      -3.441   3.331   0.025  0.00  0.00    +0.001 A 
ATOM     15  C   UNL     1      -3.423   2.138   0.723  0.00  0.00    +0.017 A 
ATOM     16  C   UNL     1      -2.289   1.349   0.716  0.00  0.00    +0.039 A 
ATOM     17 BR   UNL     1      -2.267  -0.286   1.666  0.00  0.00    -0.048 Br
ENDBRANCH   9  11
ENDBRANCH   3   7
BRANCH   1  18
ATOM     18  S   UNL     1       6.408   1.278   0.091  0.00  0.00    +0.062 S 
ATOM     19  O   UNL     1       7.175   0.562  -0.867  0.00  0.00    -0.153 OA
ATOM     20  O   UNL     1       6.194   2.680   0.001  0.00  0.00    -0.153 OA
BRANCH  18  21
ATOM     21  N   UNL     1       7.112   1.000   1.564  0.00  0.00    -0.187 NA
ATOM     22  H   UNL     1       7.178   1.823   2.292  0.00  0.00    +0.148 HD
BRANCH  21  29
ATOM     23  C   UNL     1       9.870   0.207   1.948  0.00  0.00    +0.009 C 
ATOM     24  C   UNL     1       8.729  -0.359   2.795  0.00  0.00    +0.005 C 
ATOM     25  C   UNL     1       9.071  -1.788   3.222  0.00  0.00    +0.005 C 
ATOM     26  C   UNL     1       7.930  -2.354   4.070  0.00  0.00    +0.000 C 
ATOM     27  C   UNL     1       6.639  -2.363   3.247  0.00  0.00    +0.002 C 
ATOM     28  C   UNL     1       6.298  -0.934   2.820  0.00  0.00    +0.020 C 
ATOM     29  C   UNL     1       7.439  -0.368   1.973  0.00  0.00    +0.079 C 
ENDBRANCH  21  29
ENDBRANCH  18  21
ENDBRANCH   1  18
BRANCH   6  30
ATOM     30  O   UNL     1       5.819  -1.621   0.314  0.00  0.00    -0.493 OA
ATOM     31  C   UNL     1       5.630  -3.033   0.424  0.00  0.00    +0.277 C 
ENDBRANCH   6  30
TORSDOF 6
