REMARK  Name = ZINC51634160
REMARK  3 active torsions:
REMARK  status: ('A' for Active; 'I' for Inactive)
REMARK    1  A    between atoms: C_9  and  N_12
REMARK    2  A    between atoms: N_12  and  S_13
REMARK    3  A    between atoms: S_13  and  C_16
REMARK                            x       y       z     vdW  Elec       q    Type
REMARK                         _______ _______ _______ _____ _____    ______ ____
ROOT
ATOM      1  N   UNL     1       4.868  -2.832  -0.260  0.00  0.00    -0.187 NA
ATOM      2  H   UNL     1       5.082  -3.202   0.611  0.00  0.00    +0.148 HD
ENDROOT
BRANCH   1  11
ATOM      3  C   UNL     1      -0.017   1.375   0.010  0.00  0.00    +0.000 A 
ATOM      4  C   UNL     1       1.174   2.078   0.002  0.00  0.00    +0.000 A 
ATOM      5  C   UNL     1       2.372   1.395  -0.010  0.00  0.00    +0.004 A 
ATOM      6  C   UNL     1       2.393   0.006  -0.017  0.00  0.00    -0.043 A 
ATOM      7  C   UNL     1       1.208  -0.694  -0.015  0.00  0.00    -0.044 A 
ATOM      8  C   UNL     1       0.002  -0.004   0.002  0.00  0.00    +0.004 A 
ATOM      9  C   UNL     1       1.155  -2.199  -0.038  0.00  0.00    +0.037 C 
ATOM     10  C   UNL     1       2.501  -2.790   0.375  0.00  0.00    +0.025 C 
ATOM     11  C   UNL     1       3.599  -2.130  -0.467  0.00  0.00    +0.081 C 
ATOM     12  C   UNL     1       3.737  -0.675  -0.023  0.00  0.00    +0.055 C 
ENDBRANCH   1  11
BRANCH   1  13
ATOM     13  S   UNL     1       5.938  -2.994  -1.514  0.00  0.00    +0.059 S 
ATOM     14  O   UNL     1       7.067  -3.687  -0.998  0.00  0.00    -0.153 OA
ATOM     15  O   UNL     1       5.193  -3.473  -2.625  0.00  0.00    -0.153 OA
BRANCH  13  16
ATOM     16  C   UNL     1       6.492  -1.376  -1.939  0.00  0.00    +0.110 A 
ATOM     17  C   UNL     1       5.813  -0.619  -2.885  0.00  0.00    +0.048 A 
ATOM     18  C   UNL     1       6.272   0.645  -3.196  0.00  0.00    +0.115 A 
ATOM     19  N   UNL     1       7.343   1.140  -2.605  0.00  0.00    -0.241 NA
ATOM     20  C   UNL     1       8.017   0.450  -1.698  0.00  0.00    +0.118 A 
ATOM     21  C   UNL     1       7.608  -0.829  -1.333  0.00  0.00    +0.071 A 
ATOM     22  N   UNL     1       9.140   1.010  -1.100  0.00  0.00    -0.343 N 
ATOM     23  H   UNL     1       9.427   1.903  -1.349  0.00  0.00    +0.144 HD
ATOM     24  H   UNL     1       9.637   0.509  -0.435  0.00  0.00    +0.144 HD
ENDBRANCH  13  16
ENDBRANCH   1  13
TORSDOF 3
