REMARK  Name = ZINC13181514
REMARK  8 active torsions:
REMARK  status: ('A' for Active; 'I' for Inactive)
REMARK    1  A    between atoms: C_1  and  C_2
REMARK    2  A    between atoms: C_2  and  C_4
REMARK    3  A    between atoms: C_2  and  N_14
REMARK    4  A    between atoms: N_14  and  C_15
REMARK    5  A    between atoms: C_18  and  S_24
REMARK    6  A    between atoms: C_20  and  N_21
REMARK    7  A    between atoms: S_24  and  N_27
REMARK    8  A    between atoms: C_30  and  C_33
REMARK                            x       y       z     vdW  Elec       q    Type
REMARK                         _______ _______ _______ _____ _____    ______ ____
ROOT
ATOM      1  C   UNL     1       1.206   3.077   0.033  0.00  0.00    +0.058 A 
ATOM      2  C   UNL     1       0.046   3.843   0.029  0.00  0.00    +0.027 A 
ATOM      3  C   UNL     1      -1.188   3.223   0.012  0.00  0.00    +0.030 A 
ATOM      4  C   UNL     1      -1.270   1.843  -0.008  0.00  0.00    +0.108 A 
ATOM      5  C   UNL     1      -0.118   1.078   0.002  0.00  0.00    +0.063 A 
ATOM      6  C   UNL     1       1.119   1.691   0.019  0.00  0.00    +0.149 A 
ENDROOT
BRANCH   6   7
ATOM      7  N   UNL     1       2.352   0.872   0.024  0.00  0.00    +0.058 N 
ATOM      8  O   UNL     1       2.277  -0.340   0.124  0.00  0.00    -0.126 OA
ATOM      9  O   UNL     1       3.441   1.409  -0.072  0.00  0.00    -0.126 OA
ENDBRANCH   6   7
BRANCH   4  10
ATOM     10  S   UNL     1      -2.847   1.057  -0.038  0.00  0.00    +0.061 S 
ATOM     11  O   UNL     1      -3.758   1.995  -0.594  0.00  0.00    -0.153 OA
ATOM     12  O   UNL     1      -2.647  -0.234  -0.599  0.00  0.00    -0.153 OA
BRANCH  10  13
ATOM     13  N   UNL     1      -3.308   0.823   1.535  0.00  0.00    -0.177 NA
ATOM     14  C   UNL     1      -2.958  -0.416   2.242  0.00  0.00    +0.110 C 
ATOM     15  C   UNL     1      -4.229  -1.035   2.821  0.00  0.00    +0.032 C 
ATOM     16  C   UNL     1      -4.949   0.001   3.687  0.00  0.00    +0.105 C 
ATOM     17  C   UNL     1      -5.344   1.203   2.825  0.00  0.00    +0.032 C 
ATOM     18  C   UNL     1      -4.081   1.849   2.248  0.00  0.00    +0.110 C 
BRANCH  16  19
ATOM     19  C   UNL     1      -6.187  -0.617   4.284  0.00  0.00    +0.359 C 
ATOM     20  O   UNL     1      -7.273  -0.145   4.045  0.00  0.00    -0.246 OA
ATOM     21  O   UNL     1      -6.083  -1.692   5.081  0.00  0.00    -0.246 OA
ENDBRANCH  16  19
ENDBRANCH  10  13
ENDBRANCH   4  10
BRANCH   1  22
ATOM     22  N   UNL     1       2.456   3.701   0.051  0.00  0.00    -0.336 N 
ATOM     23  H   UNL     1       3.264   3.169  -0.027  0.00  0.00    +0.147 HD
BRANCH  22  25
ATOM     24  C   UNL     1       2.501   5.534   1.669  0.00  0.00    +0.033 C 
ATOM     25  C   UNL     1       2.546   5.156   0.187  0.00  0.00    +0.098 C 
BRANCH  25  26
ATOM     26  C   UNL     1       3.842   5.637  -0.414  0.00  0.00    -0.027 A 
ATOM     27  C   UNL     1       5.004   4.911  -0.230  0.00  0.00    +0.006 A 
ATOM     28  C   UNL     1       6.186   5.359  -0.782  0.00  0.00    +0.004 A 
ATOM     29  C   UNL     1       6.219   6.533  -1.523  0.00  0.00    -0.044 A 
ATOM     30  C   UNL     1       5.061   7.255  -1.709  0.00  0.00    -0.044 A 
ATOM     31  C   UNL     1       3.871   6.801  -1.155  0.00  0.00    +0.009 A 
ATOM     32  C   UNL     1       5.021   8.531  -2.508  0.00  0.00    +0.035 C 
ATOM     33  C   UNL     1       6.427   9.105  -2.675  0.00  0.00    +0.005 C 
ATOM     34  C   UNL     1       7.343   7.994  -3.203  0.00  0.00    +0.005 C 
ATOM     35  C   UNL     1       7.545   6.967  -2.091  0.00  0.00    +0.035 C 
ENDBRANCH  25  26
ENDBRANCH  22  25
ENDBRANCH   1  22
TORSDOF 7
