REMARK  Name = ZINC21565977
REMARK  8 active torsions:
REMARK  status: ('A' for Active; 'I' for Inactive)
REMARK    1  A    between atoms: C_1  and  C_2
REMARK    2  A    between atoms: C_5  and  N_9
REMARK    3  A    between atoms: C_6  and  C_8
REMARK    4  A    between atoms: C_10  and  S_14
REMARK    5  A    between atoms: S_14  and  C_15
REMARK    6  A    between atoms: C_15  and  C_17
REMARK    7  A    between atoms: C_15  and  C_18
REMARK    8  A    between atoms: C_24  and  C_27
REMARK                            x       y       z     vdW  Elec       q    Type
REMARK                         _______ _______ _______ _____ _____    ______ ____
ROOT
ATOM      1  C   UNL     1      -0.993  -0.507   0.360  0.00  0.00    +0.137 C 
ATOM      2  C   UNL     1      -1.079   1.017   0.259  0.00  0.00    +0.029 C 
ENDROOT
BRANCH   1   3
ATOM      3  C   UNL     1      -0.500  -1.071  -0.947  0.00  0.00    +0.229 C 
ATOM      4  O   UNL     1       0.664  -1.388  -1.071  0.00  0.00    -0.274 OA
ATOM      5  N   UNL     1      -1.352  -1.222  -1.980  0.00  0.00    -0.300 N 
ATOM      6  C   UNL     1      -2.767  -0.848  -1.844  0.00  0.00    +0.108 C 
ATOM      7  C   UNL     1      -3.637  -2.037  -2.245  0.00  0.00    +0.020 C 
ATOM      8  C   UNL     1      -3.242  -2.506  -3.648  0.00  0.00    +0.016 C 
ATOM      9  C   UNL     1      -1.779  -2.954  -3.644  0.00  0.00    +0.092 C 
ATOM     10  C   UNL     1      -0.887  -1.770  -3.261  0.00  0.00    +0.120 C 
BRANCH   9  11
ATOM     11  C   UNL     1      -1.400  -3.446  -5.018  0.00  0.00    +0.215 C 
ATOM     12  O   UNL     1      -0.505  -2.904  -5.630  0.00  0.00    -0.276 OA
ATOM     13  N   UNL     1      -2.057  -4.489  -5.565  0.00  0.00    -0.329 N 
ATOM     14  H   UNL     1      -1.780  -4.848  -6.567  0.00  0.00    +0.145 HD
ATOM     15  H   UNL     1      -2.869  -4.981  -5.009  0.00  0.00    +0.145 HD
ENDBRANCH   9  11
ENDBRANCH   1   3
BRANCH   1  16
ATOM     16  S   UNL     1       0.157  -0.959   1.684  0.00  0.00    -0.072 S 
BRANCH  16  18
ATOM     17  N   UNL     1      -0.319  -0.384   4.373  0.00  0.00    -0.187 N 
ATOM     18  C   UNL     1      -0.715  -0.324   3.077  0.00  0.00    +0.215 A 
ATOM     19  N   UNL     1      -1.877   0.293   3.057  0.00  0.00    -0.101 NA
ATOM     20  N   UNL     1      -2.230   0.626   4.246  0.00  0.00    -0.022 NA
ATOM     21  N   UNL     1      -1.339   0.255   5.100  0.00  0.00    -0.038 NA
BRANCH  17  26
ATOM     22  C   UNL     1       4.440  -2.705   6.418  0.00  0.00    +0.044 C 
ATOM     23  C   UNL     1       3.177  -2.088   5.875  0.00  0.00    -0.050 A 
ATOM     24  C   UNL     1       2.398  -2.792   4.974  0.00  0.00    +0.005 A 
ATOM     25  C   UNL     1       1.237  -2.232   4.479  0.00  0.00    +0.028 A 
ATOM     26  C   UNL     1       0.857  -0.957   4.878  0.00  0.00    +0.073 A 
ATOM     27  C   UNL     1       1.641  -0.254   5.783  0.00  0.00    -0.025 A 
ATOM     28  C   UNL     1       2.798  -0.821   6.279  0.00  0.00    +0.008 A 
ATOM     29  C   UNL     1       1.229   1.127   6.223  0.00  0.00    +0.046 C 
ENDBRANCH  17  26
ENDBRANCH  16  18
ENDBRANCH   1  16
TORSDOF 5
