REMARK  Name = ZINC21262168
REMARK  12 active torsions:
REMARK  status: ('A' for Active; 'I' for Inactive)
REMARK    1  A    between atoms: C_1  and  C_2
REMARK    2  A    between atoms: C_2  and  C_31
REMARK    3  A    between atoms: C_4  and  N_10
REMARK    4  A    between atoms: C_6  and  C_8
REMARK    5  A    between atoms: C_6  and  C_9
REMARK    6  A    between atoms: N_10  and  C_11
REMARK    7  A    between atoms: N_10  and  C_20
REMARK    8  A    between atoms: C_11  and  C_12
REMARK    9  A    between atoms: C_15  and  O_18
REMARK   10  A    between atoms: O_18  and  C_19
REMARK   11  A    between atoms: C_20  and  N_22
REMARK   12  A    between atoms: N_22  and  C_23
REMARK                            x       y       z     vdW  Elec       q    Type
REMARK                         _______ _______ _______ _____ _____    ______ ____
ROOT
ATOM      1  N   UNL     1       0.374   5.050  -1.217  0.00  0.00    -0.305 N 
ENDROOT
BRANCH   1   5
ATOM      2  C   UNL     1      -0.968   0.985  -2.261  0.00  0.00    -0.010 C 
ATOM      3  C   UNL     1      -1.054   1.553  -0.839  0.00  0.00    -0.072 C 
ATOM      4  C   UNL     1      -1.034   3.078  -0.897  0.00  0.00    +0.009 C 
ATOM      5  C   UNL     1       0.380   3.581  -1.189  0.00  0.00    +0.073 C 
ATOM      6  C   UNL     1       1.306   3.102  -0.072  0.00  0.00    +0.009 C 
ATOM      7  C   UNL     1       1.315   1.577  -0.007  0.00  0.00    -0.072 C 
ATOM      8  N   UNL     1      -0.014   1.005   0.006  0.00  0.00    +0.386 N 
ATOM      9  C   UNL     1       2.029   1.171   1.302  0.00  0.00    -0.010 C 
ATOM     10  C   UNL     1       2.147   1.020  -1.169  0.00  0.00    -0.010 C 
ATOM     11  C   UNL     1      -2.422   1.128  -0.259  0.00  0.00    -0.010 C 
ATOM     12  H   UNL     1      -0.322   1.079   1.060  0.00  0.00    -0.084 HD
ATOM     13  H   UNL     1       0.151  -0.051  -0.254  0.00  0.00    -0.084 HD
ENDBRANCH   1   5
BRANCH   1  14
ATOM     14  C   UNL     1      -0.126   5.741  -0.174  0.00  0.00    +0.134 C 
ATOM     15  S   UNL     1      -0.250   7.447  -0.259  0.00  0.00    -0.019 S 
BRANCH  14  16
ATOM     16  N   UNL     1      -0.530   5.090   0.935  0.00  0.00    -0.324 N 
ATOM     17  H   UNL     1      -0.373   4.005   1.024  0.00  0.00    +0.148 HD
BRANCH  16  18
ATOM     18  C   UNL     1      -1.176   5.829   2.023  0.00  0.00    +0.072 C 
ATOM     19  C   UNL     1      -0.107   6.426   2.940  0.00  0.00    +0.022 C 
ATOM     20  C   UNL     1      -0.738   7.504   3.823  0.00  0.00    +0.002 C 
ATOM     21  C   UNL     1      -1.659   8.384   2.976  0.00  0.00    +0.000 C 
ATOM     22  C   UNL     1      -3.110   8.171   3.413  0.00  0.00    +0.000 C 
ATOM     23  C   UNL     1      -3.616   6.835   2.864  0.00  0.00    +0.000 C 
ATOM     24  C   UNL     1      -3.030   5.690   3.692  0.00  0.00    +0.002 C 
ATOM     25  C   UNL     1      -2.064   4.877   2.827  0.00  0.00    +0.022 C 
ENDBRANCH  16  18
ENDBRANCH  14  16
ENDBRANCH   1  14
BRANCH   1  26
ATOM     26  C   UNL     1       0.913   5.762  -2.378  0.00  0.00    +0.142 C 
BRANCH  26  27
ATOM     27  C   UNL     1      -0.187   5.990  -3.382  0.00  0.00    -0.030 A 
ATOM     28  C   UNL     1      -0.427   5.051  -4.368  0.00  0.00    +0.009 A 
ATOM     29  C   UNL     1      -1.439   5.255  -5.286  0.00  0.00    +0.046 A 
ATOM     30  C   UNL     1      -2.206   6.409  -5.226  0.00  0.00    +0.120 A 
ATOM     31  C   UNL     1      -1.959   7.353  -4.239  0.00  0.00    +0.046 A 
ATOM     32  C   UNL     1      -0.950   7.142  -3.320  0.00  0.00    +0.009 A 
BRANCH  30  33
ATOM     33  O   UNL     1      -3.198   6.615  -6.132  0.00  0.00    -0.495 OA
ATOM     34  C   UNL     1      -3.396   5.601  -7.119  0.00  0.00    +0.277 C 
ENDBRANCH  30  33
ENDBRANCH  26  27
ENDBRANCH   1  26
TORSDOF 7
