REMARK  Name = ZINC66086182
REMARK  11 active torsions:
REMARK  status: ('A' for Active; 'I' for Inactive)
REMARK    1  A    between atoms: C_1  and  C_2
REMARK    2  A    between atoms: C_2  and  N_3
REMARK    3  A    between atoms: N_3  and  C_4
REMARK    4  A    between atoms: C_10  and  C_12
REMARK    5  A    between atoms: C_15  and  N_18
REMARK    6  A    between atoms: C_19  and  C_21
REMARK    7  A    between atoms: C_21  and  N_22
REMARK    8  A    between atoms: N_22  and  C_23
REMARK    9  A    between atoms: C_27  and  C_29
REMARK   10  A    between atoms: N_31  and  C_32
REMARK   11  A    between atoms: C_32  and  C_33
REMARK                            x       y       z     vdW  Elec       q    Type
REMARK                         _______ _______ _______ _____ _____    ______ ____
ROOT
ATOM      1  N   UNL     1      -5.634   0.528  -2.741  0.00  0.00    -0.284 N 
ATOM      2  C   UNL     1      -6.298   0.142  -3.849  0.00  0.00    +0.234 C 
ATOM      3  O   UNL     1      -5.732  -0.516  -4.697  0.00  0.00    -0.274 OA
ATOM      4  H   UNL     1      -6.105   0.988  -2.029  0.00  0.00    +0.155 HD
ENDROOT
BRANCH   1   8
ATOM      5  C   UNL     1      -1.559  -0.254  -2.376  0.00  0.00    +0.037 A 
ATOM      6  C   UNL     1      -2.107   0.034  -3.628  0.00  0.00    +0.015 A 
ATOM      7  C   UNL     1      -3.454   0.292  -3.746  0.00  0.00    +0.024 A 
ATOM      8  C   UNL     1      -4.270   0.266  -2.619  0.00  0.00    +0.033 A 
ATOM      9  C   UNL     1      -3.727  -0.021  -1.370  0.00  0.00    +0.024 A 
ATOM     10  C   UNL     1      -2.382  -0.285  -1.246  0.00  0.00    +0.015 A 
BRANCH   5  12
ATOM     11  N   UNL     1       0.758   0.024  -3.109  0.00  0.00    -0.268 N 
ATOM     12  C   UNL     1      -0.115  -0.532  -2.246  0.00  0.00    +0.251 C 
ATOM     13  O   UNL     1       0.287  -1.262  -1.360  0.00  0.00    -0.270 OA
BRANCH  11  14
ATOM     14  C   UNL     1       2.113  -0.316  -3.050  0.00  0.00    +0.037 A 
ATOM     15  C   UNL     1       3.040   0.381  -3.813  0.00  0.00    +0.023 A 
ATOM     16  C   UNL     1       4.378   0.043  -3.751  0.00  0.00    +0.002 A 
ATOM     17  C   UNL     1       4.794  -0.989  -2.930  0.00  0.00    +0.000 A 
ATOM     18  C   UNL     1       3.874  -1.686  -2.169  0.00  0.00    +0.002 A 
ATOM     19  C   UNL     1       2.536  -1.349  -2.222  0.00  0.00    +0.023 A 
ENDBRANCH  11  14
BRANCH  11  21
ATOM     20  C   UNL     1       0.394   0.361  -5.504  0.00  0.00    +0.025 C 
ATOM     21  C   UNL     1       0.287   0.984  -4.111  0.00  0.00    +0.110 C 
ENDBRANCH  11  21
ENDBRANCH   5  12
ENDBRANCH   1   8
BRANCH   2  22
ATOM     22  C   UNL     1      -7.743   0.527  -4.034  0.00  0.00    +0.198 C 
BRANCH  22  23
ATOM     23  N   UNL     1      -8.232  -0.009  -5.307  0.00  0.00    -0.335 N 
ATOM     24  H   UNL     1      -7.638  -0.523  -5.877  0.00  0.00    +0.147 HD
BRANCH  23  25
ATOM     25  C   UNL     1      -9.553   0.220  -5.700  0.00  0.00    +0.028 A 
ATOM     26  C   UNL     1     -10.401   0.961  -4.886  0.00  0.00    +0.023 A 
ATOM     27  C   UNL     1     -11.709   1.191  -5.271  0.00  0.00    +0.003 A 
ATOM     28  C   UNL     1     -12.181   0.686  -6.466  0.00  0.00    +0.013 A 
ATOM     29  C   UNL     1     -11.336  -0.060  -7.290  0.00  0.00    +0.038 A 
ATOM     30  C   UNL     1     -10.015  -0.287  -6.904  0.00  0.00    +0.036 A 
BRANCH  29  31
ATOM     31  C   UNL     1     -11.840  -0.603  -8.570  0.00  0.00    +0.244 C 
ATOM     32  O   UNL     1     -11.103  -1.252  -9.287  0.00  0.00    -0.270 OA
ATOM     33  N   UNL     1     -13.115  -0.377  -8.943  0.00  0.00    -0.304 N 
ATOM     34  H   UNL     1     -13.703   0.141  -8.371  0.00  0.00    +0.149 HD
BRANCH  33  35
ATOM     35  C   UNL     1     -13.614  -0.915 -10.211  0.00  0.00    +0.179 C 
BRANCH  35  36
ATOM     36  C   UNL     1     -15.058  -0.524 -10.389  0.00  0.00    +0.122 A 
ATOM     37  C   UNL     1     -15.502   0.591 -10.996  0.00  0.00    +0.046 A 
ATOM     38  C   UNL     1     -16.915   0.554 -10.938  0.00  0.00    +0.041 A 
ATOM     39  C   UNL     1     -17.249  -0.581 -10.299  0.00  0.00    +0.195 A 
ATOM     40  O   UNL     1     -16.121  -1.233  -9.974  0.00  0.00    -0.466 OA
ENDBRANCH  35  36
ENDBRANCH  33  35
ENDBRANCH  29  31
ENDBRANCH  23  25
ENDBRANCH  22  23
ENDBRANCH   2  22
TORSDOF 10
