REMARK  Name = ZINC23181319
REMARK  9 active torsions:
REMARK  status: ('A' for Active; 'I' for Inactive)
REMARK    1  A    between atoms: C_1  and  C_2
REMARK    2  A    between atoms: C_2  and  C_4
REMARK    3  A    between atoms: C_2  and  N_24
REMARK    4  A    between atoms: C_4  and  C_6
REMARK    5  A    between atoms: C_4  and  N_11
REMARK    6  A    between atoms: N_14  and  C_17
REMARK    7  A    between atoms: C_25  and  C_27
REMARK    8  A    between atoms: N_29  and  C_30
REMARK    9  A    between atoms: C_30  and  C_31
REMARK                            x       y       z     vdW  Elec       q    Type
REMARK                         _______ _______ _______ _____ _____    ______ ____
ROOT
ATOM      1  C   UNL     1       1.402   3.539   0.007  0.00  0.00    +0.114 C 
ENDROOT
BRANCH   1   2
ATOM      2  N   UNL     1       2.456   3.860   0.978  0.00  0.00    -0.290 NA
ATOM      3  C   UNL     1       3.736   3.252   0.587  0.00  0.00    +0.104 C 
ATOM      4  C   UNL     1       4.823   3.675   1.578  0.00  0.00    +0.120 C 
ATOM      5  N   UNL     1       4.436   3.255   2.933  0.00  0.00    -0.325 N 
ATOM      6  C   UNL     1       3.157   3.863   3.324  0.00  0.00    +0.120 C 
ATOM      7  C   UNL     1       2.070   3.441   2.333  0.00  0.00    +0.104 C 
BRANCH   5   8
ATOM      8  C   UNL     1       5.440   3.561   3.857  0.00  0.00    +0.065 A 
ATOM      9  C   UNL     1       5.303   3.180   5.185  0.00  0.00    +0.026 A 
ATOM     10  C   UNL     1       6.298   3.480   6.095  0.00  0.00    +0.002 A 
ATOM     11  C   UNL     1       7.426   4.167   5.688  0.00  0.00    +0.003 A 
ATOM     12  C   UNL     1       7.566   4.553   4.367  0.00  0.00    +0.040 A 
ATOM     13  C   UNL     1       6.576   4.253   3.450  0.00  0.00    +0.144 A 
ATOM     14  F   UNL     1       6.712   4.630   2.160  0.00  0.00    -0.204 F 
ENDBRANCH   5   8
ENDBRANCH   1   2
BRANCH   1  15
ATOM     15  C   UNL     1       1.089   2.066   0.073  0.00  0.00    +0.009 A 
ATOM     16  C   UNL     1      -0.115   1.452   0.176  0.00  0.00    +0.013 A 
ATOM     17  C   UNL     1      -0.162   0.072   0.220  0.00  0.00    +0.008 A 
ATOM     18  C   UNL     1       0.997  -0.628   0.160  0.00  0.00    +0.045 A 
ATOM     19  S   UNL     1       2.210   0.676   0.036  0.00  0.00    -0.100 S 
ENDBRANCH   1  15
BRANCH   1  21
ATOM     20  C   UNL     1       2.197   5.391  -1.469  0.00  0.00    +0.030 C 
ATOM     21  C   UNL     1       1.880   3.896  -1.401  0.00  0.00    +0.092 C 
BRANCH  21  22
ATOM     22  N   UNL     1       0.828   3.576  -2.370  0.00  0.00    -0.303 N 
ATOM     23  C   UNL     1       1.150   3.318  -3.653  0.00  0.00    +0.299 C 
ATOM     24  O   UNL     1       2.310   3.352  -4.006  0.00  0.00    -0.265 OA
ATOM     25  H   UNL     1      -0.224   3.546  -2.050  0.00  0.00    +0.149 HD
BRANCH  23  26
ATOM     26  C   UNL     1       0.077   2.992  -4.641  0.00  0.00    +0.299 C 
ATOM     27  O   UNL     1      -1.083   2.958  -4.288  0.00  0.00    -0.265 OA
ATOM     28  N   UNL     1       0.399   2.735  -5.925  0.00  0.00    -0.303 N 
ATOM     29  H   UNL     1       1.451   2.765  -6.245  0.00  0.00    +0.149 HD
BRANCH  28  30
ATOM     30  C   UNL     1      -0.653   2.414  -6.893  0.00  0.00    +0.140 C 
BRANCH  30  31
ATOM     31  C   UNL     1      -0.033   2.170  -8.245  0.00  0.00    -0.030 A 
ATOM     32  C   UNL     1       0.132   3.221  -9.129  0.00  0.00    +0.008 A 
ATOM     33  C   UNL     1       0.705   2.999 -10.367  0.00  0.00    +0.038 A 
ATOM     34  C   UNL     1       1.103   1.723 -10.726  0.00  0.00    +0.123 A 
ATOM     35  C   UNL     1       0.932   0.671  -9.843  0.00  0.00    +0.038 A 
ATOM     36  C   UNL     1       0.364   0.895  -8.603  0.00  0.00    +0.008 A 
ATOM     37  F   UNL     1       1.658   1.504 -11.938  0.00  0.00    -0.205 F 
ENDBRANCH  30  31
ENDBRANCH  28  30
ENDBRANCH  23  26
ENDBRANCH  21  22
ENDBRANCH   1  21
TORSDOF 8
