REMARK  Name = ZINC02518444
REMARK  10 active torsions:
REMARK  status: ('A' for Active; 'I' for Inactive)
REMARK    1  A    between atoms: C_1  and  C_2
REMARK    2  A    between atoms: C_2  and  C_3
REMARK    3  A    between atoms: C_6  and  C_8
REMARK    4  A    between atoms: C_10  and  C_33
REMARK    5  A    between atoms: C_11  and  N_32
REMARK    6  A    between atoms: N_12  and  C_22
REMARK    7  A    between atoms: C_18  and  C_20
REMARK    8  A    between atoms: C_18  and  C_21
REMARK    9  A    between atoms: C_24  and  N_29
REMARK   10  A    between atoms: C_27  and  C_28
REMARK                            x       y       z     vdW  Elec       q    Type
REMARK                         _______ _______ _______ _____ _____    ______ ____
ROOT
ATOM      1  C   UNL     1      -2.758   2.234   2.509  0.00  0.00    +0.104 C 
ATOM      2  C   UNL     1      -1.792   2.840   3.483  0.00  0.00    +0.077 C 
ATOM      3  C   UNL     1      -0.457   2.609   3.383  0.00  0.00    +0.107 C 
ATOM      4  N   UNL     1       0.032   1.812   2.372  0.00  0.00    -0.260 N 
ATOM      5  C   UNL     1      -0.718   1.572   1.250  0.00  0.00    +0.025 C 
ATOM      6  C   UNL     1      -2.053   1.768   1.260  0.00  0.00    +0.026 C 
ATOM      7  C   UNL     1      -2.827   1.541   0.109  0.00  0.00    +0.162 C 
ATOM      8  O   UNL     1      -4.029   1.715   0.155  0.00  0.00    -0.292 OA
ATOM      9  C   UNL     1      -2.197   1.085  -1.178  0.00  0.00    +0.086 C 
ATOM     10  C   UNL     1      -0.752   1.592  -1.233  0.00  0.00    -0.023 C 
ATOM     11  C   UNL     1      -0.013   1.086   0.008  0.00  0.00    +0.058 C 
ATOM     12  C   UNL     1      -0.744   3.122  -1.247  0.00  0.00    +0.011 C 
ATOM     13  C   UNL     1      -0.064   1.063  -2.493  0.00  0.00    +0.011 C 
ENDROOT
BRANCH   4  14
ATOM     14  C   UNL     1       1.306   1.244   2.491  0.00  0.00    +0.045 A 
ATOM     15  C   UNL     1       1.459  -0.003   3.084  0.00  0.00    +0.056 A 
ATOM     16  C   UNL     1       2.717  -0.563   3.195  0.00  0.00    +0.128 A 
ATOM     17  C   UNL     1       3.824   0.121   2.726  0.00  0.00    +0.033 A 
ATOM     18  C   UNL     1       3.675   1.365   2.140  0.00  0.00    +0.007 A 
ATOM     19  C   UNL     1       2.419   1.928   2.021  0.00  0.00    -0.029 A 
ATOM     20  C   UNL     1       2.258   3.284   1.383  0.00  0.00    +0.045 C 
BRANCH  16  21
ATOM     21  N   UNL     1       2.881  -1.893   3.822  0.00  0.00    +0.056 N 
ATOM     22  O   UNL     1       3.990  -2.385   3.925  0.00  0.00    -0.126 OA
ATOM     23  O   UNL     1       1.906  -2.496   4.235  0.00  0.00    -0.126 OA
ENDBRANCH  16  21
ENDBRANCH   4  14
BRANCH   1  27
ATOM     24  C   UNL     1      -4.232  -1.230   4.347  0.00  0.00    -0.010 A 
ATOM     25  C   UNL     1      -5.164  -0.298   4.031  0.00  0.00    +0.011 A 
ATOM     26  C   UNL     1      -4.759   0.874   3.421  0.00  0.00    +0.012 A 
ATOM     27  C   UNL     1      -3.442   1.058   3.158  0.00  0.00    +0.003 A 
ATOM     28  S   UNL     1      -2.728  -0.459   3.773  0.00  0.00    -0.097 S 
BRANCH  24  30
ATOM     29  C   UNL     1      -4.654  -3.639   3.937  0.00  0.00    +0.009 C 
ATOM     30  C   UNL     1      -4.418  -2.572   5.007  0.00  0.00    +0.039 C 
ENDBRANCH  24  30
ENDBRANCH   1  27
BRANCH   3  31
ATOM     31  N   UNL     1       0.407   3.170   4.293  0.00  0.00    -0.345 N 
ATOM     32  H   UNL     1       0.063   3.731   5.006  0.00  0.00    +0.144 HD
ATOM     33  H   UNL     1       1.360   3.006   4.222  0.00  0.00    +0.144 HD
ENDBRANCH   3  31
BRANCH   2  34
ATOM     34  C   UNL     1      -2.284   3.676   4.536  0.00  0.00    +0.099 C 
ATOM     35  N   UNL     1      -2.675   4.340   5.371  0.00  0.00    -0.191 NA
ENDBRANCH   2  34
TORSDOF 6
