REMARK  Name = ZINC63589296
REMARK  9 active torsions:
REMARK  status: ('A' for Active; 'I' for Inactive)
REMARK    1  A    between atoms: C_1  and  C_2
REMARK    2  A    between atoms: C_6  and  C_8
REMARK    3  A    between atoms: C_8  and  N_10
REMARK    4  A    between atoms: N_12  and  C_13
REMARK    5  A    between atoms: C_16  and  O_20
REMARK    6  A    between atoms: O_20  and  C_21
REMARK    7  A    between atoms: N_22  and  C_23
REMARK    8  A    between atoms: C_23  and  C_24
REMARK    9  A    between atoms: C_24  and  C_25
REMARK                            x       y       z     vdW  Elec       q    Type
REMARK                         _______ _______ _______ _____ _____    ______ ____
ROOT
ATOM      1  N   UNL     1      -0.310  -4.216   2.519  0.00  0.00    -0.143 NA
ATOM      2  C   UNL     1      -0.586  -4.734   3.706  0.00  0.00    +0.194 C 
ATOM      3  N   UNL     1      -0.210  -4.076   4.841  0.00  0.00    -0.328 N 
ATOM      4  N   UNL     1      -1.246  -5.924   3.795  0.00  0.00    -0.357 N 
ATOM      5  H   UNL     1       0.176  -3.188   4.782  0.00  0.00    +0.169 HD
ATOM      6  H   UNL     1      -1.475  -6.289   4.664  0.00  0.00    +0.162 HD
ENDROOT
BRANCH   3   7
ATOM      7  C   UNL     1      -0.382  -4.683   6.092  0.00  0.00    +0.043 A 
ATOM      8  C   UNL     1      -0.274  -6.062   6.215  0.00  0.00    +0.029 A 
ATOM      9  C   UNL     1      -0.444  -6.660   7.448  0.00  0.00    +0.049 A 
ATOM     10  C   UNL     1      -0.722  -5.884   8.564  0.00  0.00    +0.138 A 
ATOM     11  C   UNL     1      -0.830  -4.506   8.442  0.00  0.00    +0.084 A 
ATOM     12  C   UNL     1      -0.655  -3.905   7.210  0.00  0.00    +0.049 A 
ATOM     13 CL   UNL     1      -1.179  -3.535   9.838  0.00  0.00    -0.080 Cl
BRANCH  10  14
ATOM     14  O   UNL     1      -0.888  -6.474   9.778  0.00  0.00    -0.494 OA
ATOM     15  C   UNL     1      -0.764  -7.897   9.830  0.00  0.00    +0.277 C 
ENDBRANCH  10  14
ENDBRANCH   3   7
BRANCH   1  16
ATOM     16  C   UNL     1       0.546  -3.191   2.417  0.00  0.00    +0.270 C 
ATOM     17  O   UNL     1       1.162  -2.813   3.398  0.00  0.00    -0.268 OA
BRANCH  16  23
ATOM     18  C   UNL     1       2.610   0.461  -0.289  0.00  0.00    +0.044 C 
ATOM     19  C   UNL     1       1.736  -0.763  -0.192  0.00  0.00    -0.050 A 
ATOM     20  C   UNL     1       1.117  -1.260  -1.325  0.00  0.00    +0.003 A 
ATOM     21  C   UNL     1       0.313  -2.383  -1.245  0.00  0.00    +0.001 A 
ATOM     22  C   UNL     1       0.124  -3.014  -0.033  0.00  0.00    +0.013 A 
ATOM     23  C   UNL     1       0.745  -2.518   1.113  0.00  0.00    +0.039 A 
ATOM     24  C   UNL     1       1.560  -1.389   1.024  0.00  0.00    +0.016 A 
ENDBRANCH  16  23
ENDBRANCH   1  16
BRANCH   4  25
ATOM     25  C   UNL     1      -1.609  -6.653   2.576  0.00  0.00    +0.120 C 
BRANCH  25  26
ATOM     26  C   UNL     1      -2.335  -7.946   2.953  0.00  0.00    +0.054 C 
BRANCH  26  27
ATOM     27  C   UNL     1      -2.708  -8.696   1.700  0.00  0.00    -0.040 C 
ATOM     28  C   UNL     1      -2.009  -9.692   1.109  0.00  0.00    -0.001 A 
ATOM     29  C   UNL     1      -0.740 -10.349   1.443  0.00  0.00    +0.010 A 
ATOM     30  C   UNL     1      -0.283 -11.338   0.642  0.00  0.00    +0.001 A 
ATOM     31  C   UNL     1      -0.989 -11.750  -0.496  0.00  0.00    +0.002 A 
ATOM     32  C   UNL     1      -2.161 -11.194  -0.868  0.00  0.00    +0.026 A 
ATOM     33  C   UNL     1      -2.735 -10.145  -0.098  0.00  0.00    +0.043 A 
ATOM     34  N   UNL     1      -3.841  -9.456  -0.248  0.00  0.00    -0.380 N 
ATOM     35  C   UNL     1      -3.943  -8.491   0.852  0.00  0.00    +0.144 C 
ATOM     36  H   UNL     1      -4.485  -9.569  -0.965  0.00  0.00    +0.160 HD
ENDBRANCH  26  27
ENDBRANCH  25  26
ENDBRANCH   4  25
TORSDOF 7
