REMARK  Name = ZINC27199722
REMARK  9 active torsions:
REMARK  status: ('A' for Active; 'I' for Inactive)
REMARK    1  A    between atoms: C_1  and  C_2
REMARK    2  A    between atoms: C_2  and  C_4
REMARK    3  A    between atoms: C_2  and  O_30
REMARK    4  A    between atoms: N_6  and  N_7
REMARK    5  A    between atoms: C_8  and  C_10
REMARK    6  A    between atoms: C_13  and  C_16
REMARK    7  A    between atoms: C_16  and  N_17
REMARK    8  A    between atoms: C_18  and  C_20
REMARK    9  A    between atoms: O_30  and  C_31
REMARK                            x       y       z     vdW  Elec       q    Type
REMARK                         _______ _______ _______ _____ _____    ______ ____
ROOT
ATOM      1  C   UNL     1      -1.454   7.291  -1.016  0.00  0.00    +0.038 A 
ATOM      2  C   UNL     1      -0.603   7.962  -0.136  0.00  0.00    +0.013 A 
ATOM      3  C   UNL     1      -0.421   9.324  -0.260  0.00  0.00    +0.006 A 
ATOM      4  C   UNL     1      -1.089  10.027  -1.247  0.00  0.00    -0.030 A 
ATOM      5  C   UNL     1      -1.938   9.369  -2.119  0.00  0.00    +0.006 A 
ATOM      6  C   UNL     1      -2.124   8.007  -2.009  0.00  0.00    +0.013 A 
ENDROOT
BRANCH   1   8
ATOM      7  N   UNL     1      -1.000   5.143   0.068  0.00  0.00    -0.230 N 
ATOM      8  C   UNL     1      -1.649   5.831  -0.892  0.00  0.00    +0.260 C 
ATOM      9  O   UNL     1      -2.394   5.251  -1.657  0.00  0.00    -0.269 OA
ATOM     10  H   UNL     1      -0.325   5.669   0.760  0.00  0.00    +0.173 HD
BRANCH   7  13
ATOM     11  C   UNL     1      -0.535   3.072   1.146  0.00  0.00    +0.270 C 
ATOM     12  O   UNL     1       0.209   3.651   1.909  0.00  0.00    -0.270 OA
ATOM     13  N   UNL     1      -1.184   3.760   0.185  0.00  0.00    -0.231 N 
ATOM     14  H   UNL     1      -1.859   3.234  -0.507  0.00  0.00    +0.173 HD
BRANCH  11  16
ATOM     15  C   UNL     1      -0.188   0.889   0.022  0.00  0.00    +0.062 C 
ATOM     16  C   UNL     1      -0.734   1.583   1.272  0.00  0.00    +0.257 C 
BRANCH  16  17
ATOM     17  O   UNL     1      -0.038   1.106   2.425  0.00  0.00    -0.480 OA
BRANCH  17  18
ATOM     18  C   UNL     1      -0.493  -0.045   2.988  0.00  0.00    +0.122 A 
ATOM     19  C   UNL     1      -1.518  -0.756   2.382  0.00  0.00    +0.048 A 
ATOM     20  C   UNL     1      -1.976  -1.928   2.952  0.00  0.00    +0.042 A 
ATOM     21  C   UNL     1      -1.419  -2.387   4.133  0.00  0.00    +0.124 A 
ATOM     22  C   UNL     1      -0.400  -1.675   4.743  0.00  0.00    +0.042 A 
ATOM     23  C   UNL     1       0.064  -0.506   4.171  0.00  0.00    +0.048 A 
ATOM     24  F   UNL     1      -1.871  -3.531   4.693  0.00  0.00    -0.205 F 
ENDBRANCH  17  18
ENDBRANCH  16  17
ENDBRANCH  11  16
ENDBRANCH   7  13
ENDBRANCH   1   8
BRANCH   4  25
ATOM     25  C   UNL     1      -0.890  11.515  -1.373  0.00  0.00    +0.139 C 
BRANCH  25  26
ATOM     26  N   UNL     1      -1.880  12.212  -0.548  0.00  0.00    -0.311 N 
ATOM     27  C   UNL     1      -1.893  13.559  -0.505  0.00  0.00    +0.219 C 
ATOM     28  O   UNL     1      -1.085  14.194  -1.149  0.00  0.00    -0.275 OA
ATOM     29  H   UNL     1      -2.613  11.636   0.036  0.00  0.00    +0.149 HD
BRANCH  27  30
ATOM     30  C   UNL     1      -2.912  14.276   0.344  0.00  0.00    +0.048 C 
ATOM     31  C   UNL     1      -4.320  13.907  -0.130  0.00  0.00    +0.019 C 
ATOM     32  C   UNL     1      -5.354  14.635   0.732  0.00  0.00    -0.009 C 
ATOM     33  C   UNL     1      -5.152  16.146   0.604  0.00  0.00    +0.007 C 
ATOM     34  C   UNL     1      -3.744  16.515   1.077  0.00  0.00    -0.009 C 
ATOM     35  C   UNL     1      -2.710  15.787   0.215  0.00  0.00    +0.019 C 
ATOM     36  C   UNL     1      -3.573  16.099   2.539  0.00  0.00    +0.007 C 
ATOM     37  C   UNL     1      -3.775  14.588   2.667  0.00  0.00    -0.009 C 
ATOM     38  C   UNL     1      -5.182  14.220   2.194  0.00  0.00    +0.007 C 
ATOM     39  C   UNL     1      -2.741  13.860   1.806  0.00  0.00    +0.019 C 
ENDBRANCH  27  30
ENDBRANCH  25  26
ENDBRANCH   4  25
TORSDOF 8
