REMARK  Name = ZINC43260507
REMARK  6 active torsions:
REMARK  status: ('A' for Active; 'I' for Inactive)
REMARK    1  A    between atoms: C_3  and  C_11
REMARK    2  A    between atoms: C_5  and  C_7
REMARK    3  A    between atoms: C_18  and  C_20
REMARK    4  A    between atoms: N_22  and  C_23
REMARK    5  A    between atoms: C_23  and  C_24
REMARK    6  A    between atoms: N_32  and  C_33
REMARK                            x       y       z     vdW  Elec       q    Type
REMARK                         _______ _______ _______ _____ _____    ______ ____
ROOT
ATOM      1  C   UNL     1       4.107   2.162  -0.617  0.00  0.00    +0.247 C 
ATOM      2  O   UNL     1       4.972   1.539  -0.033  0.00  0.00    -0.270 OA
ATOM      3  N   UNL     1       4.137   3.510  -0.627  0.00  0.00    -0.283 N 
ATOM      4  C   UNL     1       3.051   4.277  -1.253  0.00  0.00    +0.128 C 
ATOM      5  C   UNL     1       2.487   5.260  -0.220  0.00  0.00    +0.128 C 
ATOM      6  N   UNL     1       3.606   5.988   0.395  0.00  0.00    -0.282 N 
ATOM      7  C   UNL     1       4.692   5.221   1.021  0.00  0.00    +0.141 C 
ATOM      8  C   UNL     1       5.253   4.237  -0.007  0.00  0.00    +0.179 C 
ATOM      9  C   UNL     1       3.636   7.336   0.385  0.00  0.00    +0.307 C 
ATOM     10  O   UNL     1       2.689   7.962  -0.050  0.00  0.00    -0.252 OA
ATOM     11  N   UNL     1       4.716   7.989   0.857  0.00  0.00    -0.269 N 
ATOM     12  H   UNL     1       5.503   7.492   1.129  0.00  0.00    +0.156 HD
ENDROOT
BRANCH  11  13
ATOM     13  C   UNL     1       4.701   9.386   0.956  0.00  0.00    +0.035 A 
ATOM     14  C   UNL     1       3.522  10.049   1.269  0.00  0.00    +0.026 A 
ATOM     15  C   UNL     1       3.510  11.426   1.367  0.00  0.00    +0.040 A 
ATOM     16  C   UNL     1       4.673  12.147   1.152  0.00  0.00    +0.124 A 
ATOM     17  C   UNL     1       5.850  11.488   0.839  0.00  0.00    +0.040 A 
ATOM     18  C   UNL     1       5.867  10.110   0.747  0.00  0.00    +0.026 A 
ATOM     19  F   UNL     1       4.659  13.494   1.248  0.00  0.00    -0.205 F 
ENDBRANCH  11  13
BRANCH   1  22
ATOM     20  C   UNL     1       1.594   1.181  -3.230  0.00  0.00    +0.001 A 
ATOM     21  C   UNL     1       2.607   1.858  -2.583  0.00  0.00    +0.013 A 
ATOM     22  C   UNL     1       3.022   1.442  -1.317  0.00  0.00    +0.037 A 
ATOM     23  C   UNL     1       2.408   0.342  -0.715  0.00  0.00    +0.025 A 
ATOM     24  C   UNL     1       1.397  -0.326  -1.373  0.00  0.00    +0.056 A 
ATOM     25  C   UNL     1       0.990   0.092  -2.628  0.00  0.00    +0.012 A 
BRANCH  24  26
ATOM     26  C   UNL     1       0.734  -1.514  -0.724  0.00  0.00    +0.417 C 
ATOM     27  F   UNL     1      -0.361  -1.081   0.032  0.00  0.00    -0.166 F 
ATOM     28  F   UNL     1       0.296  -2.401  -1.713  0.00  0.00    -0.166 F 
ATOM     29  F   UNL     1       1.651  -2.161   0.111  0.00  0.00    -0.166 F 
ENDBRANCH  24  26
ENDBRANCH   1  22
BRANCH   8  30
ATOM     30  C   UNL     1       6.174   3.262   0.679  0.00  0.00    +0.235 C 
ATOM     31  O   UNL     1       5.811   2.690   1.685  0.00  0.00    -0.274 OA
ATOM     32  N   UNL     1       7.401   3.025   0.175  0.00  0.00    -0.311 N 
ATOM     33  H   UNL     1       7.692   3.483  -0.630  0.00  0.00    +0.149 HD
BRANCH  32  34
ATOM     34  C   UNL     1       8.297   2.077   0.842  0.00  0.00    +0.135 C 
BRANCH  34  35
ATOM     35  C   UNL     1       9.616   1.993   0.071  0.00  0.00    +0.135 C 
ATOM     36  C   UNL     1      10.566   0.968   0.741  0.00  0.00    +0.035 C 
ATOM     37  C   UNL     1      11.465   0.570  -0.461  0.00  0.00    +0.031 C 
ATOM     38  C   UNL     1      10.478   0.641  -1.646  0.00  0.00    +0.160 C 
ATOM     39  O   UNL     1       9.389   1.487  -1.253  0.00  0.00    -0.375 OA
ENDBRANCH  34  35
ENDBRANCH  32  34
ENDBRANCH   8  30
TORSDOF 6
