REMARK  Name = ZINC06146128
REMARK  10 active torsions:
REMARK  status: ('A' for Active; 'I' for Inactive)
REMARK    1  A    between atoms: C_1  and  C_2
REMARK    2  A    between atoms: C_2  and  O_3
REMARK    3  A    between atoms: O_3  and  C_4
REMARK    4  A    between atoms: C_4  and  C_6
REMARK    5  A    between atoms: N_17  and  C_20
REMARK    6  A    between atoms: C_18  and  N_19
REMARK    7  A    between atoms: C_23  and  N_26
REMARK    8  A    between atoms: N_26  and  S_27
REMARK    9  A    between atoms: S_27  and  C_30
REMARK   10  A    between atoms: C_33  and  C_36
REMARK                            x       y       z     vdW  Elec       q    Type
REMARK                         _______ _______ _______ _____ _____    ______ ____
ROOT
ATOM      1  C   UNL     1       0.051   7.683  -0.818  0.00  0.00    +0.126 A 
ATOM      2  C   UNL     1      -0.491   7.742   0.550  0.00  0.00    +0.125 A 
ATOM      3  C   UNL     1      -0.616   6.346   0.979  0.00  0.00    +0.167 A 
ATOM      4  N   UNL     1      -1.074   6.077   2.183  0.00  0.00    -0.225 NA
ATOM      5  C   UNL     1      -1.432   7.077   2.998  0.00  0.00    +0.092 A 
ATOM      6  C   UNL     1      -1.930   6.799   4.285  0.00  0.00    +0.030 A 
ATOM      7  C   UNL     1      -2.291   7.821   5.107  0.00  0.00    +0.002 A 
ATOM      8  C   UNL     1      -2.177   9.148   4.694  0.00  0.00    +0.002 A 
ATOM      9  C   UNL     1      -1.701   9.456   3.458  0.00  0.00    +0.030 A 
ATOM     10  C   UNL     1      -1.317   8.426   2.579  0.00  0.00    +0.090 A 
ATOM     11  N   UNL     1      -0.846   8.718   1.360  0.00  0.00    -0.241 NA
ATOM     12  N   UNL     1      -0.168   5.561  -0.067  0.00  0.00    -0.280 N 
ATOM     13  C   UNL     1       0.219   6.334  -1.119  0.00  0.00    +0.119 A 
ENDROOT
BRANCH  12  14
ATOM     14  C   UNL     1      -0.125   4.158  -0.049  0.00  0.00    +0.050 A 
ATOM     15  C   UNL     1       1.097   3.501  -0.113  0.00  0.00    +0.028 A 
ATOM     16  C   UNL     1       1.140   2.122  -0.096  0.00  0.00    +0.026 A 
ATOM     17  C   UNL     1      -0.039   1.391  -0.015  0.00  0.00    +0.048 A 
ATOM     18  C   UNL     1      -1.261   2.049   0.044  0.00  0.00    +0.026 A 
ATOM     19  C   UNL     1      -1.303   3.428   0.032  0.00  0.00    +0.028 A 
BRANCH  17  20
ATOM     20  N   UNL     1       0.005  -0.007   0.002  0.00  0.00    -0.216 N 
ATOM     21  H   UNL     1       0.639  -0.546  -0.718  0.00  0.00    +0.174 HD
BRANCH  20  22
ATOM     22  S   UNL     1      -0.898  -0.850   1.105  0.00  0.00    +0.072 S 
ATOM     23  O   UNL     1      -2.231  -0.372   0.989  0.00  0.00    -0.150 OA
ATOM     24  O   UNL     1      -0.563  -2.222   0.940  0.00  0.00    -0.150 OA
BRANCH  22  25
ATOM     25  C   UNL     1      -0.333  -0.383   2.707  0.00  0.00    +0.109 A 
ATOM     26  C   UNL     1       0.756  -1.023   3.270  0.00  0.00    +0.029 A 
ATOM     27  C   UNL     1       1.202  -0.653   4.525  0.00  0.00    +0.005 A 
ATOM     28  C   UNL     1       0.553   0.349   5.221  0.00  0.00    -0.050 A 
ATOM     29  C   UNL     1      -0.538   0.986   4.660  0.00  0.00    +0.005 A 
ATOM     30  C   UNL     1      -0.982   0.619   3.404  0.00  0.00    +0.029 A 
ATOM     31  C   UNL     1       1.037   0.749   6.591  0.00  0.00    +0.044 C 
ENDBRANCH  22  25
ENDBRANCH  20  22
ENDBRANCH  17  20
ENDBRANCH  12  14
BRANCH  13  32
ATOM     32  N   UNL     1       0.705   5.852  -2.306  0.00  0.00    -0.343 N 
ATOM     33  H   UNL     1       0.805   4.768  -2.460  0.00  0.00    +0.144 HD
ATOM     34  H   UNL     1       0.995   6.550  -3.105  0.00  0.00    +0.144 HD
ENDBRANCH  13  32
BRANCH   1  35
ATOM     35  C   UNL     1       0.344   8.782  -1.661  0.00  0.00    +0.345 C 
ATOM     36  O   UNL     1      -0.509   9.219  -2.411  0.00  0.00    -0.245 OA
BRANCH  35  37
ATOM     37  O   UNL     1       1.570   9.345  -1.634  0.00  0.00    -0.461 OA
BRANCH  37  39
ATOM     38  C   UNL     1       3.232  10.951  -2.341  0.00  0.00    +0.048 C 
ATOM     39  C   UNL     1       1.796  10.450  -2.512  0.00  0.00    +0.229 C 
ENDBRANCH  37  39
ENDBRANCH  35  37
ENDBRANCH   1  35
TORSDOF 8
