REMARK  Name = ZINC41062467
REMARK  4 active torsions:
REMARK  status: ('A' for Active; 'I' for Inactive)
REMARK    1  A    between atoms: C_1  and  C_2
REMARK    2  A    between atoms: C_5  and  S_8
REMARK    3  A    between atoms: S_8  and  C_9
REMARK    4  A    between atoms: C_14  and  N_15
REMARK                            x       y       z     vdW  Elec       q    Type
REMARK                         _______ _______ _______ _____ _____    ______ ____
ROOT
ATOM      1  C   UNL     1      -5.103   2.512  -1.731  0.00  0.00    +0.036 A 
ATOM      2  C   UNL     1      -4.648   2.154  -0.471  0.00  0.00    +0.018 A 
ATOM      3  C   UNL     1      -5.543   2.012   0.573  0.00  0.00    +0.021 A 
ATOM      4  C   UNL     1      -6.895   2.227   0.364  0.00  0.00    +0.043 A 
ATOM      5  C   UNL     1      -7.357   2.585  -0.889  0.00  0.00    +0.043 A 
ATOM      6  C   UNL     1      -6.465   2.734  -1.940  0.00  0.00    +0.040 A 
ATOM      7 CL   UNL     1      -8.013   2.045   1.680  0.00  0.00    -0.083 Cl
ENDROOT
BRANCH   6   8
ATOM      8  N   UNL     1      -6.929   3.101  -3.208  0.00  0.00    -0.357 N 
ATOM      9  H   UNL     1      -6.304   3.202  -3.943  0.00  0.00    +0.142 HD
ATOM     10  H   UNL     1      -7.876   3.255  -3.352  0.00  0.00    +0.142 HD
ENDBRANCH   6   8
BRANCH   1  11
ATOM     11  S   UNL     1      -3.964   2.694  -3.063  0.00  0.00    -0.049 S 
BRANCH  11  16
ATOM     12  C   UNL     1      -5.657  -2.012  -4.683  0.00  0.00    +0.090 C 
ATOM     13  C   UNL     1      -4.909  -0.704  -4.677  0.00  0.00    +0.149 A 
ATOM     14  N   UNL     1      -4.977   0.221  -3.719  0.00  0.00    -0.206 NA
ATOM     15  H   UNL     1      -2.987   1.528  -5.695  0.00  0.00    +0.191 HD
ATOM     16  C   UNL     1      -4.199   1.237  -4.027  0.00  0.00    +0.189 A 
ATOM     17  N   UNL     1      -3.613   0.965  -5.213  0.00  0.00    -0.253 N 
ATOM     18  N   UNL     1      -4.086  -0.297  -5.606  0.00  0.00    -0.157 NA
ENDBRANCH  11  16
ENDBRANCH   1  11
TORSDOF 3
