REMARK  Name = ZINC39965417
REMARK  12 active torsions:
REMARK  status: ('A' for Active; 'I' for Inactive)
REMARK    1  A    between atoms: C_1  and  C_2
REMARK    2  A    between atoms: C_2  and  C_3
REMARK    3  A    between atoms: C_3  and  C_4
REMARK    4  A    between atoms: C_3  and  C_5
REMARK    5  A    between atoms: C_3  and  C_6
REMARK    6  A    between atoms: C_13  and  N_17
REMARK    7  A    between atoms: C_14  and  C_15
REMARK    8  A    between atoms: C_18  and  C_20
REMARK    9  A    between atoms: C_20  and  S_21
REMARK   10  A    between atoms: S_21  and  C_22
REMARK   11  A    between atoms: C_25  and  C_28
REMARK   12  A    between atoms: N_26  and  C_27
REMARK                            x       y       z     vdW  Elec       q    Type
REMARK                         _______ _______ _______ _____ _____    ______ ____
ROOT
ATOM      1  N   UNL     1      -1.707  -7.813   2.016  0.00  0.00    -0.278 N 
ATOM      2  C   UNL     1      -2.992  -8.103   1.728  0.00  0.00    +0.228 C 
ATOM      3  O   UNL     1      -3.774  -7.210   1.479  0.00  0.00    -0.275 OA
ATOM      4  H   UNL     1      -1.082  -8.527   2.216  0.00  0.00    +0.155 HD
ENDROOT
BRANCH   1  11
ATOM      5  C   UNL     1       0.351  -1.795   1.698  0.00  0.00    -0.000 C 
ATOM      6  C   UNL     1       1.219  -2.392   2.809  0.00  0.00    +0.009 C 
ATOM      7  C   UNL     1       1.502  -3.867   2.514  0.00  0.00    +0.037 C 
ATOM      8  C   UNL     1       0.182  -4.573   2.245  0.00  0.00    -0.018 A 
ATOM      9  C   UNL     1      -0.934  -3.879   1.929  0.00  0.00    -0.004 A 
ATOM     10  S   UNL     1      -2.183  -5.112   1.716  0.00  0.00    -0.077 S 
ATOM     11  C   UNL     1      -1.280  -6.492   2.027  0.00  0.00    +0.090 A 
ATOM     12  C   UNL     1      -0.009  -6.011   2.299  0.00  0.00    +0.084 A 
ATOM     13  C   UNL     1      -1.061  -2.392   1.791  0.00  0.00    +0.047 C 
BRANCH   5  14
ATOM     14  C   UNL     1       0.277  -0.276   1.866  0.00  0.00    -0.032 C 
ATOM     15  C   UNL     1       1.685   0.316   1.778  0.00  0.00    +0.011 C 
ATOM     16  C   UNL     1      -0.332   0.057   3.229  0.00  0.00    +0.011 C 
BRANCH  14  18
ATOM     17  C   UNL     1      -0.669   1.836   0.925  0.00  0.00    +0.004 C 
ATOM     18  C   UNL     1      -0.595   0.317   0.758  0.00  0.00    +0.003 C 
ENDBRANCH  14  18
ENDBRANCH   5  14
BRANCH  12  19
ATOM     19  C   UNL     1       1.071  -6.895   2.618  0.00  0.00    +0.102 C 
ATOM     20  N   UNL     1       1.927  -7.597   2.872  0.00  0.00    -0.191 NA
ENDBRANCH  12  19
ENDBRANCH   1  11
BRANCH   2  21
ATOM     21  C   UNL     1      -3.456  -9.536   1.716  0.00  0.00    +0.173 C 
BRANCH  21  22
ATOM     22  S   UNL     1      -5.220  -9.597   1.298  0.00  0.00    -0.077 S 
BRANCH  22  23
ATOM     23  C   UNL     1      -5.605 -11.316   1.324  0.00  0.00    +0.192 A 
ATOM     24  N   UNL     1      -4.775 -12.297   1.597  0.00  0.00    -0.122 NA
ATOM     25  N   UNL     1      -5.386 -13.425   1.527  0.00  0.00    -0.128 NA
ATOM     26  C   UNL     1      -6.644 -13.235   1.205  0.00  0.00    +0.165 A 
ATOM     27  N   UNL     1      -6.825 -11.877   1.071  0.00  0.00    -0.305 N 
ATOM     28  C   UNL     1      -8.066 -11.180   0.725  0.00  0.00    +0.153 C 
BRANCH  26  29
ATOM     29  C   UNL     1      -7.673 -14.280   1.026  0.00  0.00    +0.023 A 
ATOM     30  C   UNL     1      -7.474 -15.556   1.555  0.00  0.00    +0.015 A 
ATOM     31  C   UNL     1      -8.436 -16.530   1.387  0.00  0.00    +0.050 A 
ATOM     32  C   UNL     1      -9.603 -16.247   0.694  0.00  0.00    +0.166 A 
ATOM     33  C   UNL     1      -9.808 -14.974   0.163  0.00  0.00    +0.167 A 
ATOM     34  C   UNL     1      -8.850 -13.992   0.332  0.00  0.00    +0.061 A 
ATOM     35  O   UNL     1     -11.021 -14.954  -0.466  0.00  0.00    -0.453 OA
ATOM     36  C   UNL     1     -11.371 -16.336  -0.667  0.00  0.00    +0.466 C 
ATOM     37  O   UNL     1     -10.687 -17.022   0.398  0.00  0.00    -0.453 OA
ENDBRANCH  26  29
ENDBRANCH  22  23
ENDBRANCH  21  22
ENDBRANCH   2  21
TORSDOF 8
