REMARK  Name = ZINC35057795
REMARK  8 active torsions:
REMARK  status: ('A' for Active; 'I' for Inactive)
REMARK    1  A    between atoms: C_1  and  C_2
REMARK    2  A    between atoms: N_4  and  C_5
REMARK    3  A    between atoms: C_7  and  O_34
REMARK    4  A    between atoms: C_15  and  C_18
REMARK    5  A    between atoms: C_25  and  S_27
REMARK    6  A    between atoms: S_27  and  C_28
REMARK    7  A    between atoms: O_34  and  C_35
REMARK    8  A    between atoms: C_35  and  C_36
REMARK                            x       y       z     vdW  Elec       q    Type
REMARK                         _______ _______ _______ _____ _____    ______ ____
ROOT
ATOM      1  C   UNL     1       0.069  -2.076  -1.185  0.00  0.00    +0.143 C 
ATOM      2  C   UNL     1       0.502  -2.637  -2.543  0.00  0.00    +0.174 C 
ATOM      3  C   UNL     1       0.383  -4.161  -2.521  0.00  0.00    +0.183 C 
ATOM      4  C   UNL     1      -1.050  -4.559  -2.151  0.00  0.00    +0.177 C 
ATOM      5  C   UNL     1      -1.114  -6.087  -2.018  0.00  0.00    +0.197 C 
ATOM      6  O   UNL     1      -0.121  -6.509  -1.078  0.00  0.00    -0.345 OA
ATOM      7  C   UNL     1       1.210  -6.126  -1.431  0.00  0.00    +0.282 C 
ATOM      8  O   UNL     1       1.282  -4.703  -1.551  0.00  0.00    -0.339 OA
ATOM      9  O   UNL     1      -1.408  -3.954  -0.907  0.00  0.00    -0.356 OA
ATOM     10  C   UNL     1      -1.358  -2.542  -0.883  0.00  0.00    +0.203 C 
ENDROOT
BRANCH   7  11
ATOM     11  C   UNL     1       2.166  -6.589  -0.362  0.00  0.00    +0.008 A 
ATOM     12  C   UNL     1       2.931  -5.667   0.327  0.00  0.00    +0.008 A 
ATOM     13  C   UNL     1       3.808  -6.091   1.308  0.00  0.00    +0.000 A 
ATOM     14  C   UNL     1       3.919  -7.437   1.600  0.00  0.00    +0.000 A 
ATOM     15  C   UNL     1       3.153  -8.360   0.912  0.00  0.00    +0.000 A 
ATOM     16  C   UNL     1       2.273  -7.935  -0.066  0.00  0.00    +0.008 A 
ENDBRANCH   7  11
BRANCH   1  20
ATOM     17  C   UNL     1       0.326   1.594  -0.125  0.00  0.00    +0.109 C 
ATOM     18  C   UNL     1       0.285   0.088  -0.085  0.00  0.00    +0.210 C 
ATOM     19  O   UNL     1       0.411  -0.495   0.971  0.00  0.00    -0.276 OA
ATOM     20  N   UNL     1       0.109  -0.612  -1.224  0.00  0.00    -0.307 N 
ATOM     21  H   UNL     1       0.008  -0.146  -2.068  0.00  0.00    +0.149 HD
ENDBRANCH   1  20
BRANCH  10  22
ATOM     22  S   UNL     1      -2.487  -1.892  -2.146  0.00  0.00    -0.092 S 
BRANCH  22  23
ATOM     23  C   UNL     1      -4.090  -2.254  -1.511  0.00  0.00    +0.010 A 
ATOM     24  C   UNL     1      -4.226  -2.898  -0.287  0.00  0.00    +0.015 A 
ATOM     25  C   UNL     1      -5.484  -3.180   0.207  0.00  0.00    +0.001 A 
ATOM     26  C   UNL     1      -6.608  -2.822  -0.514  0.00  0.00    +0.000 A 
ATOM     27  C   UNL     1      -6.477  -2.182  -1.733  0.00  0.00    +0.001 A 
ATOM     28  C   UNL     1      -5.223  -1.891  -2.231  0.00  0.00    +0.015 A 
ENDBRANCH  22  23
ENDBRANCH  10  22
BRANCH   2  29
ATOM     29  O   UNL     1      -0.339  -2.106  -3.568  0.00  0.00    -0.361 OA
BRANCH  29  30
ATOM     30  C   UNL     1       0.291  -2.014  -4.848  0.00  0.00    +0.285 C 
BRANCH  30  31
ATOM     31  C   UNL     1      -0.639  -1.335  -5.819  0.00  0.00    +0.381 C 
ATOM     32  O   UNL     1      -1.740  -0.963  -5.449  0.00  0.00    -0.244 OA
ATOM     33  O   UNL     1      -0.291  -1.156  -6.973  0.00  0.00    -0.244 OA
ENDBRANCH  30  31
ENDBRANCH  29  30
ENDBRANCH   2  29
TORSDOF 7
