REMARK  Name = ZINC50002940
REMARK  7 active torsions:
REMARK  status: ('A' for Active; 'I' for Inactive)
REMARK    1  A    between atoms: C_1  and  C_2
REMARK    2  A    between atoms: C_5  and  N_8
REMARK    3  A    between atoms: N_8  and  C_9
REMARK    4  A    between atoms: N_8  and  C_10
REMARK    5  A    between atoms: C_13  and  S_17
REMARK    6  A    between atoms: C_15  and  N_16
REMARK    7  A    between atoms: S_17  and  N_20
REMARK                            x       y       z     vdW  Elec       q    Type
REMARK                         _______ _______ _______ _____ _____    ______ ____
ROOT
ATOM      1  C   UNL     1       0.072  -4.874   1.188  0.00  0.00    +0.055 A 
ATOM      2  C   UNL     1      -1.120  -5.246   1.791  0.00  0.00    +0.027 A 
ATOM      3  C   UNL     1      -1.102  -5.944   2.985  0.00  0.00    +0.030 A 
ATOM      4  C   UNL     1       0.102  -6.273   3.580  0.00  0.00    +0.107 A 
ATOM      5  C   UNL     1       1.295  -5.907   2.985  0.00  0.00    +0.053 A 
ATOM      6  C   UNL     1       1.287  -5.212   1.786  0.00  0.00    +0.048 A 
ENDROOT
BRANCH   6   7
ATOM      7  N   UNL     1       2.494  -4.844   1.179  0.00  0.00    -0.356 N 
ATOM      8  H   UNL     1       2.486  -4.354   0.342  0.00  0.00    +0.142 HD
ATOM      9  H   UNL     1       3.337  -5.080   1.596  0.00  0.00    +0.142 HD
ENDBRANCH   6   7
BRANCH   4  10
ATOM     10  S   UNL     1       0.115  -7.162   5.101  0.00  0.00    +0.056 S 
ATOM     11  O   UNL     1       1.356  -6.872   5.730  0.00  0.00    -0.153 OA
ATOM     12  O   UNL     1      -1.135  -6.910   5.730  0.00  0.00    -0.153 OA
BRANCH  10  13
ATOM     13  N   UNL     1       0.139  -8.775   4.726  0.00  0.00    -0.204 NA
ATOM     14  H   UNL     1       0.569  -9.405   5.325  0.00  0.00    +0.144 HD
ATOM     15  H   UNL     1      -0.276  -9.088   3.907  0.00  0.00    +0.144 HD
ENDBRANCH  10  13
ENDBRANCH   4  10
BRANCH   1  16
ATOM     16  N   UNL     1       0.057  -4.168  -0.021  0.00  0.00    -0.302 N 
ATOM     17  C   UNL     1       0.060  -4.893  -1.294  0.00  0.00    +0.135 C 
BRANCH  16  22
ATOM     18  C   UNL     1      -0.018   1.503   0.010  0.00  0.00    +0.044 C 
ATOM     19  C   UNL     1       0.002  -0.004   0.002  0.00  0.00    -0.050 A 
ATOM     20  C   UNL     1       0.006  -0.687  -1.200  0.00  0.00    +0.005 A 
ATOM     21  C   UNL     1       0.024  -2.068  -1.212  0.00  0.00    +0.024 A 
ATOM     22  C   UNL     1       0.039  -2.771  -0.013  0.00  0.00    +0.034 A 
ATOM     23  C   UNL     1       0.036  -2.081   1.193  0.00  0.00    +0.024 A 
ATOM     24  C   UNL     1       0.023  -0.700   1.197  0.00  0.00    +0.005 A 
ENDBRANCH  16  22
ENDBRANCH   1  16
TORSDOF 5
