REMARK  Name = ZINC33129533
REMARK  3 active torsions:
REMARK  status: ('A' for Active; 'I' for Inactive)
REMARK    1  A    between atoms: C_4  and  N_7
REMARK    2  A    between atoms: N_10  and  C_11
REMARK    3  A    between atoms: C_21  and  C_23
REMARK                            x       y       z     vdW  Elec       q    Type
REMARK                         _______ _______ _______ _____ _____    ______ ____
ROOT
ATOM      1  C   UNL     1      -2.523   7.846  -0.116  0.00  0.00    +0.037 A 
ATOM      2  C   UNL     1      -3.716   7.126  -0.116  0.00  0.00    +0.024 A 
ATOM      3  C   UNL     1      -4.917   7.809  -0.101  0.00  0.00    +0.019 A 
ATOM      4  C   UNL     1      -4.919   9.182  -0.096  0.00  0.00    +0.041 A 
ATOM      5  C   UNL     1      -3.731   9.948  -0.101  0.00  0.00    +0.082 A 
ATOM      6  C   UNL     1      -2.518   9.222  -0.111  0.00  0.00    +0.052 A 
ATOM      7  N   UNL     1      -3.900  11.288  -0.095  0.00  0.00    -0.225 NA
ATOM      8  C   UNL     1      -5.086  11.850  -0.086  0.00  0.00    +0.165 A 
ATOM      9  S   UNL     1      -6.178  10.435  -0.083  0.00  0.00    -0.052 S 
ATOM     10  N   UNL     1      -5.410  13.197  -0.078  0.00  0.00    -0.264 N 
ATOM     11  C   UNL     1      -6.702  13.580  -0.068  0.00  0.00    +0.222 C 
ATOM     12  O   UNL     1      -7.581  12.745  -0.065  0.00  0.00    -0.275 OA
ATOM     13  H   UNL     1      -4.612  13.955  -0.080  0.00  0.00    +0.157 HD
ENDROOT
BRANCH   1  17
ATOM     14  N   UNL     1       0.012   5.373   0.608  0.00  0.00    -0.269 N 
ATOM     15  C   UNL     1      -1.183   5.991   0.541  0.00  0.00    +0.308 C 
ATOM     16  O   UNL     1      -2.154   5.498   1.083  0.00  0.00    -0.252 OA
ATOM     17  N   UNL     1      -1.304   7.155  -0.126  0.00  0.00    -0.269 N 
ATOM     18  H   UNL     1       0.905   5.855   0.184  0.00  0.00    +0.156 HD
ATOM     19  H   UNL     1      -0.445   7.563  -0.680  0.00  0.00    +0.156 HD
BRANCH  14  23
ATOM     20  C   UNL     1       0.329   1.637   2.424  0.00  0.00    +0.000 A 
ATOM     21  C   UNL     1       1.119   1.942   1.331  0.00  0.00    +0.002 A 
ATOM     22  C   UNL     1       1.012   3.177   0.723  0.00  0.00    +0.023 A 
ATOM     23  C   UNL     1       0.118   4.118   1.218  0.00  0.00    +0.035 A 
ATOM     24  C   UNL     1      -0.670   3.811   2.319  0.00  0.00    +0.023 A 
ATOM     25  C   UNL     1      -0.563   2.571   2.919  0.00  0.00    +0.002 A 
ENDBRANCH  14  23
ENDBRANCH   1  17
BRANCH  11  26
ATOM     26  C   UNL     1      -7.053  15.046  -0.060  0.00  0.00    +0.075 C 
ATOM     27  C   UNL     1      -6.463  15.705   1.188  0.00  0.00    +0.013 C 
ATOM     28  C   UNL     1      -6.820  17.193   1.197  0.00  0.00    +0.001 C 
ATOM     29  C   UNL     1      -8.342  17.352   1.208  0.00  0.00    +0.000 C 
ATOM     30  C   UNL     1      -8.932  16.692  -0.040  0.00  0.00    +0.001 C 
ATOM     31  C   UNL     1      -8.575  15.205  -0.049  0.00  0.00    +0.013 C 
ENDBRANCH  11  26
TORSDOF 3
