REMARK  Name = ZINC22510964
REMARK  8 active torsions:
REMARK  status: ('A' for Active; 'I' for Inactive)
REMARK    1  A    between atoms: C_1  and  C_2
REMARK    2  A    between atoms: C_7  and  N_8
REMARK    3  A    between atoms: N_8  and  S_9
REMARK    4  A    between atoms: S_9  and  C_12
REMARK    5  A    between atoms: C_15  and  N_18
REMARK    6  A    between atoms: C_19  and  C_21
REMARK    7  A    between atoms: C_24  and  C_27
REMARK    8  A    between atoms: C_27  and  N_28
REMARK                            x       y       z     vdW  Elec       q    Type
REMARK                         _______ _______ _______ _____ _____    ______ ____
ROOT
ATOM      1  N   UNL     1      -0.771   3.725  -5.013  0.00  0.00    -0.282 N 
ATOM      2  C   UNL     1      -0.191   4.934  -5.150  0.00  0.00    +0.248 C 
ATOM      3  O   UNL     1       0.195   5.538  -4.169  0.00  0.00    -0.270 OA
ATOM      4  H   UNL     1      -1.190   3.213  -5.892  0.00  0.00    +0.155 HD
ENDROOT
BRANCH   1   8
ATOM      5  C   UNL     1      -0.972   1.925  -1.262  0.00  0.00    +0.109 A 
ATOM      6  C   UNL     1      -1.097   3.298  -1.377  0.00  0.00    +0.030 A 
ATOM      7  C   UNL     1      -1.025   3.898  -2.618  0.00  0.00    +0.025 A 
ATOM      8  C   UNL     1      -0.838   3.121  -3.754  0.00  0.00    +0.034 A 
ATOM      9  C   UNL     1      -0.719   1.742  -3.636  0.00  0.00    +0.025 A 
ATOM     10  C   UNL     1      -0.787   1.148  -2.391  0.00  0.00    +0.030 A 
BRANCH   5  11
ATOM     11  S   UNL     1      -1.058   1.164   0.325  0.00  0.00    +0.072 S 
ATOM     12  O   UNL     1      -1.465  -0.180   0.109  0.00  0.00    -0.150 OA
ATOM     13  O   UNL     1      -1.781   2.054   1.164  0.00  0.00    -0.150 OA
BRANCH  11  14
ATOM     14  N   UNL     1       0.486   1.101   0.921  0.00  0.00    -0.216 N 
ATOM     15  H   UNL     1       0.942   0.130   1.165  0.00  0.00    +0.174 HD
BRANCH  14  22
ATOM     16  C   UNL     1       3.286   1.056   0.419  0.00  0.00    +0.046 C 
ATOM     17  C   UNL     1       2.578   2.304   0.880  0.00  0.00    -0.028 A 
ATOM     18  C   UNL     1       3.290   3.472   1.071  0.00  0.00    +0.005 A 
ATOM     19  C   UNL     1       2.641   4.618   1.493  0.00  0.00    +0.000 A 
ATOM     20  C   UNL     1       1.278   4.598   1.726  0.00  0.00    +0.002 A 
ATOM     21  C   UNL     1       0.559   3.435   1.533  0.00  0.00    +0.025 A 
ATOM     22  C   UNL     1       1.209   2.281   1.113  0.00  0.00    +0.051 A 
ENDBRANCH  14  22
ENDBRANCH  11  14
ENDBRANCH   5  11
ENDBRANCH   1   8
BRANCH   2  23
ATOM     23  C   UNL     1      -0.026   5.527  -6.495  0.00  0.00    +0.037 A 
ATOM     24  C   UNL     1      -0.464   4.833  -7.625  0.00  0.00    +0.013 A 
ATOM     25  C   UNL     1      -0.310   5.394  -8.876  0.00  0.00    +0.006 A 
ATOM     26  C   UNL     1       0.284   6.636  -9.013  0.00  0.00    -0.030 A 
ATOM     27  C   UNL     1       0.725   7.325  -7.897  0.00  0.00    +0.006 A 
ATOM     28  C   UNL     1       0.573   6.779  -6.640  0.00  0.00    +0.013 A 
BRANCH  26  29
ATOM     29  C   UNL     1       0.453   7.239 -10.383  0.00  0.00    +0.140 C 
BRANCH  29  30
ATOM     30  N   UNL     1       1.684   6.724 -10.997  0.00  0.00    -0.325 N 
ATOM     31  C   UNL     1       2.857   6.988 -10.135  0.00  0.00    +0.110 C 
ATOM     32  C   UNL     1       4.000   7.157 -11.162  0.00  0.00    +0.056 C 
ATOM     33  C   UNL     1       3.268   7.608 -12.410  0.00  0.00    -0.025 A 
ATOM     34  C   UNL     1       1.917   7.329 -12.238  0.00  0.00    +0.033 A 
ATOM     35  C   UNL     1       1.023   7.661 -13.254  0.00  0.00    +0.023 A 
ATOM     36  C   UNL     1       1.478   8.255 -14.413  0.00  0.00    +0.002 A 
ATOM     37  C   UNL     1       2.825   8.524 -14.576  0.00  0.00    +0.000 A 
ATOM     38  C   UNL     1       3.719   8.199 -13.571  0.00  0.00    +0.005 A 
ENDBRANCH  29  30
ENDBRANCH  26  29
ENDBRANCH   2  23
TORSDOF 7
