REMARK  Name = ZINC27685238
REMARK  4 active torsions:
REMARK  status: ('A' for Active; 'I' for Inactive)
REMARK    1  A    between atoms: C_9  and  C_11
REMARK    2  A    between atoms: N_13  and  N_14
REMARK    3  A    between atoms: C_15  and  C_17
REMARK    4  A    between atoms: C_21  and  N_23
REMARK                            x       y       z     vdW  Elec       q    Type
REMARK                         _______ _______ _______ _____ _____    ______ ____
ROOT
ATOM      1  N   UNL     1      -1.191   1.869   0.018  0.00  0.00    -0.230 N 
ATOM      2  C   UNL     1      -0.014   1.211   0.009  0.00  0.00    +0.260 C 
ATOM      3  O   UNL     1       0.002  -0.004   0.002  0.00  0.00    -0.269 OA
ATOM      4  H   UNL     1      -1.206   2.969   0.024  0.00  0.00    +0.173 HD
ENDROOT
BRANCH   2   5
ATOM      5  C   UNL     1       1.256   1.968   0.001  0.00  0.00    +0.040 A 
ATOM      6  C   UNL     1       1.240   3.364   0.003  0.00  0.00    +0.013 A 
ATOM      7  C   UNL     1       2.426   4.068   0.000  0.00  0.00    +0.003 A 
ATOM      8  C   UNL     1       3.634   3.396  -0.014  0.00  0.00    +0.025 A 
ATOM      9  C   UNL     1       3.662   2.006  -0.022  0.00  0.00    +0.052 A 
ATOM     10  C   UNL     1       2.474   1.290  -0.015  0.00  0.00    +0.037 A 
BRANCH   9  11
ATOM     11  N   UNL     1       4.885   1.331  -0.037  0.00  0.00    -0.207 N 
ATOM     12  C   UNL     1       5.154  -0.031   0.457  0.00  0.00    +0.133 C 
ATOM     13  C   UNL     1       6.309  -0.679  -0.334  0.00  0.00    +0.045 C 
ATOM     14  C   UNL     1       7.411   0.420  -0.407  0.00  0.00    +0.190 C 
ATOM     15  S   UNL     1       6.349   1.908  -0.613  0.00  0.00    +0.046 S 
ATOM     16  O   UNL     1       6.133   2.185  -1.990  0.00  0.00    -0.155 OA
ATOM     17  O   UNL     1       6.737   2.932   0.293  0.00  0.00    -0.155 OA
ENDBRANCH   9  11
ENDBRANCH   2   5
BRANCH   1  20
ATOM     18  C   UNL     1      -3.571   1.810   0.029  0.00  0.00    +0.278 C 
ATOM     19  O   UNL     1      -3.587   3.025   0.035  0.00  0.00    -0.267 OA
ATOM     20  N   UNL     1      -2.394   1.152   0.020  0.00  0.00    -0.229 N 
ATOM     21  H   UNL     1      -2.379   0.052   0.014  0.00  0.00    +0.173 HD
BRANCH  18  30
ATOM     22  C   UNL     1      -8.280  -2.469   0.027  0.00  0.00    +0.001 A 
ATOM     23  C   UNL     1      -7.042  -3.109   0.018  0.00  0.00    +0.002 A 
ATOM     24  C   UNL     1      -5.883  -2.397   0.017  0.00  0.00    +0.028 A 
ATOM     25  C   UNL     1      -5.928  -0.990   0.025  0.00  0.00    +0.072 A 
ATOM     26  C   UNL     1      -7.191  -0.341   0.034  0.00  0.00    +0.000 A 
ATOM     27  C   UNL     1      -8.366  -1.111   0.035  0.00  0.00    +0.010 A 
ATOM     28  C   UNL     1      -7.239   1.065   0.042  0.00  0.00    +0.012 A 
ATOM     29  C   UNL     1      -6.059   1.752   0.040  0.00  0.00    +0.034 A 
ATOM     30  C   UNL     1      -4.844   1.052   0.031  0.00  0.00    +0.127 A 
ATOM     31  N   UNL     1      -4.809  -0.267   0.018  0.00  0.00    -0.242 NA
ENDBRANCH  18  30
ENDBRANCH   1  20
TORSDOF 4
