REMARK  Name = ZINC39665121
REMARK  8 active torsions:
REMARK  status: ('A' for Active; 'I' for Inactive)
REMARK    1  A    between atoms: C_1  and  C_2
REMARK    2  A    between atoms: C_2  and  C_4
REMARK    3  A    between atoms: C_2  and  O_32
REMARK    4  A    between atoms: C_4  and  N_5
REMARK    5  A    between atoms: C_6  and  C_8
REMARK    6  A    between atoms: C_19  and  C_21
REMARK    7  A    between atoms: C_25  and  C_27
REMARK    8  A    between atoms: O_32  and  C_33
REMARK                            x       y       z     vdW  Elec       q    Type
REMARK                         _______ _______ _______ _____ _____    ______ ____
ROOT
ATOM      1  C   UNL     1       2.842  -2.178   3.171  0.00  0.00    +0.100 C 
ATOM      2  C   UNL     1       1.500  -2.907   3.406  0.00  0.00    +0.121 C 
ATOM      3  N   UNL     1       1.784  -3.871   4.495  0.00  0.00    -0.296 N 
ATOM      4  C   UNL     1       2.675  -3.131   5.420  0.00  0.00    +0.115 C 
ATOM      5  C   UNL     1       3.610  -2.326   4.495  0.00  0.00    -0.004 C 
ATOM      6  C   UNL     1       3.894  -0.954   5.098  0.00  0.00    -0.010 C 
ATOM      7  C   UNL     1       4.708  -1.125   6.384  0.00  0.00    -0.082 C 
ATOM      8  N   UNL     1       5.966  -1.818   6.080  0.00  0.00    +0.379 N 
ATOM      9  C   UNL     1       5.685  -3.172   5.588  0.00  0.00    -0.082 C 
ATOM     10  C   UNL     1       4.912  -3.088   4.269  0.00  0.00    -0.010 C 
ATOM     11  C   UNL     1       1.334  -5.136   4.616  0.00  0.00    +0.247 C 
ATOM     12  O   UNL     1       0.694  -5.643   3.715  0.00  0.00    -0.270 OA
ATOM     13  H   UNL     1       6.470  -1.303   5.374  0.00  0.00    -0.086 HD
ATOM     14  H   UNL     1       6.527  -1.875   6.916  0.00  0.00    -0.086 HD
ENDROOT
BRANCH  11  15
ATOM     15  C   UNL     1       1.619  -5.906   5.844  0.00  0.00    +0.038 A 
ATOM     16  C   UNL     1       1.935  -5.242   7.031  0.00  0.00    +0.016 A 
ATOM     17  C   UNL     1       2.200  -5.965   8.174  0.00  0.00    +0.039 A 
ATOM     18  C   UNL     1       2.152  -7.351   8.146  0.00  0.00    +0.135 A 
ATOM     19  C   UNL     1       1.838  -8.016   6.971  0.00  0.00    +0.091 A 
ATOM     20  C   UNL     1       1.566  -7.301   5.824  0.00  0.00    +0.028 A 
ATOM     21  F   UNL     1       2.412  -8.056   9.269  0.00  0.00    -0.205 F 
BRANCH  19  22
ATOM     22  C   UNL     1       1.788  -9.522   6.949  0.00  0.00    +0.420 C 
ATOM     23  F   UNL     1       1.453  -9.959   5.663  0.00  0.00    -0.166 F 
ATOM     24  F   UNL     1       3.040 -10.035   7.305  0.00  0.00    -0.166 F 
ATOM     25  F   UNL     1       0.825  -9.970   7.859  0.00  0.00    -0.166 F 
ENDBRANCH  19  22
ENDBRANCH  11  15
BRANCH   1  27
ATOM     26  N   UNL     1       3.469  -0.045   2.086  0.00  0.00    -0.312 N 
ATOM     27  C   UNL     1       2.602  -0.722   2.864  0.00  0.00    +0.218 C 
ATOM     28  O   UNL     1       1.628  -0.160   3.318  0.00  0.00    -0.275 OA
ATOM     29  H   UNL     1       4.247  -0.495   1.722  0.00  0.00    +0.149 HD
BRANCH  26  30
ATOM     30  C   UNL     1       3.235   1.370   1.788  0.00  0.00    +0.148 C 
BRANCH  30  32
ATOM     31  C   UNL     1       4.113   3.373   0.579  0.00  0.00    +0.053 C 
ATOM     32  C   UNL     1       4.358   1.895   0.891  0.00  0.00    +0.187 C 
BRANCH  32  33
ATOM     33  O   UNL     1       5.611   1.750   1.562  0.00  0.00    -0.488 OA
BRANCH  33  34
ATOM     34  C   UNL     1       6.721   1.661   0.784  0.00  0.00    +0.121 A 
ATOM     35  C   UNL     1       7.955   1.398   1.362  0.00  0.00    +0.045 A 
ATOM     36  C   UNL     1       9.082   1.308   0.569  0.00  0.00    +0.004 A 
ATOM     37  C   UNL     1       8.982   1.479  -0.800  0.00  0.00    +0.000 A 
ATOM     38  C   UNL     1       7.754   1.741  -1.378  0.00  0.00    +0.004 A 
ATOM     39  C   UNL     1       6.622   1.827  -0.589  0.00  0.00    +0.045 A 
ENDBRANCH  33  34
ENDBRANCH  32  33
ENDBRANCH  30  32
ENDBRANCH  26  30
ENDBRANCH   1  27
TORSDOF 7
