REMARK  Name = ZINC43757652
REMARK  13 active torsions:
REMARK  status: ('A' for Active; 'I' for Inactive)
REMARK    1  A    between atoms: C_1  and  C_2
REMARK    2  A    between atoms: C_18  and  C_39
REMARK    3  A    between atoms: C_20  and  O_37
REMARK    4  A    between atoms: C_23  and  C_36
REMARK    5  A    between atoms: C_24  and  C_25
REMARK    6  A    between atoms: C_24  and  O_35
REMARK    7  A    between atoms: C_25  and  C_27
REMARK    8  A    between atoms: C_27  and  O_28
REMARK    9  A    between atoms: O_28  and  C_29
REMARK   10  A    between atoms: C_29  and  C_31
REMARK   11  A    between atoms: C_31  and  C_32
REMARK   12  A    between atoms: C_31  and  C_33
REMARK   13  A    between atoms: C_31  and  C_34
REMARK                            x       y       z     vdW  Elec       q    Type
REMARK                         _______ _______ _______ _____ _____    ______ ____
ROOT
ATOM      1  C   UNL     1      -0.710   1.340   0.248  0.00  0.00    +0.011 C 
ATOM      2  C   UNL     1      -0.420  -0.160   0.179  0.00  0.00    +0.026 C 
ATOM      3  C   UNL     1      -1.659  -0.966   0.658  0.00  0.00    +0.011 C 
ATOM      4  C   UNL     1      -1.231  -1.485   2.040  0.00  0.00    +0.005 C 
ATOM      5  C   UNL     1      -2.022  -2.589   2.647  0.00  0.00    +0.037 C 
ATOM      6  C   UNL     1      -2.846  -3.469   1.710  0.00  0.00    +0.048 C 
ATOM      7  C   UNL     1      -3.946  -4.085   2.588  0.00  0.00    +0.194 C 
ATOM      8  C   UNL     1      -3.426  -4.491   3.940  0.00  0.00    -0.020 C 
ATOM      9  C   UNL     1      -4.324  -5.031   4.797  0.00  0.00    +0.054 C 
ATOM     10  C   UNL     1      -3.808  -5.430   6.131  0.00  0.00    +0.179 C 
ATOM     11  O   UNL     1      -4.190  -6.435   6.705  0.00  0.00    -0.288 OA
ATOM     12  C   UNL     1      -2.792  -4.516   6.718  0.00  0.00    +0.047 C 
ATOM     13  C   UNL     1      -1.905  -3.981   5.852  0.00  0.00    -0.009 C 
ATOM     14  C   UNL     1      -2.015  -4.338   4.406  0.00  0.00    +0.047 C 
ATOM     15  C   UNL     1      -1.147  -3.525   3.483  0.00  0.00    +0.153 C 
ATOM     16  C   UNL     1      -0.025  -2.736   4.131  0.00  0.00    +0.154 C 
ATOM     17  C   UNL     1       0.968  -2.266   3.049  0.00  0.00    +0.044 C 
ATOM     18  C   UNL     1       0.253  -1.826   1.805  0.00  0.00    +0.010 C 
ATOM     19  C   UNL     1       0.741  -0.520   1.145  0.00  0.00    +0.135 C 
ATOM     20  C   UNL     1       0.402  -2.906   0.716  0.00  0.00    +0.015 C 
ATOM     21  F   UNL     1      -0.571  -4.472   2.629  0.00  0.00    -0.238 F 
ATOM     22  C   UNL     1      -1.420  -5.747   4.301  0.00  0.00    +0.023 C 
ATOM     23  F   UNL     1      -4.966  -3.142   2.761  0.00  0.00    -0.241 F 
ENDROOT
BRANCH  19  24
ATOM     24  C   UNL     1       0.946   0.578   2.146  0.00  0.00    +0.202 C 
ATOM     25  O   UNL     1       0.313   0.583   3.174  0.00  0.00    -0.291 OA
BRANCH  24  26
ATOM     26  C   UNL     1       1.941   1.675   1.867  0.00  0.00    +0.309 C 
BRANCH  26  27
ATOM     27  O   UNL     1       1.865   2.660   2.899  0.00  0.00    -0.456 OA
BRANCH  27  28
ATOM     28  C   UNL     1       2.692   3.712   2.799  0.00  0.00    +0.313 C 
ATOM     29  O   UNL     1       3.456   3.794   1.867  0.00  0.00    -0.250 OA
BRANCH  28  30
ATOM     30  C   UNL     1       2.669   4.792   3.851  0.00  0.00    +0.059 C 
ATOM     31  C   UNL     1       3.700   5.866   3.502  0.00  0.00    +0.022 C 
ATOM     32  C   UNL     1       1.275   5.421   3.904  0.00  0.00    +0.022 C 
ATOM     33  C   UNL     1       3.006   4.184   5.213  0.00  0.00    +0.022 C 
ENDBRANCH  28  30
ENDBRANCH  27  28
ENDBRANCH  26  27
ENDBRANCH  24  26
ENDBRANCH  19  24
BRANCH  19  34
ATOM     34  O   UNL     1       1.938  -0.771   0.410  0.00  0.00    -0.380 OA
ATOM     35  H   UNL     1       2.252  -0.012  -0.100  0.00  0.00    +0.211 HD
ENDBRANCH  19  34
BRANCH  16  36
ATOM     36  O   UNL     1      -0.550  -1.596   4.817  0.00  0.00    -0.389 OA
ATOM     37  H   UNL     1       0.123  -1.054   5.251  0.00  0.00    +0.210 HD
ENDBRANCH  16  36
TORSDOF 7
