REMARK  Name = ZINC13124155
REMARK  5 active torsions:
REMARK  status: ('A' for Active; 'I' for Inactive)
REMARK    1  A    between atoms: C_6  and  C_7
REMARK    2  A    between atoms: C_10  and  C_28
REMARK    3  A    between atoms: C_15  and  C_17
REMARK    4  A    between atoms: N_19  and  C_20
REMARK    5  A    between atoms: C_20  and  C_21
REMARK                            x       y       z     vdW  Elec       q    Type
REMARK                         _______ _______ _______ _____ _____    ______ ____
ROOT
ATOM      1  C   UNL     1      -1.293  -0.775   0.010  0.00  0.00    +0.104 C 
ATOM      2  C   UNL     1      -1.589  -1.269   1.431  0.00  0.00    +0.063 C 
ATOM      3  C   UNL     1      -0.418  -2.115   1.943  0.00  0.00    +0.215 C 
ATOM      4  N   UNL     1      -0.081  -3.121   0.932  0.00  0.00    -0.238 N 
ATOM      5  C   UNL     1      -0.447  -3.028  -0.381  0.00  0.00    +0.119 A 
ATOM      6  C   UNL     1       0.021  -4.115  -1.025  0.00  0.00    +0.078 A 
ATOM      7  C   UNL     1       0.702  -4.912  -0.078  0.00  0.00    +0.149 A 
ATOM      8  N   UNL     1       0.636  -4.306   1.094  0.00  0.00    -0.164 NA
ATOM      9  N   UNL     1      -1.180  -1.944  -0.884  0.00  0.00    -0.322 N 
ATOM     10  H   UNL     1      -1.590  -1.960  -1.763  0.00  0.00    +0.148 HD
ENDROOT
BRANCH   1  16
ATOM     11  C   UNL     1      -0.017   1.378   0.010  0.00  0.00    +0.008 A 
ATOM     12  C   UNL     1       1.170   2.086   0.002  0.00  0.00    +0.038 A 
ATOM     13  C   UNL     1       2.379   1.410  -0.013  0.00  0.00    +0.123 A 
ATOM     14  C   UNL     1       2.396   0.026  -0.021  0.00  0.00    +0.038 A 
ATOM     15  C   UNL     1       1.208  -0.680  -0.013  0.00  0.00    +0.008 A 
ATOM     16  C   UNL     1       0.002  -0.004   0.002  0.00  0.00    -0.027 A 
ATOM     17  F   UNL     1       3.540   2.101  -0.021  0.00  0.00    -0.205 F 
ENDBRANCH   1  16
BRANCH   7  18
ATOM     18  C   UNL     1       1.374  -6.200  -0.351  0.00  0.00    +0.264 C 
ATOM     19  O   UNL     1       1.369  -6.661  -1.476  0.00  0.00    -0.268 OA
ATOM     20  N   UNL     1       1.991  -6.863   0.647  0.00  0.00    -0.308 N 
ATOM     21  H   UNL     1       1.994  -6.495   1.544  0.00  0.00    +0.149 HD
BRANCH  20  22
ATOM     22  C   UNL     1       2.657  -8.139   0.376  0.00  0.00    +0.136 C 
BRANCH  22  23
ATOM     23  C   UNL     1       3.273  -8.678   1.669  0.00  0.00    +0.135 C 
ATOM     24  C   UNL     1       4.079  -9.960   1.370  0.00  0.00    +0.035 C 
ATOM     25  C   UNL     1       3.749 -10.850   2.600  0.00  0.00    +0.031 C 
ATOM     26  C   UNL     1       2.285 -10.430   2.883  0.00  0.00    +0.160 C 
ATOM     27  O   UNL     1       2.236  -9.021   2.595  0.00  0.00    -0.375 OA
ENDBRANCH  22  23
ENDBRANCH  20  22
ENDBRANCH   7  18
BRANCH   3  28
ATOM     28  C   UNL     1      -0.820  -2.809   3.246  0.00  0.00    +0.412 C 
ATOM     29  F   UNL     1      -1.924  -3.636   3.013  0.00  0.00    -0.168 F 
ATOM     30  F   UNL     1       0.250  -3.581   3.712  0.00  0.00    -0.168 F 
ATOM     31  F   UNL     1      -1.152  -1.846   4.205  0.00  0.00    -0.168 F 
ENDBRANCH   3  28
TORSDOF 5
