REMARK  Name = ZINC33113515
REMARK  5 active torsions:
REMARK  status: ('A' for Active; 'I' for Inactive)
REMARK    1  A    between atoms: C_4  and  N_7
REMARK    2  A    between atoms: C_8  and  C_10
REMARK    3  A    between atoms: C_13  and  C_15
REMARK    4  A    between atoms: N_24  and  C_25
REMARK    5  A    between atoms: C_30  and  C_31
REMARK                            x       y       z     vdW  Elec       q    Type
REMARK                         _______ _______ _______ _____ _____    ______ ____
ROOT
ATOM      1  C   UNL     1       9.159   0.079  -1.264  0.00  0.00    +0.064 C 
ATOM      2  C   UNL     1       9.264  -1.075  -2.263  0.00  0.00    +0.013 C 
ATOM      3  C   UNL     1      10.673  -1.672  -2.210  0.00  0.00    +0.020 C 
ATOM      4  C   UNL     1      10.937  -2.222  -0.805  0.00  0.00    +0.109 C 
ATOM      5  N   UNL     1      10.697  -1.154   0.175  0.00  0.00    -0.285 N 
ATOM      6  C   UNL     1       9.407  -0.452   0.152  0.00  0.00    +0.119 C 
ATOM      7  C   UNL     1      11.643  -0.824   1.077  0.00  0.00    +0.306 C 
ATOM      8  O   UNL     1      11.399  -0.003   1.940  0.00  0.00    -0.252 OA
ATOM      9  N   UNL     1      12.857  -1.405   1.023  0.00  0.00    -0.269 N 
ATOM     10  H   UNL     1      13.067  -2.172   0.262  0.00  0.00    +0.156 HD
ENDROOT
BRANCH   9  11
ATOM     11  C   UNL     1      13.852  -1.034   1.935  0.00  0.00    +0.046 A 
ATOM     12  C   UNL     1      13.503  -0.458   3.149  0.00  0.00    +0.024 A 
ATOM     13  C   UNL     1      14.486  -0.093   4.047  0.00  0.00    +0.002 A 
ATOM     14  C   UNL     1      15.818  -0.300   3.737  0.00  0.00    +0.001 A 
ATOM     15  C   UNL     1      16.169  -0.872   2.529  0.00  0.00    +0.014 A 
ATOM     16  C   UNL     1      15.190  -1.245   1.629  0.00  0.00    +0.076 A 
BRANCH  16  17
ATOM     17  C   UNL     1      15.573  -1.874   0.315  0.00  0.00    +0.419 C 
ATOM     18  F   UNL     1      16.966  -1.982   0.238  0.00  0.00    -0.166 F 
ATOM     19  F   UNL     1      15.001  -3.148   0.223  0.00  0.00    -0.166 F 
ATOM     20  F   UNL     1      15.108  -1.077  -0.737  0.00  0.00    -0.166 F 
ENDBRANCH  16  17
ENDBRANCH   9  11
BRANCH   1  24
ATOM     21  C   UNL     1       5.548   2.063  -1.564  0.00  0.00    +0.187 A 
ATOM     22  N   UNL     1       5.526   0.775  -1.230  0.00  0.00    -0.136 NA
ATOM     23  N   UNL     1       6.604   0.127  -1.126  0.00  0.00    -0.145 NA
ATOM     24  C   UNL     1       7.782   0.686  -1.339  0.00  0.00    +0.107 A 
ATOM     25  S   UNL     1       7.311   2.312  -1.739  0.00  0.00    -0.046 S 
BRANCH  21  27
ATOM     26  N   UNL     1       3.165   2.603  -1.565  0.00  0.00    -0.280 N 
ATOM     27  C   UNL     1       4.436   3.012  -1.745  0.00  0.00    +0.275 C 
ATOM     28  O   UNL     1       4.666   4.165  -2.057  0.00  0.00    -0.268 OA
ATOM     29  H   UNL     1       2.961   1.585  -1.200  0.00  0.00    +0.155 HD
BRANCH  26  33
ATOM     30  C   UNL     1       0.008   5.191  -2.388  0.00  0.00    +0.000 A 
ATOM     31  C   UNL     1       1.179   5.684  -1.843  0.00  0.00    +0.002 A 
ATOM     32  C   UNL     1       2.230   4.829  -1.573  0.00  0.00    +0.023 A 
ATOM     33  C   UNL     1       2.105   3.472  -1.841  0.00  0.00    +0.034 A 
ATOM     34  C   UNL     1       0.925   2.980  -2.385  0.00  0.00    +0.023 A 
ATOM     35  C   UNL     1      -0.120   3.841  -2.657  0.00  0.00    +0.002 A 
ENDBRANCH  26  33
ENDBRANCH  21  27
ENDBRANCH   1  24
TORSDOF 5
