REMARK  Name = ZINC36637282
REMARK  11 active torsions:
REMARK  status: ('A' for Active; 'I' for Inactive)
REMARK    1  A    between atoms: C_1  and  C_2
REMARK    2  A    between atoms: C_2  and  C_3
REMARK    3  A    between atoms: N_9  and  S_10
REMARK    4  A    between atoms: S_10  and  C_13
REMARK    5  A    between atoms: C_16  and  C_19
REMARK    6  A    between atoms: N_21  and  C_22
REMARK    7  A    between atoms: C_22  and  C_23
REMARK    8  A    between atoms: C_23  and  N_24
REMARK    9  A    between atoms: N_24  and  C_25
REMARK   10  A    between atoms: N_24  and  C_26
REMARK   11  A    between atoms: C_32  and  C_36
REMARK                            x       y       z     vdW  Elec       q    Type
REMARK                         _______ _______ _______ _____ _____    ______ ____
ROOT
ATOM      1  C   UNL     1       1.829  -2.733  -6.213  0.00  0.00    +0.252 C 
ATOM      2  O   UNL     1       2.997  -2.973  -5.978  0.00  0.00    -0.270 OA
ATOM      3  N   UNL     1       1.279  -3.137  -7.376  0.00  0.00    -0.248 N 
ATOM      4  C   UNL     1       1.999  -3.946  -8.238  0.00  0.00    +0.168 A 
ATOM      5  N   UNL     1       1.641  -4.430  -9.404  0.00  0.00    -0.224 NA
ATOM      6  C   UNL     1       2.454  -5.213 -10.146  0.00  0.00    +0.080 A 
ATOM      7  C   UNL     1       2.192  -5.796 -11.408  0.00  0.00    +0.029 A 
ATOM      8  C   UNL     1       3.135  -6.572 -12.029  0.00  0.00    +0.005 A 
ATOM      9  C   UNL     1       4.372  -6.814 -11.449  0.00  0.00    -0.049 A 
ATOM     10  C   UNL     1       4.662  -6.261 -10.215  0.00  0.00    +0.020 A 
ATOM     11  C   UNL     1       3.724  -5.482  -9.585  0.00  0.00    +0.041 A 
ATOM     12  S   UNL     1       3.656  -4.589  -8.051  0.00  0.00    -0.052 S 
ATOM     13  C   UNL     1       5.389  -7.673 -12.155  0.00  0.00    +0.044 C 
ENDROOT
BRANCH   1  17
ATOM     14  C   UNL     1      -0.522  -0.627  -3.371  0.00  0.00    +0.106 A 
ATOM     15  C   UNL     1      -0.697  -0.388  -4.722  0.00  0.00    +0.029 A 
ATOM     16  C   UNL     1       0.063  -1.068  -5.651  0.00  0.00    +0.015 A 
ATOM     17  C   UNL     1       1.011  -2.000  -5.224  0.00  0.00    +0.037 A 
ATOM     18  C   UNL     1       1.183  -2.237  -3.859  0.00  0.00    +0.015 A 
ATOM     19  C   UNL     1       0.420  -1.545  -2.941  0.00  0.00    +0.029 A 
BRANCH  14  20
ATOM     20  S   UNL     1      -1.497   0.246  -2.192  0.00  0.00    +0.061 S 
ATOM     21  O   UNL     1      -1.676  -0.628  -1.086  0.00  0.00    -0.153 OA
ATOM     22  O   UNL     1      -2.591   0.807  -2.905  0.00  0.00    -0.153 OA
BRANCH  20  28
ATOM     23  C   UNL     1      -0.477   2.753  -2.435  0.00  0.00    +0.080 C 
ATOM     24  C   UNL     1       1.004   3.077  -2.650  0.00  0.00    +0.021 C 
ATOM     25  C   UNL     1       1.712   3.132  -1.294  0.00  0.00    +0.003 C 
ATOM     26  C   UNL     1       1.610   1.768  -0.607  0.00  0.00    +0.017 C 
ATOM     27  C   UNL     1       0.135   1.429  -0.369  0.00  0.00    +0.110 C 
ATOM     28  N   UNL     1      -0.585   1.517  -1.648  0.00  0.00    -0.174 NA
BRANCH  23  30
ATOM     29  C   UNL     1      -0.957   3.808  -4.649  0.00  0.00    +0.005 C 
ATOM     30  C   UNL     1      -1.161   2.559  -3.790  0.00  0.00    +0.017 C 
ENDBRANCH  23  30
ENDBRANCH  20  28
ENDBRANCH  14  20
ENDBRANCH   1  17
BRANCH   3  31
ATOM     31  C   UNL     1      -0.081  -2.719  -7.727  0.00  0.00    +0.097 C 
BRANCH  31  32
ATOM     32  C   UNL     1      -0.017  -1.536  -8.695  0.00  0.00    -0.060 C 
BRANCH  32  33
ATOM     33  N   UNL     1      -1.374  -1.027  -8.937  0.00  0.00    +0.377 N 
ATOM     34  C   UNL     1      -1.303   0.181  -9.769  0.00  0.00    -0.097 C 
ATOM     35  C   UNL     1      -2.165  -2.053  -9.629  0.00  0.00    -0.097 C 
ATOM     36  H   UNL     1      -1.811  -0.803  -8.055  0.00  0.00    -0.083 HD
ENDBRANCH  32  33
ENDBRANCH  31  32
ENDBRANCH   3  31
TORSDOF 7
