REMARK  Name = ZINC13211872
REMARK  8 active torsions:
REMARK  status: ('A' for Active; 'I' for Inactive)
REMARK    1  A    between atoms: C_1  and  C_2
REMARK    2  A    between atoms: C_2  and  C_4
REMARK    3  A    between atoms: C_2  and  N_12
REMARK    4  A    between atoms: N_12  and  C_13
REMARK    5  A    between atoms: C_16  and  N_30
REMARK    6  A    between atoms: C_18  and  S_19
REMARK    7  A    between atoms: S_19  and  N_22
REMARK    8  A    between atoms: C_25  and  C_28
REMARK                            x       y       z     vdW  Elec       q    Type
REMARK                         _______ _______ _______ _____ _____    ______ ____
ROOT
ATOM      1  C   UNL     1       1.285  -0.033   0.569  0.00  0.00    +0.054 A 
ATOM      2  C   UNL     1       2.353   0.854   0.608  0.00  0.00    +0.027 A 
ATOM      3  C   UNL     1       2.122   2.203   0.793  0.00  0.00    +0.034 A 
ATOM      4  C   UNL     1       0.828   2.671   0.939  0.00  0.00    +0.128 A 
ATOM      5  C   UNL     1      -0.237   1.790   0.900  0.00  0.00    +0.063 A 
ATOM      6  C   UNL     1      -0.013   0.440   0.715  0.00  0.00    +0.128 A 
ENDROOT
BRANCH   6   7
ATOM      7  S   UNL     1      -1.371  -0.681   0.666  0.00  0.00    +0.063 S 
ATOM      8  O   UNL     1      -2.547   0.097   0.840  0.00  0.00    -0.153 OA
ATOM      9  O   UNL     1      -1.169  -1.514  -0.467  0.00  0.00    -0.153 OA
BRANCH   7  10
ATOM     10  N   UNL     1      -1.248  -1.657   1.998  0.00  0.00    -0.176 NA
ATOM     11  C   UNL     1      -0.606  -2.975   1.905  0.00  0.00    +0.110 C 
ATOM     12  C   UNL     1      -1.562  -4.035   2.448  0.00  0.00    +0.032 C 
ATOM     13  C   UNL     1      -1.999  -3.647   3.863  0.00  0.00    +0.105 C 
ATOM     14  C   UNL     1      -2.734  -2.306   3.822  0.00  0.00    +0.032 C 
ATOM     15  C   UNL     1      -1.786  -1.224   3.296  0.00  0.00    +0.110 C 
BRANCH  13  16
ATOM     16  C   UNL     1      -2.918  -4.707   4.413  0.00  0.00    +0.359 C 
ATOM     17  O   UNL     1      -4.045  -4.420   4.739  0.00  0.00    -0.246 OA
ATOM     18  O   UNL     1      -2.484  -5.971   4.541  0.00  0.00    -0.246 OA
ENDBRANCH  13  16
ENDBRANCH   7  10
ENDBRANCH   6   7
BRANCH   4  19
ATOM     19  N   UNL     1       0.584   4.117   1.136  0.00  0.00    +0.056 N 
ATOM     20  O   UNL     1      -0.554   4.530   1.264  0.00  0.00    -0.126 OA
ATOM     21  O   UNL     1       1.522   4.894   1.171  0.00  0.00    -0.126 OA
ENDBRANCH   4  19
BRANCH   1  22
ATOM     22  N   UNL     1       1.516  -1.398   0.381  0.00  0.00    -0.336 N 
ATOM     23  H   UNL     1       0.767  -2.011   0.311  0.00  0.00    +0.147 HD
BRANCH  22  25
ATOM     24  C   UNL     1       3.406  -1.719  -1.136  0.00  0.00    +0.033 C 
ATOM     25  C   UNL     1       2.888  -1.904   0.291  0.00  0.00    +0.098 C 
BRANCH  25  26
ATOM     26  C   UNL     1       2.908  -3.368   0.648  0.00  0.00    -0.025 A 
ATOM     27  C   UNL     1       3.857  -3.850   1.530  0.00  0.00    +0.008 A 
ATOM     28  C   UNL     1       3.877  -5.193   1.859  0.00  0.00    +0.041 A 
ATOM     29  C   UNL     1       2.946  -6.055   1.306  0.00  0.00    +0.158 A 
ATOM     30  C   UNL     1       1.995  -5.571   0.421  0.00  0.00    +0.159 A 
ATOM     31  C   UNL     1       1.974  -4.225   0.098  0.00  0.00    +0.046 A 
ATOM     32  F   UNL     1       1.085  -6.411  -0.120  0.00  0.00    -0.202 F 
ATOM     33  F   UNL     1       2.965  -7.367   1.627  0.00  0.00    -0.202 F 
ENDBRANCH  25  26
ENDBRANCH  22  25
ENDBRANCH   1  22
TORSDOF 7
