REMARK  Name = ZINC45549139
REMARK  6 active torsions:
REMARK  status: ('A' for Active; 'I' for Inactive)
REMARK    1  A    between atoms: C_1  and  C_2
REMARK    2  A    between atoms: C_10  and  C_11
REMARK    3  A    between atoms: N_13  and  N_14
REMARK    4  A    between atoms: C_15  and  C_17
REMARK    5  A    between atoms: N_20  and  C_23
REMARK    6  A    between atoms: C_21  and  C_22
REMARK                            x       y       z     vdW  Elec       q    Type
REMARK                         _______ _______ _______ _____ _____    ______ ____
ROOT
ATOM      1  N   UNL     1       0.551  -0.991   4.841  0.00  0.00    -0.230 N 
ATOM      2  C   UNL     1       0.331  -1.860   5.848  0.00  0.00    +0.263 C 
ATOM      3  O   UNL     1       0.239  -3.050   5.615  0.00  0.00    -0.269 OA
ATOM      4  H   UNL     1       0.624  -0.042   5.027  0.00  0.00    +0.173 HD
ENDROOT
BRANCH   2   5
ATOM      5  C   UNL     1       0.201  -1.367   7.231  0.00  0.00    +0.079 A 
ATOM      6  C   UNL     1       0.278  -0.021   7.653  0.00  0.00    +0.148 A 
ATOM      7  N   UNL     1       0.114   0.008   8.947  0.00  0.00    -0.174 NA
ATOM      8  N   UNL     1      -0.073  -1.299   9.410  0.00  0.00    -0.236 N 
ATOM      9  C   UNL     1      -0.025  -2.135   8.357  0.00  0.00    +0.054 A 
ATOM     10  C   UNL     1      -0.184  -3.633   8.398  0.00  0.00    +0.066 C 
BRANCH   8  11
ATOM     11  C   UNL     1      -0.281  -1.674  10.744  0.00  0.00    +0.066 A 
ATOM     12  C   UNL     1      -1.131  -0.930  11.551  0.00  0.00    +0.029 A 
ATOM     13  C   UNL     1      -1.335  -1.302  12.866  0.00  0.00    +0.017 A 
ATOM     14  C   UNL     1      -0.692  -2.414  13.379  0.00  0.00    +0.018 A 
ATOM     15  C   UNL     1       0.156  -3.157  12.577  0.00  0.00    +0.017 A 
ATOM     16  C   UNL     1       0.358  -2.793  11.260  0.00  0.00    +0.029 A 
ATOM     17 BR   UNL     1      -0.972  -2.920  15.179  0.00  0.00    -0.050 Br
ENDBRANCH   8  11
ENDBRANCH   2   5
BRANCH   1  20
ATOM     18  C   UNL     1       0.895  -0.591   2.520  0.00  0.00    +0.296 C 
ATOM     19  O   UNL     1       0.987   0.600   2.753  0.00  0.00    -0.265 OA
ATOM     20  N   UNL     1       0.675  -1.460   3.526  0.00  0.00    -0.228 N 
ATOM     21  H   UNL     1       0.602  -2.409   3.341  0.00  0.00    +0.173 HD
BRANCH  18  31
ATOM     22  C   UNL     1       1.404   1.196   0.026  0.00  0.00    +0.048 C 
ATOM     23  C   UNL     1       1.247  -0.302   0.051  0.00  0.00    +0.008 A 
ATOM     24  C   UNL     1       1.309  -1.212  -1.092  0.00  0.00    +0.024 A 
ATOM     25  C   UNL     1       1.512  -1.040  -2.464  0.00  0.00    +0.012 A 
ATOM     26  C   UNL     1       1.512  -2.128  -3.290  0.00  0.00    +0.001 A 
ATOM     27  C   UNL     1       1.311  -3.402  -2.776  0.00  0.00    +0.004 A 
ATOM     28  C   UNL     1       1.109  -3.593  -1.426  0.00  0.00    +0.047 A 
ATOM     29  C   UNL     1       1.105  -2.501  -0.566  0.00  0.00    +0.136 A 
ATOM     30  O   UNL     1       0.938  -2.375   0.765  0.00  0.00    -0.450 OA
ATOM     31  C   UNL     1       1.025  -1.082   1.141  0.00  0.00    +0.195 A 
ENDBRANCH  18  31
ENDBRANCH   1  20
TORSDOF 4
