REMARK  Name = ZINC02595210
REMARK  8 active torsions:
REMARK  status: ('A' for Active; 'I' for Inactive)
REMARK    1  A    between atoms: C_1  and  C_2
REMARK    2  A    between atoms: C_2  and  C_3
REMARK    3  A    between atoms: C_2  and  O_4
REMARK    4  A    between atoms: O_4  and  C_5
REMARK    5  A    between atoms: C_8  and  C_11
REMARK    6  A    between atoms: N_13  and  C_14
REMARK    7  A    between atoms: C_14  and  C_28
REMARK    8  A    between atoms: N_17  and  C_21
REMARK                            x       y       z     vdW  Elec       q    Type
REMARK                         _______ _______ _______ _____ _____    ______ ____
ROOT
ATOM      1  C   UNL     1      -5.833  -1.512  -6.307  0.00  0.00    +0.278 C 
ATOM      2  C   UNL     1      -5.120  -2.610  -7.072  0.00  0.00    +0.274 C 
ATOM      3  O   UNL     1      -3.966  -2.612  -7.444  0.00  0.00    -0.271 OA
ATOM      4  N   UNL     1      -6.035  -3.582  -7.252  0.00  0.00    -0.219 N 
ATOM      5  C   UNL     1      -7.215  -3.256  -6.713  0.00  0.00    +0.311 C 
ATOM      6  O   UNL     1      -8.196  -3.973  -6.749  0.00  0.00    -0.252 OA
ATOM      7  N   UNL     1      -7.195  -2.044  -6.129  0.00  0.00    -0.263 N 
ATOM      8  H   UNL     1      -7.934  -1.606  -5.678  0.00  0.00    +0.153 HD
ENDROOT
BRANCH   4   9
ATOM      9  C   UNL     1      -5.771  -4.842  -7.953  0.00  0.00    +0.086 C 
ATOM     10  C   UNL     1      -6.669  -4.915  -9.204  0.00  0.00    +0.023 C 
ATOM     11  C   UNL     1      -6.066  -5.902 -10.168  0.00  0.00    +0.002 C 
ATOM     12  C   UNL     1      -6.657  -7.316 -10.011  0.00  0.00    +0.000 C 
ATOM     13  C   UNL     1      -6.846  -7.724  -8.538  0.00  0.00    +0.000 C 
ATOM     14  C   UNL     1      -5.684  -7.316  -7.674  0.00  0.00    +0.002 C 
ATOM     15  C   UNL     1      -6.003  -5.948  -7.037  0.00  0.00    +0.023 C 
ENDBRANCH   4   9
BRANCH   1  18
ATOM     16  C   UNL     1      -3.870  -1.038  -4.944  0.00  0.00    +0.246 C 
ATOM     17  O   UNL     1      -3.225  -0.911  -5.967  0.00  0.00    -0.270 OA
ATOM     18  N   UNL     1      -5.193  -1.289  -5.009  0.00  0.00    -0.276 N 
ATOM     19  H   UNL     1      -5.721  -1.322  -4.196  0.00  0.00    +0.152 HD
BRANCH  16  23
ATOM     20  C   UNL     1      -1.958  -0.687  -1.169  0.00  0.00    +0.121 A 
ATOM     21  C   UNL     1      -1.218  -0.543  -2.336  0.00  0.00    +0.046 A 
ATOM     22  C   UNL     1      -1.835  -0.655  -3.562  0.00  0.00    +0.016 A 
ATOM     23  C   UNL     1      -3.206  -0.916  -3.632  0.00  0.00    +0.037 A 
ATOM     24  C   UNL     1      -3.946  -1.061  -2.455  0.00  0.00    +0.016 A 
ATOM     25  C   UNL     1      -3.321  -0.952  -1.233  0.00  0.00    +0.046 A 
BRANCH  20  26
ATOM     26  O   UNL     1      -1.347  -0.575   0.038  0.00  0.00    -0.489 OA
BRANCH  26  28
ATOM     27  C   UNL     1       0.152   1.318  -0.054  0.00  0.00    +0.051 C 
ATOM     28  C   UNL     1       0.033  -0.205   0.034  0.00  0.00    +0.167 C 
ATOM     29  C   UNL     1       0.696  -0.694   1.323  0.00  0.00    +0.051 C 
ENDBRANCH  26  28
ENDBRANCH  20  26
ENDBRANCH  16  23
ENDBRANCH   1  18
BRANCH   1  30
ATOM     30  C   UNL     1      -5.863  -0.217  -7.121  0.00  0.00    +0.436 C 
ATOM     31  F   UNL     1      -4.556   0.159  -7.448  0.00  0.00    -0.166 F 
ATOM     32  F   UNL     1      -6.597  -0.420  -8.294  0.00  0.00    -0.166 F 
ATOM     33  F   UNL     1      -6.464   0.795  -6.364  0.00  0.00    -0.166 F 
ENDBRANCH   1  30
TORSDOF 6
