REMARK  Name = ZINC39669150
REMARK  9 active torsions:
REMARK  status: ('A' for Active; 'I' for Inactive)
REMARK    1  A    between atoms: C_1  and  C_2
REMARK    2  A    between atoms: C_2  and  C_3
REMARK    3  A    between atoms: C_3  and  C_4
REMARK    4  A    between atoms: C_4  and  C_5
REMARK    5  A    between atoms: C_5  and  C_7
REMARK    6  A    between atoms: C_5  and  C_8
REMARK    7  A    between atoms: C_12  and  C_21
REMARK    8  A    between atoms: N_23  and  C_24
REMARK    9  A    between atoms: C_24  and  C_25
REMARK                            x       y       z     vdW  Elec       q    Type
REMARK                         _______ _______ _______ _____ _____    ______ ____
ROOT
ATOM      1  C   UNL     1       1.077  -3.921  -2.714  0.00  0.00    +0.218 C 
ATOM      2  O   UNL     1       0.371  -4.582  -1.983  0.00  0.00    -0.275 OA
ATOM      3  N   UNL     1       1.828  -4.527  -3.655  0.00  0.00    -0.300 N 
ATOM      4  C   UNL     1       2.828  -3.908  -4.557  0.00  0.00    +0.121 C 
ATOM      5  C   UNL     1       3.979  -4.937  -4.628  0.00  0.00    +0.100 C 
ATOM      6  C   UNL     1       3.323  -6.283  -4.278  0.00  0.00    -0.004 C 
ATOM      7  C   UNL     1       1.844  -5.964  -4.018  0.00  0.00    +0.115 C 
ATOM      8  C   UNL     1       3.959  -6.870  -3.021  0.00  0.00    -0.010 C 
ATOM      9  C   UNL     1       3.331  -8.234  -2.725  0.00  0.00    -0.082 C 
ATOM     10  N   UNL     1       3.543  -9.130  -3.869  0.00  0.00    +0.379 N 
ATOM     11  C   UNL     1       2.850  -8.606  -5.052  0.00  0.00    -0.082 C 
ATOM     12  C   UNL     1       3.458  -7.256  -5.445  0.00  0.00    -0.010 C 
ATOM     13  H   UNL     1       4.531  -9.199  -4.062  0.00  0.00    -0.086 HD
ATOM     14  H   UNL     1       3.182 -10.046  -3.648  0.00  0.00    -0.086 HD
ENDROOT
BRANCH   5  15
ATOM     15  C   UNL     1       5.050  -4.596  -3.625  0.00  0.00    +0.218 C 
ATOM     16  O   UNL     1       4.769  -3.962  -2.629  0.00  0.00    -0.275 OA
ATOM     17  N   UNL     1       6.321  -4.994  -3.834  0.00  0.00    -0.312 N 
ATOM     18  H   UNL     1       6.545  -5.500  -4.630  0.00  0.00    +0.149 HD
BRANCH  17  19
ATOM     19  C   UNL     1       7.362  -4.662  -2.858  0.00  0.00    +0.140 C 
BRANCH  19  20
ATOM     20  C   UNL     1       8.703  -5.227  -3.332  0.00  0.00    +0.165 C 
ATOM     21  C   UNL     1       9.744  -4.999  -2.268  0.00  0.00    -0.014 A 
ATOM     22  C   UNL     1       9.410  -5.246  -0.945  0.00  0.00    +0.006 A 
ATOM     23  C   UNL     1      10.341  -5.052   0.056  0.00  0.00    +0.000 A 
ATOM     24  C   UNL     1      11.612  -4.610  -0.260  0.00  0.00    +0.000 A 
ATOM     25  C   UNL     1      11.945  -4.362  -1.577  0.00  0.00    +0.004 A 
ATOM     26  C   UNL     1      11.011  -4.553  -2.582  0.00  0.00    -0.040 A 
ATOM     27  C   UNL     1      11.407  -4.259  -4.007  0.00  0.00    +0.063 C 
ATOM     28  C   UNL     1      10.414  -4.916  -4.966  0.00  0.00    +0.165 C 
ATOM     29  O   UNL     1       9.088  -4.578  -4.543  0.00  0.00    -0.370 OA
ENDBRANCH  19  20
ENDBRANCH  17  19
ENDBRANCH   5  15
BRANCH   1  30
ATOM     30  C   UNL     1       1.114  -2.421  -2.572  0.00  0.00    +0.072 C 
ATOM     31  C   UNL     1       0.960  -2.045  -1.097  0.00  0.00    +0.017 C 
BRANCH  30  32
ATOM     32  C   UNL     1      -0.031  -1.804  -3.377  0.00  0.00    +0.012 C 
BRANCH  32  33
ATOM     33  C   UNL     1       0.080  -0.278  -3.335  0.00  0.00    +0.000 C 
BRANCH  33  35
ATOM     34  C   UNL     1      -0.954   1.865  -4.098  0.00  0.00    +0.004 C 
ATOM     35  C   UNL     1      -1.065   0.339  -4.140  0.00  0.00    -0.003 C 
ENDBRANCH  33  35
ENDBRANCH  32  33
ENDBRANCH  30  32
ENDBRANCH   1  30
TORSDOF 7
