REMARK  Name = ZINC13805999
REMARK  7 active torsions:
REMARK  status: ('A' for Active; 'I' for Inactive)
REMARK    1  A    between atoms: C_3  and  C_6
REMARK    2  A    between atoms: C_12  and  S_15
REMARK    3  A    between atoms: S_15  and  C_16
REMARK    4  A    between atoms: C_16  and  C_17
REMARK    5  A    between atoms: N_19  and  C_20
REMARK    6  A    between atoms: C_22  and  C_30
REMARK    7  A    between atoms: C_24  and  C_26
REMARK                            x       y       z     vdW  Elec       q    Type
REMARK                         _______ _______ _______ _____ _____    ______ ____
ROOT
ATOM      1  C   UNL     1       3.266   6.010   0.048  0.00  0.00    +0.227 C 
ATOM      2  O   UNL     1       2.322   6.771   0.052  0.00  0.00    -0.275 OA
ATOM      3  N   UNL     1       4.524   6.495   0.039  0.00  0.00    -0.285 N 
ATOM      4  H   UNL     1       5.277   5.889  -0.044  0.00  0.00    +0.155 HD
ENDROOT
BRANCH   3   5
ATOM      5  C   UNL     1       4.743   7.872   0.148  0.00  0.00    +0.034 A 
ATOM      6  C   UNL     1       5.802   8.464  -0.528  0.00  0.00    +0.035 A 
ATOM      7  C   UNL     1       6.012   9.825  -0.423  0.00  0.00    +0.057 A 
ATOM      8  C   UNL     1       5.176  10.597   0.364  0.00  0.00    +0.024 A 
ATOM      9  C   UNL     1       4.124  10.009   1.043  0.00  0.00    +0.057 A 
ATOM     10  C   UNL     1       3.905   8.650   0.937  0.00  0.00    +0.035 A 
BRANCH   9  11
ATOM     11  C   UNL     1       3.216  10.854   1.899  0.00  0.00    +0.417 C 
ATOM     12  F   UNL     1       2.235  10.043   2.479  0.00  0.00    -0.166 F 
ATOM     13  F   UNL     1       3.965  11.472   2.905  0.00  0.00    -0.166 F 
ATOM     14  F   UNL     1       2.604  11.831   1.106  0.00  0.00    -0.166 F 
ENDBRANCH   9  11
BRANCH   7  15
ATOM     15  C   UNL     1       7.157  10.470  -1.161  0.00  0.00    +0.417 C 
ATOM     16  F   UNL     1       8.297  10.461  -0.351  0.00  0.00    -0.166 F 
ATOM     17  F   UNL     1       7.415   9.756  -2.336  0.00  0.00    -0.166 F 
ATOM     18  F   UNL     1       6.822  11.790  -1.481  0.00  0.00    -0.166 F 
ENDBRANCH   7  15
ENDBRANCH   3   5
BRANCH   1  19
ATOM     19  C   UNL     1       3.033   4.521   0.051  0.00  0.00    +0.172 C 
BRANCH  19  20
ATOM     20  S   UNL     1       1.250   4.188   0.064  0.00  0.00    -0.095 S 
BRANCH  20  27
ATOM     21  C   UNL     1       2.272  -2.317  -0.038  0.00  0.00    +0.256 C 
ATOM     22  O   UNL     1       3.301  -1.698  -0.234  0.00  0.00    -0.269 OA
ATOM     23  N   UNL     1       1.101  -1.658   0.072  0.00  0.00    -0.265 N 
ATOM     24  C   UNL     1       1.082  -0.263   0.070  0.00  0.00    +0.148 A 
ATOM     25  C   UNL     1      -0.136   0.420   0.078  0.00  0.00    +0.048 A 
ATOM     26  C   UNL     1      -0.104   1.803   0.076  0.00  0.00    +0.040 A 
ATOM     27  C   UNL     1       1.144   2.429   0.067  0.00  0.00    +0.120 A 
ATOM     28  N   UNL     1       2.248   1.698   0.060  0.00  0.00    -0.141 NA
ATOM     29  N   UNL     1       2.217   0.415   0.062  0.00  0.00    -0.133 NA
ATOM     30  H   UNL     1       0.271  -2.154   0.154  0.00  0.00    +0.157 HD
BRANCH  21  33
ATOM     31  C   UNL     1       3.138  -5.977   0.138  0.00  0.00    +0.008 A 
ATOM     32  C   UNL     1       3.390  -4.636  -0.007  0.00  0.00    +0.021 A 
ATOM     33  C   UNL     1       2.305  -3.777   0.076  0.00  0.00    +0.074 A 
ATOM     34  S   UNL     1       0.960  -4.913   0.365  0.00  0.00    -0.092 S 
ATOM     35  C   UNL     1       1.862  -6.394   0.351  0.00  0.00    +0.046 A 
ENDBRANCH  21  33
ENDBRANCH  20  27
ENDBRANCH  19  20
ENDBRANCH   1  19
TORSDOF 7
