REMARK  Name = ZINC12637947
REMARK  11 active torsions:
REMARK  status: ('A' for Active; 'I' for Inactive)
REMARK    1  A    between atoms: C_1  and  C_2
REMARK    2  A    between atoms: C_5  and  N_9
REMARK    3  A    between atoms: C_6  and  C_8
REMARK    4  A    between atoms: N_9  and  C_10
REMARK    5  A    between atoms: C_10  and  C_12
REMARK    6  A    between atoms: C_10  and  C_21
REMARK    7  A    between atoms: C_15  and  O_20
REMARK    8  A    between atoms: C_16  and  O_18
REMARK    9  A    between atoms: O_18  and  C_19
REMARK   10  A    between atoms: N_23  and  C_24
REMARK   11  A    between atoms: C_29  and  C_31
REMARK                            x       y       z     vdW  Elec       q    Type
REMARK                         _______ _______ _______ _____ _____    ______ ____
ROOT
ATOM      1  N   UNL     1       3.679  -1.827  -0.514  0.00  0.00    -0.251 N 
ATOM      2  C   UNL     1       3.941  -0.550  -0.856  0.00  0.00    +0.252 C 
ATOM      3  O   UNL     1       4.955  -0.010  -0.458  0.00  0.00    -0.270 OA
ENDROOT
BRANCH   2   4
ATOM      4  C   UNL     1       2.998   0.193  -1.714  0.00  0.00    +0.041 A 
ATOM      5  C   UNL     1       2.376  -0.447  -2.790  0.00  0.00    +0.017 A 
ATOM      6  C   UNL     1       1.498   0.249  -3.590  0.00  0.00    +0.050 A 
ATOM      7  C   UNL     1       1.226   1.588  -3.333  0.00  0.00    +0.162 A 
ATOM      8  C   UNL     1       1.840   2.231  -2.261  0.00  0.00    +0.163 A 
ATOM      9  C   UNL     1       2.724   1.538  -1.455  0.00  0.00    +0.062 A 
ATOM     10  O   UNL     1       1.578   3.539  -1.991  0.00  0.00    -0.485 OA
ATOM     11  C   UNL     1       0.975   4.304  -3.040  0.00  0.00    +0.270 C 
ATOM     12  C   UNL     1      -0.177   3.482  -3.633  0.00  0.00    +0.270 C 
ATOM     13  O   UNL     1       0.362   2.257  -4.141  0.00  0.00    -0.485 OA
ENDBRANCH   2   4
BRANCH   1  18
ATOM     14  C   UNL     1      -0.848  -4.471  -2.680  0.00  0.00    +0.044 C 
ATOM     15  C   UNL     1       0.354  -3.768  -2.104  0.00  0.00    -0.050 A 
ATOM     16  C   UNL     1       1.623  -4.103  -2.541  0.00  0.00    +0.005 A 
ATOM     17  C   UNL     1       2.727  -3.457  -2.020  0.00  0.00    +0.024 A 
ATOM     18  C   UNL     1       2.563  -2.479  -1.048  0.00  0.00    +0.041 A 
ATOM     19  C   UNL     1       1.287  -2.145  -0.612  0.00  0.00    -0.029 A 
ATOM     20  C   UNL     1       0.187  -2.791  -1.141  0.00  0.00    +0.008 A 
ATOM     21  C   UNL     1       1.104  -1.080   0.439  0.00  0.00    +0.045 C 
ENDBRANCH   1  18
BRANCH   1  22
ATOM     22  C   UNL     1       4.563  -2.532   0.417  0.00  0.00    +0.198 C 
BRANCH  22  23
ATOM     23  C   UNL     1       4.084  -3.951   0.588  0.00  0.00    -0.014 A 
ATOM     24  C   UNL     1       2.789  -4.196   1.005  0.00  0.00    +0.010 A 
ATOM     25  C   UNL     1       2.343  -5.495   1.158  0.00  0.00    +0.049 A 
ATOM     26  C   UNL     1       3.198  -6.556   0.904  0.00  0.00    +0.158 A 
ATOM     27  C   UNL     1       4.504  -6.309   0.489  0.00  0.00    +0.162 A 
ATOM     28  C   UNL     1       4.942  -5.004   0.333  0.00  0.00    +0.055 A 
BRANCH  27  29
ATOM     29  O   UNL     1       5.347  -7.346   0.238  0.00  0.00    -0.491 OA
ATOM     30  C   UNL     1       6.672  -7.018  -0.184  0.00  0.00    +0.277 C 
ENDBRANCH  27  29
BRANCH  26  31
ATOM     31  O   UNL     1       2.763  -7.835   1.059  0.00  0.00    -0.503 OA
ATOM     32  H   UNL     1       2.902  -8.192   1.947  0.00  0.00    +0.292 HD
ENDBRANCH  26  31
ENDBRANCH  22  23
BRANCH  22  33
ATOM     33  C   UNL     1       4.548  -1.833   1.752  0.00  0.00    +0.239 C 
ATOM     34  O   UNL     1       3.735  -0.959   1.969  0.00  0.00    -0.273 OA
ATOM     35  N   UNL     1       5.437  -2.178   2.704  0.00  0.00    -0.311 N 
ATOM     36  H   UNL     1       6.087  -2.876   2.530  0.00  0.00    +0.149 HD
BRANCH  35  37
ATOM     37  C   UNL     1       5.422  -1.498   4.002  0.00  0.00    +0.073 C 
ATOM     38  C   UNL     1       6.302  -0.232   3.945  0.00  0.00    +0.022 C 
ATOM     39  C   UNL     1       6.973  -0.174   5.340  0.00  0.00    +0.002 C 
ATOM     40  C   UNL     1       7.260  -1.665   5.644  0.00  0.00    +0.002 C 
ATOM     41  C   UNL     1       6.031  -2.409   5.082  0.00  0.00    +0.022 C 
ENDBRANCH  35  37
ENDBRANCH  22  33
ENDBRANCH   1  22
TORSDOF 8
