REMARK  Name = ZINC25864982
REMARK  10 active torsions:
REMARK  status: ('A' for Active; 'I' for Inactive)
REMARK    1  A    between atoms: C_1  and  C_2
REMARK    2  A    between atoms: C_2  and  C_4
REMARK    3  A    between atoms: C_2  and  N_7
REMARK    4  A    between atoms: C_4  and  O_5
REMARK    5  A    between atoms: O_5  and  C_6
REMARK    6  A    between atoms: C_8  and  S_10
REMARK    7  A    between atoms: S_10  and  C_11
REMARK    8  A    between atoms: C_11  and  C_12
REMARK    9  A    between atoms: C_21  and  N_23
REMARK   10  A    between atoms: C_24  and  C_26
REMARK                            x       y       z     vdW  Elec       q    Type
REMARK                         _______ _______ _______ _____ _____    ______ ____
ROOT
ATOM      1  C   UNL     1      -0.307  -6.242  -0.923  0.00  0.00    -0.020 A 
ATOM      2  C   UNL     1      -0.318  -6.900  -2.112  0.00  0.00    +0.097 A 
ATOM      3  C   UNL     1      -0.244  -6.172  -3.317  0.00  0.00    +0.338 A 
ATOM      4  O   UNL     1      -0.255  -6.775  -4.376  0.00  0.00    -0.245 OA
ATOM      5  O   UNL     1      -0.161  -4.833  -3.328  0.00  0.00    -0.422 OA
ATOM      6  C   UNL     1      -0.146  -4.118  -2.182  0.00  0.00    +0.141 A 
ATOM      7  C   UNL     1      -0.217  -4.781  -0.942  0.00  0.00    +0.022 A 
ATOM      8  C   UNL     1      -0.202  -4.045   0.248  0.00  0.00    +0.013 A 
ATOM      9  C   UNL     1      -0.112  -2.684   0.203  0.00  0.00    +0.024 A 
ATOM     10  C   UNL     1      -0.047  -2.021  -1.022  0.00  0.00    +0.037 A 
ATOM     11  C   UNL     1      -0.061  -2.735  -2.211  0.00  0.00    +0.070 A 
ENDROOT
BRANCH  10  12
ATOM     12  N   UNL     1       0.038  -0.629  -1.052  0.00  0.00    -0.286 N 
ATOM     13  C   UNL     1      -0.572   0.063  -2.034  0.00  0.00    +0.214 C 
ATOM     14  O   UNL     1      -1.131  -0.527  -2.934  0.00  0.00    -0.276 OA
ATOM     15  C   UNL     1      -0.560   1.570  -2.015  0.00  0.00    +0.109 C 
ATOM     16  H   UNL     1       0.604  -0.096  -0.273  0.00  0.00    +0.155 HD
ENDBRANCH  10  12
BRANCH   1  17
ATOM     17  C   UNL     1      -0.386  -6.996   0.379  0.00  0.00    +0.113 C 
BRANCH  17  18
ATOM     18  S   UNL     1       1.285  -7.403   0.943  0.00  0.00    -0.088 S 
BRANCH  18  20
ATOM     19  N   UNL     1      -0.339  -8.408   2.803  0.00  0.00    -0.363 N 
ATOM     20  C   UNL     1       0.904  -8.255   2.438  0.00  0.00    +0.126 C 
ATOM     21  N   UNL     1       1.918  -8.758   3.221  0.00  0.00    -0.339 N 
ATOM     22  H   UNL     1       2.966  -8.628   2.913  0.00  0.00    +0.144 HD
ATOM     23  H   UNL     1       1.680  -9.289   4.154  0.00  0.00    +0.144 HD
ATOM     24  H   UNL     1      -1.152  -8.091   2.134  0.00  0.00    +0.162 HD
BRANCH  19  26
ATOM     25  C   UNL     1      -1.567  -8.062   4.889  0.00  0.00    +0.032 C 
ATOM     26  C   UNL     1      -0.652  -9.003   4.105  0.00  0.00    +0.103 C 
BRANCH  26  27
ATOM     27  C   UNL     1      -1.358 -10.344   3.895  0.00  0.00    +0.183 C 
BRANCH  27  28
ATOM     28  O   UNL     1      -2.622 -10.124   3.267  0.00  0.00    -0.381 OA
ATOM     29  C   UNL     1      -3.368 -11.319   3.025  0.00  0.00    +0.194 C 
ENDBRANCH  27  28
ENDBRANCH  26  27
ENDBRANCH  19  26
ENDBRANCH  18  20
ENDBRANCH  17  18
ENDBRANCH   1  17
TORSDOF 7
