REMARK  Name = ZINC12700954
REMARK  5 active torsions:
REMARK  status: ('A' for Active; 'I' for Inactive)
REMARK    1  A    between atoms: C_9  and  S_11
REMARK    2  A    between atoms: S_11  and  C_12
REMARK    3  A    between atoms: C_12  and  C_13
REMARK    4  A    between atoms: N_15  and  C_16
REMARK    5  A    between atoms: C_17  and  C_25
REMARK                            x       y       z     vdW  Elec       q    Type
REMARK                         _______ _______ _______ _____ _____    ______ ____
ROOT
ATOM      1  C   UNL     1       1.079  -6.595  -0.041  0.00  0.00    +0.228 C 
ATOM      2  O   UNL     1      -0.003  -7.143  -0.034  0.00  0.00    -0.275 OA
ATOM      3  N   UNL     1       2.207  -7.332  -0.056  0.00  0.00    -0.279 N 
ATOM      4  H   UNL     1       3.073  -6.894  -0.062  0.00  0.00    +0.155 HD
ENDROOT
BRANCH   3   5
ATOM      5  C   UNL     1       2.131  -8.717  -0.062  0.00  0.00    +0.084 A 
ATOM      6  C   UNL     1       3.169  -9.637  -0.083  0.00  0.00    +0.068 A 
ATOM      7  C   UNL     1       2.817 -11.047  -0.082  0.00  0.00    -0.023 A 
ATOM      8  C   UNL     1       1.492 -11.309  -0.071  0.00  0.00    -0.004 A 
ATOM      9  S   UNL     1       0.716  -9.717  -0.054  0.00  0.00    -0.077 S 
ATOM     10  C   UNL     1       0.837 -12.656  -0.073  0.00  0.00    +0.043 C 
ATOM     11  C   UNL     1       1.888 -13.704  -0.468  0.00  0.00    +0.005 C 
ATOM     12  C   UNL     1       3.155 -13.466   0.359  0.00  0.00    +0.005 C 
ATOM     13  C   UNL     1       3.840 -12.177  -0.097  0.00  0.00    +0.037 C 
BRANCH   6  14
ATOM     14  C   UNL     1       4.570  -9.204  -0.100  0.00  0.00    +0.244 C 
ATOM     15  O   UNL     1       5.166  -9.030   0.946  0.00  0.00    -0.270 OA
ATOM     16  N   UNL     1       5.196  -8.997  -1.275  0.00  0.00    -0.325 N 
ATOM     17  H   UNL     1       4.721  -9.135  -2.110  0.00  0.00    +0.145 HD
ATOM     18  H   UNL     1       6.123  -8.710  -1.287  0.00  0.00    +0.145 HD
ENDBRANCH   6  14
ENDBRANCH   3   5
BRANCH   1  19
ATOM     19  C   UNL     1       1.162  -5.091  -0.035  0.00  0.00    +0.172 C 
BRANCH  19  20
ATOM     20  S   UNL     1      -0.509  -4.394  -0.015  0.00  0.00    -0.089 S 
BRANCH  20  29
ATOM     21  C   UNL     1       1.177   2.067   0.002  0.00  0.00    +0.021 A 
ATOM     22  C   UNL     1      -0.017   1.367   0.010  0.00  0.00    +0.018 A 
ATOM     23  C   UNL     1       0.002  -0.004   0.002  0.00  0.00    +0.040 A 
ATOM     24  C   UNL     1       1.202  -0.751  -0.013  0.00  0.00    +0.081 A 
ATOM     25  C   UNL     1       2.402  -0.005  -0.021  0.00  0.00    +0.049 A 
ATOM     26  C   UNL     1       2.375   1.367  -0.014  0.00  0.00    +0.043 A 
ATOM     27 CL   UNL     1       3.872   2.246  -0.024  0.00  0.00    -0.083 Cl
ATOM     28  N   UNL     1       1.055  -2.094  -0.019  0.00  0.00    -0.233 NA
ATOM     29  C   UNL     1      -0.124  -2.675  -0.010  0.00  0.00    +0.136 A 
ATOM     30  S   UNL     1      -1.237  -1.277   0.008  0.00  0.00    -0.061 S 
ENDBRANCH  20  29
ENDBRANCH  19  20
ENDBRANCH   1  19
TORSDOF 5
