REMARK  Name = ZINC42642605
REMARK  9 active torsions:
REMARK  status: ('A' for Active; 'I' for Inactive)
REMARK    1  A    between atoms: C_1  and  C_2
REMARK    2  A    between atoms: C_2  and  C_4
REMARK    3  A    between atoms: C_2  and  N_13
REMARK    4  A    between atoms: N_13  and  C_14
REMARK    5  A    between atoms: C_14  and  C_16
REMARK    6  A    between atoms: C_14  and  C_17
REMARK    7  A    between atoms: N_19  and  C_20
REMARK    8  A    between atoms: C_24  and  C_26
REMARK    9  A    between atoms: N_28  and  C_29
REMARK                            x       y       z     vdW  Elec       q    Type
REMARK                         _______ _______ _______ _____ _____    ______ ____
ROOT
ATOM      1  C   UNL     1      -0.037  -0.113   2.398  0.00  0.00    +0.014 C 
ATOM      2  C   UNL     1      -1.388  -0.831   2.402  0.00  0.00    -0.004 C 
ENDROOT
BRANCH   1   3
ATOM      3  C   UNL     1       0.747  -0.511   3.622  0.00  0.00    +0.203 C 
ATOM      4  O   UNL     1       1.825  -1.054   3.501  0.00  0.00    -0.277 OA
ATOM      5  N   UNL     1       0.250  -0.263   4.850  0.00  0.00    -0.287 N 
ATOM      6  H   UNL     1      -0.579   0.230   4.947  0.00  0.00    +0.155 HD
BRANCH   5   7
ATOM      7  C   UNL     1       0.931  -0.719   5.985  0.00  0.00    +0.034 A 
ATOM      8  C   UNL     1       0.218  -1.149   7.097  0.00  0.00    +0.023 A 
ATOM      9  C   UNL     1       0.886  -1.600   8.220  0.00  0.00    +0.003 A 
ATOM     10  C   UNL     1       2.265  -1.624   8.245  0.00  0.00    +0.013 A 
ATOM     11  C   UNL     1       2.991  -1.194   7.133  0.00  0.00    +0.038 A 
ATOM     12  C   UNL     1       2.317  -0.745   5.997  0.00  0.00    +0.036 A 
BRANCH  11  13
ATOM     13  C   UNL     1       4.469  -1.219   7.157  0.00  0.00    +0.244 C 
ATOM     14  O   UNL     1       5.099  -0.844   6.187  0.00  0.00    -0.270 OA
ATOM     15  N   UNL     1       5.118  -1.659   8.253  0.00  0.00    -0.314 N 
ATOM     16  C   UNL     1       6.583  -1.684   8.277  0.00  0.00    +0.128 C 
ATOM     17  H   UNL     1       4.616  -1.958   9.027  0.00  0.00    +0.149 HD
ENDBRANCH  11  13
ENDBRANCH   5   7
ENDBRANCH   1   3
BRANCH   1  18
ATOM     18  N   UNL     1       0.713  -0.488   1.192  0.00  0.00    +0.391 N 
ATOM     19  H   UNL     1       0.791  -1.493   1.144  0.00  0.00    -0.084 HD
ATOM     20  H   UNL     1       1.635  -0.081   1.229  0.00  0.00    -0.084 HD
BRANCH  18  22
ATOM     21  C   UNL     1      -0.002   1.535   0.013  0.00  0.00    -0.009 C 
ATOM     22  C   UNL     1       0.007   0.005   0.002  0.00  0.00    -0.043 C 
BRANCH  22  23
ATOM     23  C   UNL     1       0.710  -0.484  -1.238  0.00  0.00    -0.058 A 
ATOM     24  C   UNL     1       2.091  -0.514  -1.282  0.00  0.00    +0.006 A 
ATOM     25  C   UNL     1       2.740  -0.963  -2.417  0.00  0.00    +0.050 A 
ATOM     26  C   UNL     1       2.007  -1.383  -3.514  0.00  0.00    +0.166 A 
ATOM     27  C   UNL     1       0.615  -1.352  -3.471  0.00  0.00    +0.166 A 
ATOM     28  C   UNL     1      -0.029  -0.907  -2.327  0.00  0.00    +0.051 A 
ATOM     29  O   UNL     1       0.131  -1.811  -4.662  0.00  0.00    -0.453 OA
ATOM     30  C   UNL     1       1.237  -1.737  -5.580  0.00  0.00    +0.466 C 
ATOM     31  O   UNL     1       2.394  -1.861  -4.733  0.00  0.00    -0.453 OA
ENDBRANCH  22  23
ENDBRANCH  18  22
ENDBRANCH   1  18
TORSDOF 6
