REMARK  Name = ZINC39676808
REMARK  9 active torsions:
REMARK  status: ('A' for Active; 'I' for Inactive)
REMARK    1  A    between atoms: C_1  and  C_2
REMARK    2  A    between atoms: C_5  and  C_9
REMARK    3  A    between atoms: C_6  and  C_8
REMARK    4  A    between atoms: C_13  and  C_22
REMARK    5  A    between atoms: N_24  and  C_25
REMARK    6  A    between atoms: C_25  and  C_27
REMARK    7  A    between atoms: C_25  and  C_28
REMARK    8  A    between atoms: C_32  and  O_34
REMARK    9  A    between atoms: O_34  and  C_35
REMARK                            x       y       z     vdW  Elec       q    Type
REMARK                         _______ _______ _______ _____ _____    ______ ____
ROOT
ATOM      1  C   UNL     1       0.059  -4.408   0.062  0.00  0.00    +0.247 C 
ATOM      2  O   UNL     1       0.238  -4.973   1.123  0.00  0.00    -0.270 OA
ATOM      3  N   UNL     1      -0.080  -5.127  -1.070  0.00  0.00    -0.296 N 
ATOM      4  C   UNL     1      -0.201  -4.622  -2.458  0.00  0.00    +0.121 C 
ATOM      5  C   UNL     1       0.632  -5.610  -3.306  0.00  0.00    +0.100 C 
ATOM      6  C   UNL     1       0.662  -6.907  -2.481  0.00  0.00    -0.004 C 
ATOM      7  C   UNL     1      -0.140  -6.602  -1.207  0.00  0.00    +0.115 C 
ATOM      8  C   UNL     1       0.007  -8.044  -3.259  0.00  0.00    -0.010 C 
ATOM      9  C   UNL     1       0.102  -9.336  -2.443  0.00  0.00    -0.082 C 
ATOM     10  N   UNL     1       1.511  -9.647  -2.177  0.00  0.00    +0.379 N 
ATOM     11  C   UNL     1       2.109  -8.593  -1.349  0.00  0.00    -0.082 C 
ATOM     12  C   UNL     1       2.099  -7.269  -2.119  0.00  0.00    -0.010 C 
ATOM     13  H   UNL     1       1.574 -10.530  -1.692  0.00  0.00    -0.086 HD
ATOM     14  H   UNL     1       2.011  -9.710  -3.051  0.00  0.00    -0.086 HD
ENDROOT
BRANCH   1  19
ATOM     15  C   UNL     1      -0.191   1.338  -0.132  0.00  0.00    +0.044 C 
ATOM     16  C   UNL     1      -0.126  -0.167  -0.082  0.00  0.00    -0.050 A 
ATOM     17  C   UNL     1       0.726  -0.848  -0.933  0.00  0.00    +0.004 A 
ATOM     18  C   UNL     1       0.791  -2.226  -0.892  0.00  0.00    +0.013 A 
ATOM     19  C   UNL     1      -0.005  -2.932   0.012  0.00  0.00    +0.040 A 
ATOM     20  C   UNL     1      -0.861  -2.239   0.868  0.00  0.00    -0.038 A 
ATOM     21  C   UNL     1      -0.913  -0.861   0.820  0.00  0.00    +0.007 A 
ATOM     22  C   UNL     1      -1.724  -2.993   1.847  0.00  0.00    +0.044 C 
ENDBRANCH   1  19
BRANCH   5  23
ATOM     23  C   UNL     1      -0.033  -5.847  -4.637  0.00  0.00    +0.219 C 
ATOM     24  O   UNL     1      -1.243  -5.836  -4.722  0.00  0.00    -0.275 OA
ATOM     25  N   UNL     1       0.717  -6.072  -5.734  0.00  0.00    -0.308 N 
ATOM     26  H   UNL     1       1.685  -6.081  -5.667  0.00  0.00    +0.149 HD
BRANCH  25  27
ATOM     27  C   UNL     1       0.070  -6.303  -7.029  0.00  0.00    +0.100 C 
ATOM     28  C   UNL     1      -0.299  -7.782  -7.158  0.00  0.00    +0.033 C 
BRANCH  27  29
ATOM     29  C   UNL     1       1.017  -5.923  -8.138  0.00  0.00    -0.024 A 
ATOM     30  C   UNL     1       2.360  -6.237  -8.038  0.00  0.00    +0.005 A 
ATOM     31  C   UNL     1       3.231  -5.890  -9.054  0.00  0.00    +0.004 A 
ATOM     32  C   UNL     1       2.762  -5.227 -10.172  0.00  0.00    +0.045 A 
ATOM     33  C   UNL     1       1.415  -4.911 -10.274  0.00  0.00    +0.120 A 
ATOM     34  C   UNL     1       0.542  -5.266  -9.256  0.00  0.00    +0.051 A 
BRANCH  33  35
ATOM     35  O   UNL     1       0.951  -4.260 -11.373  0.00  0.00    -0.495 OA
ATOM     36  C   UNL     1       1.906  -3.931 -12.384  0.00  0.00    +0.277 C 
ENDBRANCH  33  35
ENDBRANCH  27  29
ENDBRANCH  25  27
ENDBRANCH   5  23
TORSDOF 5
