REMARK  Name = ZINC35918834
REMARK  9 active torsions:
REMARK  status: ('A' for Active; 'I' for Inactive)
REMARK    1  A    between atoms: C_1  and  C_2
REMARK    2  A    between atoms: C_4  and  C_9
REMARK    3  A    between atoms: C_12  and  C_26
REMARK    4  A    between atoms: N_19  and  C_20
REMARK    5  A    between atoms: N_28  and  C_29
REMARK    6  A    between atoms: C_32  and  O_37
REMARK    7  A    between atoms: C_33  and  O_35
REMARK    8  A    between atoms: O_35  and  C_36
REMARK    9  A    between atoms: O_37  and  C_38
REMARK                            x       y       z     vdW  Elec       q    Type
REMARK                         _______ _______ _______ _____ _____    ______ ____
ROOT
ATOM      1  C   UNL     1       0.023  -3.133  -2.908  0.00  0.00    +0.037 C 
ATOM      2  C   UNL     1      -0.836  -4.382  -2.696  0.00  0.00    +0.024 C 
ATOM      3  C   UNL     1      -0.384  -5.483  -3.657  0.00  0.00    +0.093 C 
ATOM      4  C   UNL     1       1.076  -5.844  -3.363  0.00  0.00    +0.122 C 
ATOM      5  N   UNL     1       1.887  -4.621  -3.423  0.00  0.00    -0.284 N 
ATOM      6  C   UNL     1       1.487  -3.467  -2.606  0.00  0.00    +0.117 C 
ATOM      7  C   UNL     1       2.978  -4.558  -4.212  0.00  0.00    +0.306 C 
ATOM      8  O   UNL     1       3.350  -5.546  -4.814  0.00  0.00    -0.252 OA
ATOM      9  N   UNL     1       3.655  -3.399  -4.333  0.00  0.00    -0.269 N 
ATOM     10  H   UNL     1       3.409  -2.634  -3.791  0.00  0.00    +0.156 HD
ENDROOT
BRANCH   1  14
ATOM     11  C   UNL     1      -1.818   1.470  -2.225  0.00  0.00    +0.047 C 
ATOM     12  C   UNL     1      -1.326   0.164  -1.657  0.00  0.00    -0.015 A 
ATOM     13  C   UNL     1      -0.896  -0.840  -2.504  0.00  0.00    +0.010 A 
ATOM     14  C   UNL     1      -0.445  -2.038  -1.983  0.00  0.00    -0.042 A 
ATOM     15  C   UNL     1      -0.421  -2.233  -0.614  0.00  0.00    +0.007 A 
ATOM     16  C   UNL     1      -0.849  -1.231   0.234  0.00  0.00    +0.039 A 
ATOM     17  C   UNL     1      -1.298  -0.028  -0.286  0.00  0.00    +0.126 A 
ATOM     18  F   UNL     1      -1.712   0.955   0.543  0.00  0.00    -0.205 F 
ENDBRANCH   1  14
BRANCH   9  19
ATOM     19  C   UNL     1       4.715  -3.300  -5.242  0.00  0.00    +0.035 A 
ATOM     20  C   UNL     1       4.673  -4.002  -6.439  0.00  0.00    +0.023 A 
ATOM     21  C   UNL     1       5.720  -3.902  -7.334  0.00  0.00    +0.002 A 
ATOM     22  C   UNL     1       6.810  -3.104  -7.038  0.00  0.00    +0.000 A 
ATOM     23  C   UNL     1       6.856  -2.405  -5.847  0.00  0.00    +0.002 A 
ATOM     24  C   UNL     1       5.809  -2.496  -4.950  0.00  0.00    +0.023 A 
ENDBRANCH   9  19
BRANCH   3  25
ATOM     25  C   UNL     1      -0.505  -4.992  -5.077  0.00  0.00    +0.222 C 
ATOM     26  O   UNL     1      -0.913  -3.872  -5.299  0.00  0.00    -0.275 OA
ATOM     27  N   UNL     1      -0.160  -5.798  -6.101  0.00  0.00    -0.285 N 
ATOM     28  H   UNL     1       0.228  -6.669  -5.922  0.00  0.00    +0.155 HD
BRANCH  27  29
ATOM     29  C   UNL     1      -0.361  -5.378  -7.422  0.00  0.00    +0.037 A 
ATOM     30  C   UNL     1      -0.229  -4.036  -7.751  0.00  0.00    +0.027 A 
ATOM     31  C   UNL     1      -0.427  -3.620  -9.054  0.00  0.00    +0.051 A 
ATOM     32  C   UNL     1      -0.758  -4.541 -10.034  0.00  0.00    +0.162 A 
ATOM     33  C   UNL     1      -0.891  -5.887  -9.707  0.00  0.00    +0.163 A 
ATOM     34  C   UNL     1      -0.687  -6.305  -8.403  0.00  0.00    +0.072 A 
BRANCH  33  35
ATOM     35  O   UNL     1      -1.216  -6.792 -10.669  0.00  0.00    -0.491 OA
ATOM     36  C   UNL     1      -1.335  -8.157 -10.262  0.00  0.00    +0.277 C 
ENDBRANCH  33  35
BRANCH  32  37
ATOM     37  O   UNL     1      -0.953  -4.130 -11.316  0.00  0.00    -0.491 OA
ATOM     38  C   UNL     1      -0.801  -2.734 -11.580  0.00  0.00    +0.277 C 
ENDBRANCH  32  37
ENDBRANCH  27  29
ENDBRANCH   3  25
TORSDOF 6
