REMARK  Name = ZINC66770989
REMARK  4 active torsions:
REMARK  status: ('A' for Active; 'I' for Inactive)
REMARK    1  A    between atoms: C_3  and  C_11
REMARK    2  A    between atoms: C_17  and  C_19
REMARK    3  A    between atoms: C_22  and  S_24
REMARK    4  A    between atoms: S_24  and  N_27
REMARK                            x       y       z     vdW  Elec       q    Type
REMARK                         _______ _______ _______ _____ _____    ______ ____
ROOT
ATOM      1  C   UNL     1       3.670   2.195  -0.023  0.00  0.00    +0.110 C 
ATOM      2  C   UNL     1       4.165   2.372  -1.474  0.00  0.00    +0.029 C 
ATOM      3  C   UNL     1       4.736   3.815  -1.472  0.00  0.00    +0.021 C 
ATOM      4  C   UNL     1       3.757   4.535  -0.512  0.00  0.00    +0.109 C 
ATOM      5  N   UNL     1       3.449   3.538   0.533  0.00  0.00    -0.288 N 
ATOM      6  C   UNL     1       3.034   3.810   1.786  0.00  0.00    +0.282 C 
ATOM      7  O   UNL     1       2.808   2.901   2.564  0.00  0.00    -0.267 OA
ENDROOT
BRANCH   1  10
ATOM      8  C   UNL     1      -0.017   1.378   0.010  0.00  0.00    +0.004 A 
ATOM      9  C   UNL     1       1.170   2.088   0.002  0.00  0.00    +0.009 A 
ATOM     10  C   UNL     1       2.378   1.418  -0.014  0.00  0.00    +0.018 A 
ATOM     11  C   UNL     1       2.404   0.031  -0.023  0.00  0.00    +0.167 A 
ATOM     12  C   UNL     1       1.212  -0.683  -0.013  0.00  0.00    +0.162 A 
ATOM     13  C   UNL     1       0.002  -0.004   0.002  0.00  0.00    +0.049 A 
ATOM     14  O   UNL     1       1.214  -2.044  -0.013  0.00  0.00    -0.485 OA
ATOM     15  C   UNL     1       2.434  -2.685  -0.404  0.00  0.00    +0.270 C 
ATOM     16  C   UNL     1       3.594  -1.997   0.328  0.00  0.00    +0.270 C 
ATOM     17  O   UNL     1       3.602  -0.615  -0.043  0.00  0.00    -0.485 OA
ENDBRANCH   1  10
BRANCH   6  18
ATOM     18  C   UNL     1       2.854   5.202   2.213  0.00  0.00    +0.192 A 
ATOM     19  C   UNL     1       2.446   5.616   3.448  0.00  0.00    +0.057 A 
ATOM     20  C   UNL     1       2.414   7.019   3.413  0.00  0.00    +0.072 A 
ATOM     21  C   UNL     1       2.799   7.395   2.174  0.00  0.00    +0.258 A 
ATOM     22  O   UNL     1       3.068   6.297   1.455  0.00  0.00    -0.432 OA
BRANCH  21  23
ATOM     23  S   UNL     1       2.931   9.055   1.600  0.00  0.00    +0.089 S 
ATOM     24  O   UNL     1       2.807   9.007   0.185  0.00  0.00    -0.150 OA
ATOM     25  O   UNL     1       2.067   9.836   2.414  0.00  0.00    -0.150 OA
BRANCH  23  26
ATOM     26  N   UNL     1       4.474   9.564   1.922  0.00  0.00    -0.201 NA
ATOM     27  H   UNL     1       4.897  10.222   1.349  0.00  0.00    +0.144 HD
ATOM     28  H   UNL     1       4.954   9.204   2.684  0.00  0.00    +0.144 HD
ENDBRANCH  23  26
ENDBRANCH  21  23
ENDBRANCH   6  18
TORSDOF 4
