REMARK  Name = ZINC26127808
REMARK  10 active torsions:
REMARK  status: ('A' for Active; 'I' for Inactive)
REMARK    1  A    between atoms: C_1  and  C_2
REMARK    2  A    between atoms: C_4  and  C_32
REMARK    3  A    between atoms: C_5  and  N_9
REMARK    4  A    between atoms: C_12  and  C_15
REMARK    5  A    between atoms: C_15  and  S_16
REMARK    6  A    between atoms: S_16  and  C_17
REMARK    7  A    between atoms: C_20  and  C_23
REMARK    8  A    between atoms: N_21  and  N_22
REMARK    9  A    between atoms: C_27  and  C_28
REMARK   10  A    between atoms: C_29  and  C_31
REMARK                            x       y       z     vdW  Elec       q    Type
REMARK                         _______ _______ _______ _____ _____    ______ ____
ROOT
ATOM      1  N   UNL     1      -7.598   3.974   3.023  0.00  0.00    -0.217 N 
ATOM      2  C   UNL     1      -7.153   3.004   2.131  0.00  0.00    +0.172 A 
ATOM      3  N   UNL     1      -6.160   3.068   1.265  0.00  0.00    -0.228 NA
ATOM      4  C   UNL     1      -5.867   2.046   0.485  0.00  0.00    +0.061 A 
ATOM      5  C   UNL     1      -6.615   0.920   0.586  0.00  0.00    +0.072 A 
ATOM      6  S   UNL     1      -7.761   1.398   1.871  0.00  0.00    -0.060 S 
ATOM      7  C   UNL     1      -6.926   5.135   3.148  0.00  0.00    +0.223 C 
ATOM      8  O   UNL     1      -5.987   5.373   2.417  0.00  0.00    -0.275 OA
ATOM      9  C   UNL     1      -7.340   6.137   4.194  0.00  0.00    +0.110 C 
ENDROOT
BRANCH   1  14
ATOM     10  C   UNL     1     -12.250   3.040   6.139  0.00  0.00    +0.044 C 
ATOM     11  C   UNL     1     -11.014   3.288   5.312  0.00  0.00    -0.049 A 
ATOM     12  C   UNL     1     -11.124   3.886   4.070  0.00  0.00    +0.008 A 
ATOM     13  C   UNL     1      -9.994   4.119   3.312  0.00  0.00    -0.027 A 
ATOM     14  C   UNL     1      -8.747   3.743   3.793  0.00  0.00    +0.064 A 
ATOM     15  C   UNL     1      -8.639   3.143   5.041  0.00  0.00    +0.063 A 
ATOM     16  C   UNL     1      -9.774   2.917   5.798  0.00  0.00    +0.025 A 
ATOM     17 CL   UNL     1      -7.082   2.677   5.651  0.00  0.00    -0.082 Cl
ATOM     18  C   UNL     1     -10.114   4.777   1.961  0.00  0.00    +0.046 C 
ENDBRANCH   1  14
BRANCH   4  19
ATOM     19  C   UNL     1      -4.731   2.131  -0.502  0.00  0.00    +0.133 C 
BRANCH  19  20
ATOM     20  S   UNL     1      -3.203   1.566   0.288  0.00  0.00    -0.078 S 
BRANCH  20  21
ATOM     21  C   UNL     1      -2.075   1.765  -1.050  0.00  0.00    +0.209 A 
ATOM     22  N   UNL     1      -2.363   2.209  -2.252  0.00  0.00    -0.121 NA
ATOM     23  N   UNL     1      -1.305   2.228  -2.981  0.00  0.00    -0.127 NA
ATOM     24  C   UNL     1      -0.275   1.802  -2.288  0.00  0.00    +0.185 A 
ATOM     25  N   UNL     1      -0.737   1.486  -1.032  0.00  0.00    -0.224 N 
BRANCH  24  26
ATOM     26  C   UNL     1       1.119   1.680  -2.769  0.00  0.00    +0.061 A 
ATOM     27  C   UNL     1       2.280   1.202  -2.008  0.00  0.00    +0.053 A 
ATOM     28  C   UNL     1       3.326   1.266  -2.849  0.00  0.00    +0.196 A 
ATOM     29  O   UNL     1       2.906   1.734  -4.034  0.00  0.00    -0.467 OA
ATOM     30  C   UNL     1       1.589   1.983  -4.009  0.00  0.00    +0.112 A 
ATOM     31  C   UNL     1       0.770   2.511  -5.158  0.00  0.00    +0.087 C 
ENDBRANCH  24  26
BRANCH  25  32
ATOM     32  N   UNL     1      -0.009   1.002   0.018  0.00  0.00    -0.295 N 
ATOM     33  H   UNL     1       1.069   0.819  -0.098  0.00  0.00    +0.163 HD
ATOM     34  H   UNL     1      -0.502   0.794   0.979  0.00  0.00    +0.163 HD
ENDBRANCH  25  32
ENDBRANCH  20  21
ENDBRANCH  19  20
ENDBRANCH   4  19
TORSDOF 6
