REMARK  Name = ZINC00627478
REMARK  5 active torsions:
REMARK  status: ('A' for Active; 'I' for Inactive)
REMARK    1  A    between atoms: C_4  and  N_22
REMARK    2  A    between atoms: C_5  and  C_7
REMARK    3  A    between atoms: N_12  and  C_15
REMARK    4  A    between atoms: C_23  and  C_25
REMARK    5  A    between atoms: C_31  and  C_33
REMARK                            x       y       z     vdW  Elec       q    Type
REMARK                         _______ _______ _______ _____ _____    ______ ____
ROOT
ATOM      1  C   UNL     1       0.403   1.569  -0.010  0.00  0.00    +0.001 A 
ATOM      2  C   UNL     1       1.672   2.124   0.037  0.00  0.00    +0.002 A 
ATOM      3  C   UNL     1       2.789   1.313   0.043  0.00  0.00    +0.024 A 
ATOM      4  C   UNL     1       2.646  -0.068   0.003  0.00  0.00    +0.046 A 
ATOM      5  C   UNL     1       1.363  -0.632  -0.044  0.00  0.00    +0.058 A 
ATOM      6  C   UNL     1       0.242   0.202  -0.050  0.00  0.00    +0.015 A 
ENDROOT
BRANCH   5   7
ATOM      7  C   UNL     1       1.198  -2.098  -0.088  0.00  0.00    +0.248 C 
ATOM      8  O   UNL     1       1.575  -2.780   0.845  0.00  0.00    -0.270 OA
ATOM      9  N   UNL     1       0.629  -2.680  -1.162  0.00  0.00    -0.294 N 
ATOM     10  C   UNL     1       0.279  -1.884  -2.347  0.00  0.00    +0.127 C 
ATOM     11  C   UNL     1       0.955  -2.509  -3.574  0.00  0.00    +0.124 C 
ATOM     12  N   UNL     1       0.673  -3.952  -3.581  0.00  0.00    -0.327 N 
ATOM     13  C   UNL     1       1.022  -4.747  -2.396  0.00  0.00    +0.124 C 
ATOM     14  C   UNL     1       0.352  -4.123  -1.171  0.00  0.00    +0.127 C 
BRANCH  12  15
ATOM     15  C   UNL     1       0.083  -4.556  -4.694  0.00  0.00    +0.030 A 
ATOM     16  C   UNL     1      -0.343  -3.778  -5.764  0.00  0.00    +0.024 A 
ATOM     17  C   UNL     1      -0.925  -4.377  -6.863  0.00  0.00    +0.022 A 
ATOM     18  C   UNL     1      -1.085  -5.751  -6.900  0.00  0.00    +0.041 A 
ATOM     19  C   UNL     1      -0.663  -6.529  -5.836  0.00  0.00    +0.022 A 
ATOM     20  C   UNL     1      -0.074  -5.935  -4.736  0.00  0.00    +0.024 A 
ATOM     21 CL   UNL     1      -1.819  -6.502  -8.283  0.00  0.00    -0.084 Cl
ENDBRANCH  12  15
ENDBRANCH   5   7
BRANCH   4  22
ATOM     22  N   UNL     1       3.772  -0.888   0.008  0.00  0.00    -0.285 N 
ATOM     23  C   UNL     1       4.929  -0.442   0.536  0.00  0.00    +0.221 C 
ATOM     24  O   UNL     1       4.962   0.628   1.105  0.00  0.00    -0.275 OA
ATOM     25  H   UNL     1       3.723  -1.781  -0.368  0.00  0.00    +0.155 HD
BRANCH  23  26
ATOM     26  C   UNL     1       6.181  -1.272   0.419  0.00  0.00    +0.093 C 
ATOM     27  C   UNL     1       7.043  -1.083   1.669  0.00  0.00    +0.040 C 
ATOM     28  C   UNL     1       7.630   0.298   1.687  0.00  0.00    -0.030 C 
ATOM     29  C   UNL     1       7.699   1.071   0.651  0.00  0.00    -0.030 C 
ATOM     30  C   UNL     1       7.192   0.697  -0.711  0.00  0.00    +0.042 C 
ATOM     31  C   UNL     1       6.987  -0.820  -0.805  0.00  0.00    +0.118 C 
BRANCH  31  32
ATOM     32  C   UNL     1       6.231  -1.160  -2.064  0.00  0.00    +0.360 C 
ATOM     33  O   UNL     1       6.360  -0.468  -3.058  0.00  0.00    -0.246 OA
ATOM     34  O   UNL     1       5.490  -2.128  -2.087  0.00  0.00    -0.246 OA
ENDBRANCH  31  32
ENDBRANCH  23  26
ENDBRANCH   4  22
TORSDOF 5
