REMARK  Name = ZINC19853131
REMARK  8 active torsions:
REMARK  status: ('A' for Active; 'I' for Inactive)
REMARK    1  A    between atoms: C_1  and  N_2
REMARK    2  A    between atoms: N_2  and  C_3
REMARK    3  A    between atoms: N_2  and  S_4
REMARK    4  A    between atoms: S_4  and  N_7
REMARK    5  A    between atoms: N_7  and  C_8
REMARK    6  A    between atoms: C_11  and  N_14
REMARK    7  A    between atoms: C_17  and  N_20
REMARK    8  A    between atoms: N_20  and  C_21
REMARK                            x       y       z     vdW  Elec       q    Type
REMARK                         _______ _______ _______ _____ _____    ______ ____
ROOT
ATOM      1  N   UNL     1      -4.902   0.445   1.533  0.00  0.00    -0.330 N 
ATOM      2  C   UNL     1      -3.734   0.105   2.356  0.00  0.00    +0.103 C 
ATOM      3  C   UNL     1      -2.520   0.905   1.876  0.00  0.00    +0.003 C 
ATOM      4  C   UNL     1      -2.246   0.575   0.406  0.00  0.00    -0.068 C 
ATOM      5  C   UNL     1      -3.494   0.892  -0.422  0.00  0.00    +0.003 C 
ATOM      6  C   UNL     1      -4.679   0.094   0.124  0.00  0.00    +0.103 C 
ENDROOT
BRANCH   1  10
ATOM      7  C   UNL     1      -8.349  -1.382   3.003  0.00  0.00    +0.049 A 
ATOM      8  C   UNL     1      -8.418  -0.577   1.874  0.00  0.00    +0.026 A 
ATOM      9  C   UNL     1      -7.276   0.028   1.387  0.00  0.00    +0.025 A 
ATOM     10  C   UNL     1      -6.059  -0.169   2.026  0.00  0.00    +0.030 A 
ATOM     11  C   UNL     1      -5.989  -0.978   3.152  0.00  0.00    +0.025 A 
ATOM     12  C   UNL     1      -7.132  -1.579   3.643  0.00  0.00    +0.026 A 
BRANCH   7  13
ATOM     13  N   UNL     1      -9.506  -1.995   3.498  0.00  0.00    -0.206 N 
ATOM     14  H   UNL     1     -10.438  -1.417   3.592  0.00  0.00    +0.175 HD
BRANCH  13  15
ATOM     15  S   UNL     1      -9.474  -3.590   3.941  0.00  0.00    +0.111 S 
ATOM     16  O   UNL     1      -8.380  -3.741   4.835  0.00  0.00    -0.138 OA
ATOM     17  O   UNL     1     -10.804  -3.939   4.299  0.00  0.00    -0.138 OA
BRANCH  15  19
ATOM     18  C   UNL     1      -7.719  -4.878   2.336  0.00  0.00    +0.132 C 
ATOM     19  N   UNL     1      -9.103  -4.467   2.586  0.00  0.00    -0.170 NA
ATOM     20  C   UNL     1     -10.158  -4.832   1.638  0.00  0.00    +0.132 C 
ENDBRANCH  15  19
ENDBRANCH  13  15
ENDBRANCH   7  13
ENDBRANCH   1  10
BRANCH   4  21
ATOM     21  N   UNL     1      -1.118   1.383  -0.076  0.00  0.00    +0.388 N 
ATOM     22  H   UNL     1      -1.484   2.370  -0.395  0.00  0.00    -0.084 HD
ATOM     23  H   UNL     1      -0.384   1.509   0.734  0.00  0.00    -0.084 HD
BRANCH  21  24
ATOM     24  C   UNL     1      -0.455   0.736  -1.216  0.00  0.00    -0.008 C 
ATOM     25  C   UNL     1       0.251   1.766  -2.062  0.00  0.00    -0.049 A 
ATOM     26  C   UNL     1      -0.208   2.863  -2.760  0.00  0.00    +0.003 A 
ATOM     27  C   UNL     1       0.680   3.655  -3.467  0.00  0.00    +0.000 A 
ATOM     28  C   UNL     1       2.029   3.349  -3.474  0.00  0.00    +0.001 A 
ATOM     29  C   UNL     1       2.497   2.253  -2.779  0.00  0.00    +0.009 A 
ATOM     30  C   UNL     1       1.607   1.450  -2.063  0.00  0.00    -0.016 A 
ATOM     31  C   UNL     1       1.832   0.235  -1.241  0.00  0.00    -0.016 A 
ATOM     32  C   UNL     1       0.616  -0.208  -0.726  0.00  0.00    -0.049 A 
ATOM     33  C   UNL     1       0.567  -1.329   0.075  0.00  0.00    +0.003 A 
ATOM     34  C   UNL     1       1.728  -2.020   0.371  0.00  0.00    +0.000 A 
ATOM     35  C   UNL     1       2.941  -1.588  -0.136  0.00  0.00    +0.001 A 
ATOM     36  C   UNL     1       2.999  -0.468  -0.938  0.00  0.00    +0.009 A 
ENDBRANCH  21  24
ENDBRANCH   4  21
TORSDOF 6
