REMARK  Name = ZINC00493301
REMARK  5 active torsions:
REMARK  status: ('A' for Active; 'I' for Inactive)
REMARK    1  A    between atoms: C_1  and  C_2
REMARK    2  A    between atoms: C_3  and  C_20
REMARK    3  A    between atoms: C_5  and  N_10
REMARK    4  A    between atoms: C_6  and  C_7
REMARK    5  A    between atoms: C_11  and  C_13
REMARK                            x       y       z     vdW  Elec       q    Type
REMARK                         _______ _______ _______ _____ _____    ______ ____
ROOT
ATOM      1  C   UNL     1      -2.523   0.850  -2.554  0.00  0.00    +0.045 C 
ATOM      2  C   UNL     1      -3.103   0.493  -1.210  0.00  0.00    -0.027 A 
ATOM      3  C   UNL     1      -4.255  -0.195  -1.103  0.00  0.00    -0.008 A 
ATOM      4  S   UNL     1      -4.481  -0.344   0.657  0.00  0.00    -0.078 S 
ATOM      5  C   UNL     1      -3.065   0.489   1.203  0.00  0.00    +0.085 A 
ATOM      6  C   UNL     1      -2.447   0.874   0.018  0.00  0.00    +0.068 A 
ATOM      7  C   UNL     1      -5.140  -0.713  -2.207  0.00  0.00    +0.052 C 
ENDROOT
BRANCH   6   8
ATOM      8  C   UNL     1      -1.187   1.624   0.017  0.00  0.00    +0.244 C 
ATOM      9  O   UNL     1      -1.204   2.841   0.023  0.00  0.00    -0.270 OA
ATOM     10  N   UNL     1      -0.011   0.966   0.007  0.00  0.00    -0.325 N 
ATOM     11  H   UNL     1       0.002  -0.004   0.002  0.00  0.00    +0.145 HD
ATOM     12  H   UNL     1       0.822   1.462   0.002  0.00  0.00    +0.145 HD
ENDBRANCH   6   8
BRANCH   5  13
ATOM     13  N   UNL     1      -2.649   0.719   2.504  0.00  0.00    -0.275 N 
ATOM     14  C   UNL     1      -3.387   0.265   3.537  0.00  0.00    +0.249 C 
ATOM     15  O   UNL     1      -4.417  -0.346   3.327  0.00  0.00    -0.270 OA
ATOM     16  H   UNL     1      -1.828   1.206   2.672  0.00  0.00    +0.156 HD
BRANCH  14  17
ATOM     17  C   UNL     1      -2.944   0.510   4.925  0.00  0.00    +0.037 A 
ATOM     18  C   UNL     1      -1.758   1.206   5.170  0.00  0.00    +0.014 A 
ATOM     19  C   UNL     1      -1.353   1.436   6.468  0.00  0.00    +0.021 A 
ATOM     20  C   UNL     1      -2.113   0.968   7.527  0.00  0.00    +0.041 A 
ATOM     21  C   UNL     1      -3.287   0.272   7.290  0.00  0.00    +0.021 A 
ATOM     22  C   UNL     1      -3.706   0.041   5.997  0.00  0.00    +0.014 A 
ATOM     23 CL   UNL     1      -1.592   1.256   9.158  0.00  0.00    -0.084 Cl
ENDBRANCH  14  17
ENDBRANCH   5  13
TORSDOF 3
