REMARK  Name = ZINC50364231
REMARK  6 active torsions:
REMARK  status: ('A' for Active; 'I' for Inactive)
REMARK    1  A    between atoms: C_1  and  C_2
REMARK    2  A    between atoms: C_2  and  C_3
REMARK    3  A    between atoms: C_2  and  C_4
REMARK    4  A    between atoms: C_7  and  N_13
REMARK    5  A    between atoms: CA_8  and  C_10
REMARK    6  A    between atoms: C_18  and  C_20
REMARK                            x       y       z     vdW  Elec       q    Type
REMARK                         _______ _______ _______ _____ _____    ______ ____
ROOT
ATOM      1  C   UNL     1      -0.368   0.305  -2.595  0.00  0.00    +0.133 A 
ATOM      2  N   UNL     1      -0.315   0.649  -3.869  0.00  0.00    -0.238 NA
ATOM      3  C   UNL     1       0.538   0.078  -4.696  0.00  0.00    +0.138 A 
ATOM      4  C   UNL     1       1.400  -0.911  -4.206  0.00  0.00    +0.082 A 
ATOM      5  CA  UNL     1       1.312  -1.247  -2.846  0.00  0.00    +0.176 A 
ATOM      6  N   UNL     1       0.421  -0.612  -2.084  0.00  0.00    -0.223 NA
ENDROOT
BRANCH   4   7
ATOM      7  N   UNL     1       2.313  -1.539  -5.039  0.00  0.00    -0.315 N 
ATOM      8  C   UNL     1       1.945  -2.760  -5.768  0.00  0.00    +0.106 C 
ATOM      9  C   UNL     1       2.235  -2.551  -7.258  0.00  0.00    +0.019 C 
ATOM     10  C   UNL     1       3.695  -2.130  -7.435  0.00  0.00    +0.004 C 
ATOM     11  C   UNL     1       3.938  -0.806  -6.706  0.00  0.00    +0.032 C 
ATOM     12  C   UNL     1       3.666  -0.992  -5.215  0.00  0.00    +0.159 C 
BRANCH  12  13
ATOM     13  C   UNL     1       3.768   0.339  -4.515  0.00  0.00    +0.231 C 
ATOM     14  O   UNL     1       2.847   1.127  -4.574  0.00  0.00    -0.274 OA
ATOM     15  N   UNL     1       4.881   0.654  -3.825  0.00  0.00    -0.328 N 
ATOM     16  H   UNL     1       5.617   0.024  -3.778  0.00  0.00    +0.145 HD
ATOM     17  H   UNL     1       4.947   1.511  -3.374  0.00  0.00    +0.145 HD
ENDBRANCH  12  13
ENDBRANCH   4   7
BRANCH   1  19
ATOM     18  C   UNL     1      -1.085   2.497  -1.682  0.00  0.00    +0.015 C 
ATOM     19  C   UNL     1      -1.363   0.992  -1.696  0.00  0.00    +0.051 C 
ATOM     20  C   UNL     1      -2.780   0.741  -2.216  0.00  0.00    +0.015 C 
ENDBRANCH   1  19
BRANCH   5  21
ATOM     21  C   UNL     1       2.194  -2.283  -2.268  0.00  0.00    +0.406 C 
ATOM     22  O   UNL     1       3.010  -2.855  -2.976  0.00  0.00    -0.239 OA
ATOM     23  OXT UNL     1       2.107  -2.567  -1.082  0.00  0.00    -0.239 OA
ENDBRANCH   5  21
TORSDOF 4
