REMARK  Name = ZINC13266873
REMARK  7 active torsions:
REMARK  status: ('A' for Active; 'I' for Inactive)
REMARK    1  A    between atoms: C_1  and  C_2
REMARK    2  A    between atoms: C_5  and  N_9
REMARK    3  A    between atoms: C_10  and  C_12
REMARK    4  A    between atoms: C_12  and  S_13
REMARK    5  A    between atoms: S_13  and  C_14
REMARK    6  A    between atoms: C_18  and  C_32
REMARK    7  A    between atoms: N_24  and  C_25
REMARK                            x       y       z     vdW  Elec       q    Type
REMARK                         _______ _______ _______ _____ _____    ______ ____
ROOT
ATOM      1  C   UNL     1      -6.256   1.251  -0.096  0.00  0.00    +0.177 A 
ATOM      2  N   UNL     1      -5.083   0.668  -0.076  0.00  0.00    -0.223 NA
ATOM      3  C   UNL     1      -3.935   1.385  -0.097  0.00  0.00    +0.080 A 
ATOM      4  C   UNL     1      -2.685   0.760  -0.074  0.00  0.00    +0.043 A 
ATOM      5  C   UNL     1      -1.533   1.536  -0.097  0.00  0.00    +0.065 A 
ATOM      6  C   UNL     1      -1.619   2.934  -0.137  0.00  0.00    +0.016 A 
ATOM      7  C   UNL     1      -2.835   3.555  -0.165  0.00  0.00    +0.016 A 
ATOM      8  C   UNL     1      -4.004   2.796  -0.142  0.00  0.00    +0.065 A 
ATOM      9  C   UNL     1      -5.334   3.424  -0.165  0.00  0.00    +0.267 A 
ATOM     10  O   UNL     1      -5.459   4.634  -0.204  0.00  0.00    -0.267 OA
ATOM     11  N   UNL     1      -6.413   2.608  -0.140  0.00  0.00    -0.255 N 
ENDROOT
BRANCH  11  12
ATOM     12  C   UNL     1      -7.702   3.159  -0.161  0.00  0.00    +0.052 A 
ATOM     13  C   UNL     1      -8.529   2.951  -1.256  0.00  0.00    +0.029 A 
ATOM     14  C   UNL     1      -9.801   3.490  -1.272  0.00  0.00    +0.040 A 
ATOM     15  C   UNL     1     -10.246   4.247  -0.202  0.00  0.00    +0.124 A 
ATOM     16  C   UNL     1      -9.420   4.461   0.889  0.00  0.00    +0.040 A 
ATOM     17  C   UNL     1      -8.150   3.919   0.911  0.00  0.00    +0.029 A 
ATOM     18  F   UNL     1     -11.488   4.778  -0.222  0.00  0.00    -0.205 F 
ENDBRANCH  11  12
BRANCH   5  19
ATOM     19  C   UNL     1      -0.206   0.882  -0.073  0.00  0.00    +0.387 C 
ATOM     20  O   UNL     1      -0.127  -0.329  -0.034  0.00  0.00    -0.241 OA
ATOM     21  O   UNL     1       0.913   1.630  -0.100  0.00  0.00    -0.241 OA
ENDBRANCH   5  19
BRANCH   1  22
ATOM     22  S   UNL     1      -7.699   0.239  -0.066  0.00  0.00    -0.078 S 
BRANCH  22  23
ATOM     23  C   UNL     1      -6.932  -1.400  -0.012  0.00  0.00    +0.173 C 
BRANCH  23  25
ATOM     24  N   UNL     1      -7.668  -3.760   0.062  0.00  0.00    -0.283 N 
ATOM     25  C   UNL     1      -8.006  -2.456   0.020  0.00  0.00    +0.228 C 
ATOM     26  O   UNL     1      -9.175  -2.133   0.008  0.00  0.00    -0.275 OA
ATOM     27  H   UNL     1      -6.737  -4.017   0.157  0.00  0.00    +0.155 HD
BRANCH  24  32
ATOM     28  C   UNL     1     -11.688  -7.749  -0.317  0.00  0.00    +0.044 C 
ATOM     29  C   UNL     1     -10.620  -6.690  -0.215  0.00  0.00    -0.048 A 
ATOM     30  C   UNL     1     -10.761  -5.500  -0.905  0.00  0.00    +0.005 A 
ATOM     31  C   UNL     1      -9.784  -4.527  -0.815  0.00  0.00    +0.026 A 
ATOM     32  C   UNL     1      -8.660  -4.744  -0.030  0.00  0.00    +0.069 A 
ATOM     33  C   UNL     1      -8.518  -5.944   0.659  0.00  0.00    +0.145 A 
ATOM     34  C   UNL     1      -9.502  -6.911   0.568  0.00  0.00    +0.043 A 
ATOM     35  F   UNL     1      -7.423  -6.162   1.419  0.00  0.00    -0.204 F 
ENDBRANCH  24  32
ENDBRANCH  23  25
ENDBRANCH  22  23
ENDBRANCH   1  22
TORSDOF 6
