REMARK  Name = ZINC01876431
REMARK  6 active torsions:
REMARK  status: ('A' for Active; 'I' for Inactive)
REMARK    1  A    between atoms: C_1  and  C_2
REMARK    2  A    between atoms: C_5  and  N_8
REMARK    3  A    between atoms: C_16  and  C_20
REMARK    4  A    between atoms: C_16  and  N_24
REMARK    5  A    between atoms: C_25  and  C_27
REMARK    6  A    between atoms: C_31  and  C_33
REMARK                            x       y       z     vdW  Elec       q    Type
REMARK                         _______ _______ _______ _____ _____    ______ ____
ROOT
ATOM      1  N   UNL     1       0.270  -4.107  -0.064  0.00  0.00    -0.249 N 
ATOM      2  C   UNL     1       0.329  -4.802   1.127  0.00  0.00    +0.125 A 
ATOM      3  C   UNL     1       0.293  -6.165   1.085  0.00  0.00    +0.097 A 
ATOM      4  C   UNL     1       0.196  -6.829  -0.144  0.00  0.00    +0.262 A 
ATOM      5  N   UNL     1       0.140  -6.107  -1.283  0.00  0.00    -0.274 N 
ATOM      6  C   UNL     1       0.172  -4.763  -1.234  0.00  0.00    +0.335 A 
ATOM      7  O   UNL     1       0.116  -4.128  -2.269  0.00  0.00    -0.246 OA
ATOM      8  O   UNL     1       0.164  -8.047  -0.185  0.00  0.00    -0.267 OA
ATOM      9  C   UNL     1       0.374  -6.644   2.515  0.00  0.00    +0.240 C 
ATOM     10  C   UNL     1       0.458  -5.359   3.315  0.00  0.00    +0.256 C 
ATOM     11  O   UNL     1       0.539  -5.258   4.520  0.00  0.00    -0.272 OA
ATOM     12  N   UNL     1       0.425  -4.354   2.422  0.00  0.00    -0.269 N 
ATOM     13  H   UNL     1       0.073  -6.558  -2.139  0.00  0.00    +0.173 HD
ATOM     14  H   UNL     1       0.465  -3.416   2.666  0.00  0.00    +0.156 HD
ENDROOT
BRANCH   1  19
ATOM     15  C   UNL     1       0.412   1.566  -0.024  0.00  0.00    +0.044 C 
ATOM     16  C   UNL     1       0.374   0.059  -0.035  0.00  0.00    -0.050 A 
ATOM     17  C   UNL     1       1.423  -0.654  -0.587  0.00  0.00    +0.005 A 
ATOM     18  C   UNL     1       1.391  -2.034  -0.599  0.00  0.00    +0.026 A 
ATOM     19  C   UNL     1       0.305  -2.707  -0.054  0.00  0.00    +0.053 A 
ATOM     20  C   UNL     1      -0.746  -1.988   0.501  0.00  0.00    +0.026 A 
ATOM     21  C   UNL     1      -0.706  -0.608   0.513  0.00  0.00    +0.005 A 
ENDBRANCH   1  19
BRANCH   9  22
ATOM     22  C   UNL     1       1.628  -7.494   2.728  0.00  0.00    +0.424 C 
ATOM     23  F   UNL     1       2.766  -6.706   2.522  0.00  0.00    -0.167 F 
ATOM     24  F   UNL     1       1.637  -7.993   4.034  0.00  0.00    -0.167 F 
ATOM     25  F   UNL     1       1.629  -8.560   1.821  0.00  0.00    -0.167 F 
ENDBRANCH   9  22
BRANCH   9  26
ATOM     26  N   UNL     1      -0.829  -7.398   2.875  0.00  0.00    -0.287 N 
ATOM     27  C   UNL     1      -2.046  -6.837   2.727  0.00  0.00    +0.245 C 
ATOM     28  O   UNL     1      -2.142  -5.673   2.390  0.00  0.00    -0.270 OA
ATOM     29  H   UNL     1      -0.750  -8.301   3.221  0.00  0.00    +0.151 HD
BRANCH  27  30
ATOM     30  C   UNL     1      -3.264  -7.638   2.973  0.00  0.00    +0.037 A 
ATOM     31  C   UNL     1      -3.158  -8.974   3.365  0.00  0.00    +0.013 A 
ATOM     32  C   UNL     1      -4.298  -9.715   3.594  0.00  0.00    +0.001 A 
ATOM     33  C   UNL     1      -5.546  -9.138   3.435  0.00  0.00    +0.012 A 
ATOM     34  C   UNL     1      -5.658  -7.815   3.047  0.00  0.00    +0.056 A 
ATOM     35  C   UNL     1      -4.525  -7.061   2.820  0.00  0.00    +0.025 A 
BRANCH  34  36
ATOM     36  C   UNL     1      -7.021  -7.195   2.876  0.00  0.00    +0.417 C 
ATOM     37  F   UNL     1      -8.005  -8.146   3.164  0.00  0.00    -0.166 F 
ATOM     38  F   UNL     1      -7.152  -6.109   3.748  0.00  0.00    -0.166 F 
ATOM     39  F   UNL     1      -7.170  -6.754   1.556  0.00  0.00    -0.166 F 
ENDBRANCH  34  36
ENDBRANCH  27  30
ENDBRANCH   9  26
TORSDOF 5
