REMARK  Name = ZINC31891318
REMARK  1 active torsions:
REMARK  status: ('A' for Active; 'I' for Inactive)
REMARK    1  A    between atoms: C_6  and  C_7
REMARK                            x       y       z     vdW  Elec       q    Type
REMARK                         _______ _______ _______ _____ _____    ______ ____
ROOT
ATOM      1  C   UNL     1       2.288   5.367  -0.340  0.00  0.00    +0.012 A 
ATOM      2  C   UNL     1       2.284   3.988  -0.363  0.00  0.00    +0.024 A 
ATOM      3  C   UNL     1       1.149   3.288   0.025  0.00  0.00    +0.037 A 
ATOM      4  C   UNL     1       0.013   3.975   0.440  0.00  0.00    -0.025 A 
ATOM      5  C   UNL     1       0.010   5.353   0.466  0.00  0.00    +0.015 A 
ATOM      6  C   UNL     1       1.149   6.059   0.076  0.00  0.00    +0.001 A 
ATOM      7  C   UNL     1      -1.214   3.209   0.860  0.00  0.00    +0.046 C 
ATOM      8  C   UNL     1      -1.333   1.934   0.019  0.00  0.00    +0.101 C 
ATOM      9  C   UNL     1      -0.014   1.209   0.009  0.00  0.00    +0.218 C 
ATOM     10  O   UNL     1       0.002  -0.004   0.002  0.00  0.00    -0.275 OA
ATOM     11  N   UNL     1       1.146   1.889   0.001  0.00  0.00    -0.285 N 
ATOM     12  H   UNL     1       2.098   1.338  -0.024  0.00  0.00    +0.155 HD
ENDROOT
BRANCH   6  13
ATOM     13  C   UNL     1       1.150   7.538   0.102  0.00  0.00    +0.082 A 
ATOM     14  C   UNL     1       0.084   8.203   0.593  0.00  0.00    +0.077 A 
ATOM     15  S   UNL     1       0.594   9.903   0.397  0.00  0.00    -0.056 S 
ATOM     16  C   UNL     1       2.184   9.592  -0.332  0.00  0.00    +0.197 A 
ATOM     17  N   UNL     1       2.239   8.235  -0.381  0.00  0.00    -0.204 N 
ATOM     18  N   UNL     1       3.505   7.957  -0.962  0.00  0.00    -0.128 NA
ATOM     19  C   UNL     1       4.090   9.104  -1.208  0.00  0.00    +0.233 A 
ATOM     20  N   UNL     1       3.284  10.097  -0.823  0.00  0.00    -0.187 NA
ATOM     21  N   UNL     1       5.353   9.262  -1.780  0.00  0.00    -0.326 N 
ATOM     22  H   UNL     1       5.759  10.271  -1.946  0.00  0.00    +0.145 HD
ATOM     23  H   UNL     1       5.942   8.378  -2.065  0.00  0.00    +0.145 HD
ENDBRANCH   6  13
TORSDOF 1
