REMARK  Name = ZINC09237616
REMARK  4 active torsions:
REMARK  status: ('A' for Active; 'I' for Inactive)
REMARK    1  A    between atoms: C_1  and  C_2
REMARK    2  A    between atoms: C_8  and  C_24
REMARK    3  A    between atoms: C_10  and  C_13
REMARK    4  A    between atoms: N_15  and  C_16
REMARK                            x       y       z     vdW  Elec       q    Type
REMARK                         _______ _______ _______ _____ _____    ______ ____
ROOT
ATOM      1  C   UNL     1       7.653  -3.490   1.134  0.00  0.00    +0.090 C 
ATOM      2  C   UNL     1       6.324  -3.955   1.670  0.00  0.00    +0.148 A 
ATOM      3  N   UNL     1       6.056  -4.268   2.909  0.00  0.00    -0.132 NA
ATOM      4  N   UNL     1       4.825  -4.629   3.019  0.00  0.00    -0.121 NA
ATOM      5  C   UNL     1       4.248  -4.567   1.851  0.00  0.00    +0.209 A 
ATOM      6  N   UNL     1       5.176  -4.128   0.951  0.00  0.00    -0.225 N 
ATOM      7  N   UNL     1       4.989  -3.907  -0.376  0.00  0.00    -0.272 N 
ATOM      8  C   UNL     1       3.851  -4.635  -0.939  0.00  0.00    +0.140 C 
ATOM      9  C   UNL     1       2.552  -4.235  -0.227  0.00  0.00    +0.166 C 
ATOM     10  S   UNL     1       2.580  -4.969   1.436  0.00  0.00    -0.069 S 
ATOM     11  H   UNL     1       4.918  -2.919  -0.572  0.00  0.00    +0.167 HD
ENDROOT
BRANCH   8  12
ATOM     12  C   UNL     1       3.735  -4.312  -2.407  0.00  0.00    -0.024 A 
ATOM     13  C   UNL     1       3.926  -3.015  -2.845  0.00  0.00    +0.008 A 
ATOM     14  C   UNL     1       3.825  -2.719  -4.191  0.00  0.00    +0.038 A 
ATOM     15  C   UNL     1       3.521  -3.719  -5.099  0.00  0.00    +0.123 A 
ATOM     16  C   UNL     1       3.325  -5.017  -4.658  0.00  0.00    +0.038 A 
ATOM     17  C   UNL     1       3.432  -5.312  -3.312  0.00  0.00    +0.008 A 
ATOM     18  F   UNL     1       3.416  -3.429  -6.415  0.00  0.00    -0.205 F 
ENDBRANCH   8  12
BRANCH   9  19
ATOM     19  C   UNL     1       2.470  -2.734  -0.122  0.00  0.00    +0.233 C 
ATOM     20  O   UNL     1       3.259  -2.131   0.575  0.00  0.00    -0.274 OA
ATOM     21  N   UNL     1       1.520  -2.062  -0.801  0.00  0.00    -0.283 N 
ATOM     22  H   UNL     1       0.845  -2.548  -1.301  0.00  0.00    +0.155 HD
BRANCH  21  23
ATOM     23  C   UNL     1       1.506  -0.662  -0.786  0.00  0.00    +0.052 A 
ATOM     24  C   UNL     1       1.925   0.025   0.346  0.00  0.00    +0.026 A 
ATOM     25  C   UNL     1       1.910   1.406   0.358  0.00  0.00    +0.017 A 
ATOM     26  C   UNL     1       1.479   2.106  -0.755  0.00  0.00    +0.019 A 
ATOM     27  C   UNL     1       1.062   1.424  -1.884  0.00  0.00    +0.037 A 
ATOM     28  C   UNL     1       1.074   0.042  -1.903  0.00  0.00    +0.063 A 
ATOM     29 CL   UNL     1       0.550  -0.812  -3.320  0.00  0.00    -0.082 Cl
ATOM     30 BR   UNL     1       1.461   3.997  -0.733  0.00  0.00    -0.050 Br
ENDBRANCH  21  23
ENDBRANCH   9  19
TORSDOF 3
