REMARK  Name = ZINC08451820
REMARK  11 active torsions:
REMARK  status: ('A' for Active; 'I' for Inactive)
REMARK    1  A    between atoms: C_1  and  C_2
REMARK    2  A    between atoms: C_6  and  N_8
REMARK    3  A    between atoms: C_9  and  C_11
REMARK    4  A    between atoms: C_11  and  N_12
REMARK    5  A    between atoms: C_16  and  C_17
REMARK    6  A    between atoms: C_20  and  O_25
REMARK    7  A    between atoms: C_21  and  O_23
REMARK    8  A    between atoms: O_23  and  C_24
REMARK    9  A    between atoms: O_25  and  C_26
REMARK   10  A    between atoms: C_26  and  C_27
REMARK   11  A    between atoms: C_31  and  C_33
REMARK                            x       y       z     vdW  Elec       q    Type
REMARK                         _______ _______ _______ _____ _____    ______ ____
ROOT
ATOM      1  N   UNL     1      -2.676  10.130  -0.260  0.00  0.00    -0.212 N 
ATOM      2  C   UNL     1      -3.523  10.014   0.783  0.00  0.00    +0.269 C 
ATOM      3  O   UNL     1      -3.332  10.389   1.925  0.00  0.00    -0.268 OA
ATOM      4  C   UNL     1      -4.726   9.345   0.262  0.00  0.00    +0.098 C 
ATOM      5  C   UNL     1      -5.848   9.017   0.949  0.00  0.00    +0.036 C 
ATOM      6  N   UNL     1      -4.462   9.120  -1.096  0.00  0.00    -0.265 N 
ATOM      7  C   UNL     1      -3.236   9.607  -1.362  0.00  0.00    +0.314 C 
ATOM      8  O   UNL     1      -2.705   9.575  -2.455  0.00  0.00    -0.252 OA
ATOM      9  H   UNL     1      -5.058   8.694  -1.732  0.00  0.00    +0.157 HD
ENDROOT
BRANCH   5  10
ATOM     10  C   UNL     1      -5.880   9.149   2.411  0.00  0.00    -0.019 A 
ATOM     11  C   UNL     1      -4.770   8.769   3.175  0.00  0.00    +0.012 A 
ATOM     12  C   UNL     1      -4.802   8.895   4.546  0.00  0.00    +0.050 A 
ATOM     13  C   UNL     1      -5.934   9.398   5.174  0.00  0.00    +0.162 A 
ATOM     14  C   UNL     1      -7.044   9.779   4.421  0.00  0.00    +0.162 A 
ATOM     15  C   UNL     1      -7.019   9.660   3.045  0.00  0.00    +0.057 A 
BRANCH  14  16
ATOM     16  O   UNL     1      -8.149  10.271   5.041  0.00  0.00    -0.491 OA
ATOM     17  C   UNL     1      -9.250  10.641   4.208  0.00  0.00    +0.277 C 
ENDBRANCH  14  16
BRANCH  13  18
ATOM     18  O   UNL     1      -5.960   9.520   6.527  0.00  0.00    -0.484 OA
BRANCH  18  19
ATOM     19  C   UNL     1      -4.789   9.112   7.238  0.00  0.00    +0.264 C 
BRANCH  19  20
ATOM     20  C   UNL     1      -5.000   9.319   8.715  0.00  0.00    -0.010 A 
ATOM     21  C   UNL     1      -5.540   8.303   9.484  0.00  0.00    +0.007 A 
ATOM     22  C   UNL     1      -5.738   8.484  10.841  0.00  0.00    +0.001 A 
ATOM     23  C   UNL     1      -5.398   9.681  11.438  0.00  0.00    +0.015 A 
ATOM     24  C   UNL     1      -4.853  10.710  10.668  0.00  0.00    +0.064 A 
ATOM     25  C   UNL     1      -4.651  10.518   9.300  0.00  0.00    +0.022 A 
BRANCH  24  26
ATOM     26  C   UNL     1      -4.486  11.994  11.300  0.00  0.00    +0.387 C 
ATOM     27  O   UNL     1      -4.011  12.888  10.627  0.00  0.00    -0.241 OA
ATOM     28  O   UNL     1      -4.676  12.174  12.621  0.00  0.00    -0.241 OA
ENDBRANCH  24  26
ENDBRANCH  19  20
ENDBRANCH  18  19
ENDBRANCH  13  18
ENDBRANCH   5  10
BRANCH   1  29
ATOM     29  C   UNL     1      -1.346  10.741  -0.201  0.00  0.00    +0.214 C 
BRANCH  29  31
ATOM     30  N   UNL     1       0.977  10.020   0.248  0.00  0.00    -0.284 N 
ATOM     31  C   UNL     1      -0.324   9.687   0.139  0.00  0.00    +0.235 C 
ATOM     32  O   UNL     1      -0.673   8.538   0.315  0.00  0.00    -0.274 OA
ATOM     33  H   UNL     1       1.246  10.950   0.188  0.00  0.00    +0.155 HD
BRANCH  30  39
ATOM     34  C   UNL     1       2.454   5.373  -0.379  0.00  0.00    +0.044 C 
ATOM     35  C   UNL     1       2.681   6.763   0.155  0.00  0.00    -0.049 A 
ATOM     36  C   UNL     1       3.844   7.056   0.846  0.00  0.00    +0.003 A 
ATOM     37  C   UNL     1       4.054   8.329   1.342  0.00  0.00    +0.002 A 
ATOM     38  C   UNL     1       3.107   9.315   1.142  0.00  0.00    +0.023 A 
ATOM     39  C   UNL     1       1.940   9.024   0.449  0.00  0.00    +0.034 A 
ATOM     40  C   UNL     1       1.729   7.743  -0.044  0.00  0.00    +0.026 A 
ENDBRANCH  30  39
ENDBRANCH  29  31
ENDBRANCH   1  29
TORSDOF 9
