REMARK  Name = ZINC25582124
REMARK  8 active torsions:
REMARK  status: ('A' for Active; 'I' for Inactive)
REMARK    1  A    between atoms: C_1  and  C_2
REMARK    2  A    between atoms: C_5  and  S_8
REMARK    3  A    between atoms: S_8  and  N_11
REMARK    4  A    between atoms: C_14  and  N_17
REMARK    5  A    between atoms: C_18  and  C_20
REMARK    6  A    between atoms: C_20  and  C_22
REMARK    7  A    between atoms: C_20  and  N_28
REMARK    8  A    between atoms: C_29  and  C_31
REMARK                            x       y       z     vdW  Elec       q    Type
REMARK                         _______ _______ _______ _____ _____    ______ ____
ROOT
ATOM      1  N   UNL     1      -7.231   2.419  -0.657  0.00  0.00    -0.311 N 
ATOM      2  C   UNL     1      -5.910   2.668  -0.557  0.00  0.00    +0.238 C 
ATOM      3  O   UNL     1      -5.462   3.727  -0.943  0.00  0.00    -0.273 OA
ATOM      4  H   UNL     1      -7.638   1.459  -0.307  0.00  0.00    +0.149 HD
ENDROOT
BRANCH   1   8
ATOM      5  N   UNL     1     -10.573   4.832  -1.429  0.00  0.00    -0.176 NA
ATOM      6  C   UNL     1     -10.285   3.796  -2.431  0.00  0.00    +0.111 C 
ATOM      7  C   UNL     1      -9.369   2.742  -1.801  0.00  0.00    +0.039 C 
ATOM      8  C   UNL     1      -8.125   3.428  -1.231  0.00  0.00    +0.075 C 
ATOM      9  C   UNL     1      -8.541   4.419  -0.142  0.00  0.00    +0.039 C 
ATOM     10  C   UNL     1      -9.448   5.492  -0.753  0.00  0.00    +0.111 C 
BRANCH   5  11
ATOM     11  S   UNL     1     -12.135   5.247  -1.070  0.00  0.00    +0.061 S 
ATOM     12  O   UNL     1     -12.094   6.569  -0.550  0.00  0.00    -0.153 OA
ATOM     13  O   UNL     1     -12.919   4.898  -2.203  0.00  0.00    -0.153 OA
BRANCH  11  18
ATOM     14  C   UNL     1     -13.940   1.672   3.443  0.00  0.00    +0.044 C 
ATOM     15  C   UNL     1     -13.489   2.565   2.316  0.00  0.00    -0.050 A 
ATOM     16  C   UNL     1     -12.886   3.777   2.593  0.00  0.00    +0.005 A 
ATOM     17  C   UNL     1     -12.472   4.596   1.559  0.00  0.00    +0.029 A 
ATOM     18  C   UNL     1     -12.662   4.203   0.248  0.00  0.00    +0.105 A 
ATOM     19  C   UNL     1     -13.270   2.993  -0.030  0.00  0.00    +0.029 A 
ATOM     20  C   UNL     1     -13.679   2.172   1.004  0.00  0.00    +0.005 A 
ENDBRANCH  11  18
ENDBRANCH   5  11
ENDBRANCH   1   8
BRANCH   2  21
ATOM     21  C   UNL     1      -4.990   1.630   0.033  0.00  0.00    +0.190 C 
BRANCH  21  22
ATOM     22  C   UNL     1      -5.413   1.332   1.449  0.00  0.00    -0.018 A 
ATOM     23  C   UNL     1      -5.045   2.184   2.474  0.00  0.00    +0.006 A 
ATOM     24  C   UNL     1      -5.436   1.913   3.772  0.00  0.00    +0.000 A 
ATOM     25  C   UNL     1      -6.187   0.785   4.046  0.00  0.00    +0.000 A 
ATOM     26  C   UNL     1      -6.550  -0.069   3.022  0.00  0.00    +0.000 A 
ATOM     27  C   UNL     1      -6.163   0.204   1.724  0.00  0.00    +0.006 A 
ENDBRANCH  21  22
BRANCH  21  28
ATOM     28  N   UNL     1      -3.616   2.137   0.030  0.00  0.00    -0.296 N 
ATOM     29  C   UNL     1      -2.580   1.276   0.021  0.00  0.00    +0.252 C 
ATOM     30  O   UNL     1      -2.786   0.076   0.015  0.00  0.00    -0.270 OA
ATOM     31  H   UNL     1      -3.430   3.221   0.035  0.00  0.00    +0.150 HD
BRANCH  29  32
ATOM     32  C   UNL     1      -1.205   1.783   0.017  0.00  0.00    +0.074 A 
ATOM     33  C   UNL     1      -0.013   1.076   0.008  0.00  0.00    +0.021 A 
ATOM     34  C   UNL     1       1.149   1.808   0.001  0.00  0.00    +0.008 A 
ATOM     35  C   UNL     1       1.077   3.165   0.008  0.00  0.00    +0.046 A 
ATOM     36  S   UNL     1      -0.629   3.471   0.026  0.00  0.00    -0.092 S 
ENDBRANCH  29  32
ENDBRANCH  21  28
ENDBRANCH   2  21
TORSDOF 7
