REMARK  Name = ZINC07298559
REMARK  9 active torsions:
REMARK  status: ('A' for Active; 'I' for Inactive)
REMARK    1  A    between atoms: C_1  and  C_2
REMARK    2  A    between atoms: C_5  and  C_8
REMARK    3  A    between atoms: C_11  and  S_14
REMARK    4  A    between atoms: N_12  and  N_13
REMARK    5  A    between atoms: S_14  and  C_15
REMARK    6  A    between atoms: C_15  and  C_17
REMARK    7  A    between atoms: C_15  and  C_18
REMARK    8  A    between atoms: N_20  and  C_21
REMARK    9  A    between atoms: N_20  and  C_22
REMARK                            x       y       z     vdW  Elec       q    Type
REMARK                         _______ _______ _______ _____ _____    ______ ____
ROOT
ATOM      1  C   UNL     1       1.242  -0.435  -0.012  0.00  0.00    +0.182 A 
ATOM      2  N   UNL     1       0.002  -0.004   0.002  0.00  0.00    -0.127 NA
ATOM      3  N   UNL     1      -0.015   1.281   0.009  0.00  0.00    -0.121 NA
ATOM      4  C   UNL     1       1.213   1.749  -0.000  0.00  0.00    +0.209 A 
ATOM      5  N   UNL     1       2.055   0.674  -0.014  0.00  0.00    -0.224 N 
ENDROOT
BRANCH   1  10
ATOM      6  C   UNL     1       2.951  -5.930  -0.056  0.00  0.00    +0.044 C 
ATOM      7  C   UNL     1       2.504  -4.491  -0.045  0.00  0.00    -0.050 A 
ATOM      8  C   UNL     1       1.189  -4.176  -0.341  0.00  0.00    +0.004 A 
ATOM      9  C   UNL     1       0.773  -2.861  -0.332  0.00  0.00    +0.012 A 
ATOM     10  C   UNL     1       1.681  -1.847  -0.023  0.00  0.00    +0.021 A 
ATOM     11  C   UNL     1       3.007  -2.171   0.270  0.00  0.00    +0.012 A 
ATOM     12  C   UNL     1       3.409  -3.490   0.262  0.00  0.00    +0.004 A 
ENDBRANCH   1  10
BRANCH   5  13
ATOM     13  N   UNL     1       3.421   0.696  -0.026  0.00  0.00    -0.295 N 
ATOM     14  H   UNL     1       3.774   0.707  -0.972  0.00  0.00    +0.163 HD
ATOM     15  H   UNL     1       3.775   1.480   0.500  0.00  0.00    +0.163 HD
ENDBRANCH   5  13
BRANCH   4  16
ATOM     16  S   UNL     1       1.685   3.447   0.004  0.00  0.00    -0.072 S 
BRANCH  16  17
ATOM     17  C   UNL     1       0.051   4.226   0.024  0.00  0.00    +0.137 C 
ATOM     18  C   UNL     1      -0.659   3.889   1.337  0.00  0.00    +0.029 C 
BRANCH  17  19
ATOM     19  C   UNL     1       0.207   5.721  -0.094  0.00  0.00    +0.229 C 
ATOM     20  O   UNL     1       1.267   6.244   0.178  0.00  0.00    -0.274 OA
ATOM     21  N   UNL     1      -0.833   6.476  -0.501  0.00  0.00    -0.299 N 
ATOM     22  C   UNL     1      -2.113   5.845  -0.829  0.00  0.00    +0.132 C 
BRANCH  21  23
ATOM     23  C   UNL     1      -0.681   7.929  -0.615  0.00  0.00    +0.098 C 
ATOM     24  C   UNL     1      -0.945   8.366  -2.066  0.00  0.00    +0.046 C 
ATOM     25  C   UNL     1      -1.105   9.904  -2.133  0.00  0.00    +0.168 C 
ATOM     26  S   UNL     1      -1.748  10.317  -0.460  0.00  0.00    -0.029 S 
ATOM     27  O   UNL     1      -0.805  11.143   0.207  0.00  0.00    -0.174 OA
ATOM     28  O   UNL     1      -3.097  10.749  -0.577  0.00  0.00    -0.174 OA
ATOM     29  C   UNL     1      -1.719   8.639   0.301  0.00  0.00    +0.188 C 
ENDBRANCH  21  23
ENDBRANCH  17  19
ENDBRANCH  16  17
ENDBRANCH   4  16
TORSDOF 6
