REMARK  Name = ZINC59862277
REMARK  9 active torsions:
REMARK  status: ('A' for Active; 'I' for Inactive)
REMARK    1  A    between atoms: C_1  and  C_2
REMARK    2  A    between atoms: C_4  and  N_10
REMARK    3  A    between atoms: C_7  and  C_8
REMARK    4  A    between atoms: C_14  and  C_15
REMARK    5  A    between atoms: C_17  and  O_24
REMARK    6  A    between atoms: C_18  and  O_23
REMARK    7  A    between atoms: C_19  and  O_21
REMARK    8  A    between atoms: O_21  and  C_22
REMARK    9  A    between atoms: O_24  and  C_25
REMARK                            x       y       z     vdW  Elec       q    Type
REMARK                         _______ _______ _______ _____ _____    ______ ____
ROOT
ATOM      1  N   UNL     1       0.012  -2.568  -2.537  0.00  0.00    -0.187 N 
ATOM      2  C   UNL     1      -1.109  -3.176  -2.982  0.00  0.00    +0.264 C 
ATOM      3  O   UNL     1      -2.056  -3.367  -2.242  0.00  0.00    -0.269 OA
ATOM      4  C   UNL     1      -1.146  -3.601  -4.395  0.00  0.00    +0.102 C 
ATOM      5  C   UNL     1      -2.257  -4.231  -4.933  0.00  0.00    +0.026 C 
ATOM      6  C   UNL     1       0.049  -3.325  -5.207  0.00  0.00    +0.276 C 
ATOM      7  O   UNL     1       0.097  -3.680  -6.508  0.00  0.00    -0.268 OA
ATOM      8  N   UNL     1       1.075  -2.720  -4.633  0.00  0.00    -0.123 NA
ATOM      9  C   UNL     1       1.054  -2.353  -3.354  0.00  0.00    +0.340 C 
ATOM     10  O   UNL     1       2.037  -1.796  -2.898  0.00  0.00    -0.250 OA
ENDROOT
BRANCH   1  14
ATOM     11  C   UNL     1      -0.727   0.914   0.856  0.00  0.00    +0.044 C 
ATOM     12  C   UNL     1      -0.266  -0.468   0.470  0.00  0.00    -0.046 A 
ATOM     13  C   UNL     1      -0.339  -0.877  -0.847  0.00  0.00    +0.028 A 
ATOM     14  C   UNL     1       0.086  -2.150  -1.202  0.00  0.00    +0.060 A 
ATOM     15  C   UNL     1       0.584  -3.009  -0.229  0.00  0.00    +0.040 A 
ATOM     16  C   UNL     1       0.654  -2.593   1.087  0.00  0.00    +0.020 A 
ATOM     17  C   UNL     1       0.235  -1.322   1.435  0.00  0.00    -0.046 A 
ATOM     18  C   UNL     1       0.320  -0.869   2.870  0.00  0.00    +0.044 C 
ATOM     19 BR   UNL     1       1.163  -4.744  -0.706  0.00  0.00    -0.048 Br
ENDBRANCH   1  14
BRANCH   5  20
ATOM     20  C   UNL     1      -2.179  -4.838  -6.212  0.00  0.00    -0.017 A 
ATOM     21  C   UNL     1      -1.111  -5.697  -6.520  0.00  0.00    +0.057 A 
ATOM     22  C   UNL     1      -1.039  -6.285  -7.766  0.00  0.00    +0.166 A 
ATOM     23  C   UNL     1      -2.024  -6.028  -8.719  0.00  0.00    +0.201 A 
ATOM     24  C   UNL     1      -3.086  -5.175  -8.418  0.00  0.00    +0.166 A 
ATOM     25  C   UNL     1      -3.171  -4.588  -7.173  0.00  0.00    +0.057 A 
BRANCH  24  26
ATOM     26  O   UNL     1      -4.043  -4.928  -9.352  0.00  0.00    -0.491 OA
ATOM     27  C   UNL     1      -5.103  -4.046  -8.977  0.00  0.00    +0.277 C 
ENDBRANCH  24  26
BRANCH  23  28
ATOM     28  O   UNL     1      -1.948  -6.608  -9.944  0.00  0.00    -0.501 OA
ATOM     29  H   UNL     1      -2.394  -7.465 -10.001  0.00  0.00    +0.292 HD
ENDBRANCH  23  28
BRANCH  22  30
ATOM     30  O   UNL     1      -0.005  -7.116  -8.065  0.00  0.00    -0.491 OA
ATOM     31  C   UNL     1       0.969  -7.335  -7.042  0.00  0.00    +0.277 C 
ENDBRANCH  22  30
ENDBRANCH   5  20
TORSDOF 5
