REMARK  Name = ZINC46716857
REMARK  11 active torsions:
REMARK  status: ('A' for Active; 'I' for Inactive)
REMARK    1  A    between atoms: C_1  and  C_2
REMARK    2  A    between atoms: C_5  and  C_35
REMARK    3  A    between atoms: C_10  and  C_12
REMARK    4  A    between atoms: C_17  and  N_18
REMARK    5  A    between atoms: C_19  and  C_21
REMARK    6  A    between atoms: C_25  and  N_27
REMARK    7  A    between atoms: C_28  and  O_30
REMARK    8  A    between atoms: O_30  and  C_31
REMARK    9  A    between atoms: C_31  and  C_32
REMARK   10  A    between atoms: C_31  and  C_33
REMARK   11  A    between atoms: C_31  and  C_34
REMARK                            x       y       z     vdW  Elec       q    Type
REMARK                         _______ _______ _______ _____ _____    ______ ____
ROOT
ATOM      1  N   UNL     1       4.011   2.101   4.183  0.00  0.00    -0.281 N 
ATOM      2  C   UNL     1       4.850   2.179   5.235  0.00  0.00    +0.248 C 
ATOM      3  O   UNL     1       4.434   1.985   6.360  0.00  0.00    -0.270 OA
ATOM      4  H   UNL     1       4.329   2.313   3.292  0.00  0.00    +0.155 HD
ENDROOT
BRANCH   1  10
ATOM      5  C   UNL     1       2.010   0.994   3.381  0.00  0.00    +0.058 A 
ATOM      6  C   UNL     1       0.684   0.610   3.590  0.00  0.00    +0.015 A 
ATOM      7  C   UNL     1       0.047   0.945   4.765  0.00  0.00    +0.001 A 
ATOM      8  C   UNL     1       0.716   1.663   5.743  0.00  0.00    +0.002 A 
ATOM      9  C   UNL     1       2.027   2.051   5.551  0.00  0.00    +0.024 A 
ATOM     10  C   UNL     1       2.687   1.716   4.376  0.00  0.00    +0.046 A 
BRANCH   5  18
ATOM     11  C   UNL     1       1.801   3.876   0.778  0.00  0.00    +0.009 C 
ATOM     12  C   UNL     1       0.911   2.865   0.051  0.00  0.00    +0.004 C 
ATOM     13  C   UNL     1       1.517   2.542  -1.317  0.00  0.00    +0.009 C 
ATOM     14  C   UNL     1       2.929   1.980  -1.131  0.00  0.00    +0.004 C 
ATOM     15  C   UNL     1       2.855   0.685  -0.317  0.00  0.00    +0.111 C 
ATOM     16  N   UNL     1       2.143   0.956   0.940  0.00  0.00    -0.297 N 
ATOM     17  C   UNL     1       0.814   1.580   0.879  0.00  0.00    +0.111 C 
ATOM     18  C   UNL     1       2.698   0.638   2.126  0.00  0.00    +0.248 C 
ATOM     19  O   UNL     1       3.766   0.057   2.161  0.00  0.00    -0.270 OA
ATOM     20  C   UNL     1       3.546   1.689  -2.500  0.00  0.00    +0.009 C 
ENDBRANCH   5  18
ENDBRANCH   1  10
BRANCH   2  21
ATOM     21  C   UNL     1       6.277   2.499   5.019  0.00  0.00    +0.039 A 
ATOM     22  C   UNL     1       6.756   2.728   3.728  0.00  0.00    +0.013 A 
ATOM     23  C   UNL     1       8.088   3.028   3.530  0.00  0.00    +0.003 A 
ATOM     24  C   UNL     1       8.953   3.103   4.607  0.00  0.00    +0.023 A 
ATOM     25  C   UNL     1       8.485   2.876   5.896  0.00  0.00    +0.037 A 
ATOM     26  C   UNL     1       7.147   2.580   6.106  0.00  0.00    +0.036 A 
BRANCH  25  27
ATOM     27  N   UNL     1       9.364   2.952   6.983  0.00  0.00    -0.251 N 
ATOM     28  C   UNL     1       9.177   2.161   8.058  0.00  0.00    +0.405 C 
ATOM     29  O   UNL     1       8.309   1.311   8.042  0.00  0.00    -0.226 OA
ATOM     30  H   UNL     1      10.108   3.574   6.962  0.00  0.00    +0.158 HD
BRANCH  28  31
ATOM     31  O   UNL     1       9.951   2.314   9.149  0.00  0.00    -0.444 OA
BRANCH  31  32
ATOM     32  C   UNL     1       9.697   1.441  10.251  0.00  0.00    +0.107 C 
ATOM     33  C   UNL     1       9.892  -0.011   9.809  0.00  0.00    +0.055 C 
ATOM     34  C   UNL     1      10.668   1.761  11.390  0.00  0.00    +0.055 C 
ATOM     35  C   UNL     1       8.259   1.637  10.737  0.00  0.00    +0.055 C 
ENDBRANCH  31  32
ENDBRANCH  28  31
ENDBRANCH  25  27
ENDBRANCH   2  21
TORSDOF 6
