REMARK  Name = ZINC22537468
REMARK  7 active torsions:
REMARK  status: ('A' for Active; 'I' for Inactive)
REMARK    1  A    between atoms: C_1  and  C_2
REMARK    2  A    between atoms: C_7  and  C_29
REMARK    3  A    between atoms: C_9  and  C_13
REMARK    4  A    between atoms: C_10  and  C_12
REMARK    5  A    between atoms: N_15  and  C_16
REMARK    6  A    between atoms: C_19  and  O_22
REMARK    7  A    between atoms: O_22  and  C_23
REMARK                            x       y       z     vdW  Elec       q    Type
REMARK                         _______ _______ _______ _____ _____    ______ ____
ROOT
ATOM      1  C   UNL     1      -0.190   1.288  -1.584  0.00  0.00    +0.090 C 
ATOM      2  C   UNL     1      -0.093  -0.112  -1.036  0.00  0.00    +0.150 A 
ATOM      3  N   UNL     1       0.617  -1.108  -1.576  0.00  0.00    -0.198 NA
ATOM      4  C   UNL     1       0.480  -2.184  -0.851  0.00  0.00    +0.219 A 
ATOM      5  N   UNL     1      -0.336  -1.887   0.190  0.00  0.00    -0.221 N 
ATOM      6  N   UNL     1      -0.689  -0.546   0.047  0.00  0.00    -0.153 NA
ATOM      7  C   UNL     1      -0.711  -2.849   1.223  0.00  0.00    +0.177 C 
ATOM      8  C   UNL     1      -0.311  -4.233   0.788  0.00  0.00    +0.060 C 
ATOM      9  C   UNL     1       0.498  -4.468  -0.255  0.00  0.00    +0.018 C 
ATOM     10  N   UNL     1       1.019  -3.453  -1.020  0.00  0.00    -0.287 N 
ATOM     11  C   UNL     1       0.849  -5.892  -0.599  0.00  0.00    +0.061 C 
ATOM     12  H   UNL     1       1.735  -3.616  -1.654  0.00  0.00    +0.155 HD
ENDROOT
BRANCH   7  13
ATOM     13  C   UNL     1      -0.008  -2.503   2.511  0.00  0.00    -0.018 A 
ATOM     14  C   UNL     1       1.373  -2.478   2.558  0.00  0.00    +0.009 A 
ATOM     15  C   UNL     1       2.019  -2.161   3.737  0.00  0.00    +0.039 A 
ATOM     16  C   UNL     1       1.283  -1.869   4.873  0.00  0.00    +0.123 A 
ATOM     17  C   UNL     1      -0.101  -1.895   4.825  0.00  0.00    +0.039 A 
ATOM     18  C   UNL     1      -0.745  -2.208   3.642  0.00  0.00    +0.009 A 
ATOM     19  F   UNL     1       1.913  -1.560   6.027  0.00  0.00    -0.205 F 
ENDBRANCH   7  13
BRANCH   8  20
ATOM     20  C   UNL     1      -0.812  -5.339   1.514  0.00  0.00    +0.248 C 
ATOM     21  O   UNL     1      -0.665  -6.468   1.083  0.00  0.00    -0.270 OA
ATOM     22  N   UNL     1      -1.452  -5.143   2.684  0.00  0.00    -0.282 N 
ATOM     23  H   UNL     1      -1.628  -4.242   2.996  0.00  0.00    +0.155 HD
BRANCH  22  24
ATOM     24  C   UNL     1      -1.863  -6.241   3.450  0.00  0.00    +0.034 A 
ATOM     25  C   UNL     1      -1.864  -6.160   4.836  0.00  0.00    +0.027 A 
ATOM     26  C   UNL     1      -2.269  -7.243   5.591  0.00  0.00    +0.048 A 
ATOM     27  C   UNL     1      -2.676  -8.412   4.964  0.00  0.00    +0.129 A 
ATOM     28  C   UNL     1      -2.675  -8.494   3.579  0.00  0.00    +0.048 A 
ATOM     29  C   UNL     1      -2.276  -7.410   2.823  0.00  0.00    +0.027 A 
BRANCH  27  30
ATOM     30  O   UNL     1      -3.075  -9.478   5.707  0.00  0.00    -0.456 OA
BRANCH  30  31
ATOM     31  C   UNL     1      -3.355 -10.639   5.059  0.00  0.00    +0.128 A 
ATOM     32  C   UNL     1      -2.323 -11.460   4.626  0.00  0.00    +0.046 A 
ATOM     33  C   UNL     1      -2.610 -12.639   3.967  0.00  0.00    +0.004 A 
ATOM     34  C   UNL     1      -3.925 -13.003   3.740  0.00  0.00    +0.000 A 
ATOM     35  C   UNL     1      -4.955 -12.187   4.170  0.00  0.00    +0.004 A 
ATOM     36  C   UNL     1      -4.673 -11.009   4.835  0.00  0.00    +0.046 A 
ENDBRANCH  30  31
ENDBRANCH  27  30
ENDBRANCH  22  24
ENDBRANCH   8  20
TORSDOF 5
