REMARK  Name = ZINC00739418
REMARK  4 active torsions:
REMARK  status: ('A' for Active; 'I' for Inactive)
REMARK    1  A    between atoms: C_6  and  C_11
REMARK    2  A    between atoms: N_16  and  C_19
REMARK    3  A    between atoms: C_22  and  N_25
REMARK    4  A    between atoms: N_28  and  C_29
REMARK                            x       y       z     vdW  Elec       q    Type
REMARK                         _______ _______ _______ _____ _____    ______ ____
ROOT
ATOM      1  C   UNL     1       0.791  -2.361  -1.423  0.00  0.00    +0.030 A 
ATOM      2  C   UNL     1      -0.525  -1.943  -1.570  0.00  0.00    +0.025 A 
ATOM      3  C   UNL     1      -0.802  -0.734  -2.175  0.00  0.00    +0.025 A 
ATOM      4  C   UNL     1       0.235   0.065  -2.637  0.00  0.00    +0.035 A 
ATOM      5  C   UNL     1       1.551  -0.353  -2.491  0.00  0.00    +0.025 A 
ATOM      6  C   UNL     1       1.829  -1.563  -1.886  0.00  0.00    +0.025 A 
ENDROOT
BRANCH   1  12
ATOM      7  C   UNL     1       2.716  -5.898   2.116  0.00  0.00    +0.247 C 
ATOM      8  O   UNL     1       2.096  -6.131   3.136  0.00  0.00    -0.270 OA
ATOM      9  N   UNL     1       2.072  -5.426   1.030  0.00  0.00    -0.295 N 
ATOM     10  C   UNL     1       2.777  -5.253  -0.250  0.00  0.00    +0.127 C 
ATOM     11  C   UNL     1       2.519  -3.832  -0.760  0.00  0.00    +0.124 C 
ATOM     12  N   UNL     1       1.072  -3.587  -0.810  0.00  0.00    -0.327 N 
ATOM     13  C   UNL     1       0.473  -3.655   0.530  0.00  0.00    +0.124 C 
ATOM     14  C   UNL     1       0.646  -5.070   1.092  0.00  0.00    +0.127 C 
BRANCH   7  20
ATOM     15  C   UNL     1       8.851  -7.806   2.589  0.00  0.00    +0.001 A 
ATOM     16  C   UNL     1       8.050  -8.659   3.346  0.00  0.00    +0.001 A 
ATOM     17  C   UNL     1       6.703  -8.476   3.416  0.00  0.00    +0.008 A 
ATOM     18  C   UNL     1       6.108  -7.410   2.717  0.00  0.00    -0.017 A 
ATOM     19  C   UNL     1       4.723  -7.193   2.769  0.00  0.00    +0.021 A 
ATOM     20  C   UNL     1       4.174  -6.133   2.066  0.00  0.00    +0.037 A 
ATOM     21  C   UNL     1       4.992  -5.282   1.302  0.00  0.00    +0.013 A 
ATOM     22  C   UNL     1       6.335  -5.474   1.246  0.00  0.00    +0.009 A 
ATOM     23  C   UNL     1       6.923  -6.542   1.948  0.00  0.00    -0.018 A 
ATOM     24  C   UNL     1       8.309  -6.764   1.899  0.00  0.00    +0.008 A 
ENDBRANCH   7  20
ENDBRANCH   1  12
BRANCH   4  25
ATOM     25  N   UNL     1      -0.046   1.294  -3.251  0.00  0.00    -0.269 N 
ATOM     26  C   UNL     1      -1.099   2.027  -2.840  0.00  0.00    +0.308 C 
ATOM     27  O   UNL     1      -1.746   1.673  -1.873  0.00  0.00    -0.252 OA
ATOM     28  N   UNL     1      -1.435   3.153  -3.500  0.00  0.00    -0.267 N 
ATOM     29  H   UNL     1       0.593   1.659  -4.068  0.00  0.00    +0.156 HD
ATOM     30  H   UNL     1      -0.910   3.424  -4.428  0.00  0.00    +0.156 HD
BRANCH  28  31
ATOM     31  C   UNL     1      -2.454   3.979  -3.004  0.00  0.00    +0.070 A 
ATOM     32  C   UNL     1      -2.811   3.913  -1.665  0.00  0.00    +0.029 A 
ATOM     33  C   UNL     1      -3.815   4.728  -1.178  0.00  0.00    +0.040 A 
ATOM     34  C   UNL     1      -4.465   5.610  -2.024  0.00  0.00    +0.126 A 
ATOM     35  C   UNL     1      -4.112   5.678  -3.361  0.00  0.00    +0.078 A 
ATOM     36  C   UNL     1      -3.103   4.869  -3.852  0.00  0.00    +0.147 A 
ATOM     37  F   UNL     1      -2.753   4.939  -5.155  0.00  0.00    -0.203 F 
ATOM     38  F   UNL     1      -5.447   6.405  -1.545  0.00  0.00    -0.205 F 
ENDBRANCH  28  31
ENDBRANCH   4  25
TORSDOF 4
