REMARK  Name = ZINC63376042
REMARK  8 active torsions:
REMARK  status: ('A' for Active; 'I' for Inactive)
REMARK    1  A    between atoms: C_1  and  C_2
REMARK    2  A    between atoms: C_2  and  O_3
REMARK    3  A    between atoms: O_3  and  C_4
REMARK    4  A    between atoms: C_4  and  C_6
REMARK    5  A    between atoms: C_9  and  N_12
REMARK    6  A    between atoms: C_15  and  C_22
REMARK    7  A    between atoms: C_29  and  O_34
REMARK    8  A    between atoms: O_34  and  C_35
REMARK                            x       y       z     vdW  Elec       q    Type
REMARK                         _______ _______ _______ _____ _____    ______ ____
ROOT
ATOM      1  N   UNL     1       3.368  -3.896  -5.888  0.00  0.00    -0.229 N 
ATOM      2  C   UNL     1       3.549  -5.226  -6.000  0.00  0.00    +0.270 A 
ATOM      3  O   UNL     1       3.156  -5.976  -5.123  0.00  0.00    -0.267 OA
ATOM      4  C   UNL     1       4.196  -5.744  -7.136  0.00  0.00    +0.101 A 
ATOM      5  C   UNL     1       4.626  -4.884  -8.103  0.00  0.00    +0.263 A 
ATOM      6  N   UNL     1       4.421  -3.537  -7.948  0.00  0.00    -0.274 N 
ATOM      7  H   UNL     1       4.725  -2.921  -8.634  0.00  0.00    +0.173 HD
ATOM      8  C   UNL     1       3.795  -3.064  -6.855  0.00  0.00    +0.337 A 
ATOM      9  O   UNL     1       3.618  -1.867  -6.737  0.00  0.00    -0.246 OA
ATOM     10  O   UNL     1       5.250  -5.356  -9.204  0.00  0.00    -0.267 OA
ENDROOT
BRANCH   4  11
ATOM     11  C   UNL     1       4.410  -7.228  -7.283  0.00  0.00    +0.121 C 
ATOM     12  C   UNL     1       3.057  -7.936  -7.391  0.00  0.00    +0.128 C 
ATOM     13  C   UNL     1       3.355  -9.431  -7.363  0.00  0.00    -0.035 C 
ATOM     14  C   UNL     1       2.782  -9.948  -8.440  0.00  0.00    +0.003 A 
ATOM     15  C   UNL     1       2.647 -11.334  -8.915  0.00  0.00    +0.055 A 
ATOM     16  C   UNL     1       1.996 -11.514 -10.097  0.00  0.00    +0.121 A 
ATOM     17  C   UNL     1       1.460 -10.470 -10.864  0.00  0.00    +0.047 A 
ATOM     18  C   UNL     1       1.522  -9.158 -10.518  0.00  0.00    +0.029 A 
ATOM     19  C   UNL     1       2.199  -8.837  -9.255  0.00  0.00    +0.043 A 
ATOM     20  N   UNL     1       2.384  -7.675  -8.662  0.00  0.00    -0.376 N 
ATOM     21  C   UNL     1       4.237 -10.043  -6.302  0.00  0.00    +0.048 C 
ATOM     22  C   UNL     1       5.494  -9.157  -6.225  0.00  0.00    +0.086 C 
ATOM     23  N   UNL     1       5.112  -7.748  -6.099  0.00  0.00    -0.307 NA
ATOM     24  H   UNL     1       5.911  -7.175  -5.872  0.00  0.00    +0.123 HD
ATOM     25  H   UNL     1       2.129  -6.802  -9.001  0.00  0.00    +0.160 HD
BRANCH  16  26
ATOM     26  O   UNL     1       1.856 -12.784 -10.562  0.00  0.00    -0.495 OA
ATOM     27  C   UNL     1       1.169 -12.948 -11.804  0.00  0.00    +0.277 C 
ENDBRANCH  16  26
ENDBRANCH   4  11
BRANCH   1  31
ATOM     28  C   UNL     1       1.454  -2.347  -2.524  0.00  0.00    +0.059 A 
ATOM     29  C   UNL     1       0.709  -2.708  -3.650  0.00  0.00    +0.017 A 
ATOM     30  C   UNL     1       1.345  -3.219  -4.760  0.00  0.00    +0.027 A 
ATOM     31  C   UNL     1       2.727  -3.376  -4.760  0.00  0.00    +0.054 A 
ATOM     32  C   UNL     1       3.471  -3.019  -3.642  0.00  0.00    +0.027 A 
ATOM     33  C   UNL     1       2.843  -2.501  -2.531  0.00  0.00    +0.017 A 
BRANCH  28  34
ATOM     34  C   UNL     1       0.777  -1.800  -1.334  0.00  0.00    +0.339 C 
ATOM     35  O   UNL     1       1.426  -1.482  -0.358  0.00  0.00    -0.245 OA
BRANCH  34  36
ATOM     36  O   UNL     1      -0.563  -1.652  -1.329  0.00  0.00    -0.461 OA
BRANCH  36  38
ATOM     37  C   UNL     1      -2.668  -1.023  -0.324  0.00  0.00    +0.048 C 
ATOM     38  C   UNL     1      -1.152  -1.115  -0.143  0.00  0.00    +0.229 C 
ENDBRANCH  36  38
ENDBRANCH  34  36
ENDBRANCH  28  34
ENDBRANCH   1  31
TORSDOF 6
