REMARK  Name = ZINC22528120
REMARK  6 active torsions:
REMARK  status: ('A' for Active; 'I' for Inactive)
REMARK    1  A    between atoms: C_1  and  C_2
REMARK    2  A    between atoms: C_2  and  C_3
REMARK    3  A    between atoms: C_2  and  C_4
REMARK    4  A    between atoms: C_2  and  O_5
REMARK    5  A    between atoms: O_5  and  C_6
REMARK    6  A    between atoms: C_17  and  C_19
REMARK                            x       y       z     vdW  Elec       q    Type
REMARK                         _______ _______ _______ _____ _____    ______ ____
ROOT
ATOM      1  C   UNL     1       1.952  -0.085  -1.337  0.00  0.00    +0.404 C 
ATOM      2  O   UNL     1       2.488   0.619  -0.503  0.00  0.00    -0.226 OA
ATOM      3  N   UNL     1       2.641  -0.485  -2.424  0.00  0.00    -0.262 N 
ATOM      4  C   UNL     1       4.043  -0.091  -2.627  0.00  0.00    +0.117 C 
ATOM      5  C   UNL     1       4.940  -1.331  -2.598  0.00  0.00    +0.075 C 
ATOM      6  C   UNL     1       4.337  -2.404  -3.494  0.00  0.00    +0.057 A 
ATOM      7  C   UNL     1       3.026  -2.362  -3.846  0.00  0.00    +0.032 A 
ATOM      8  S   UNL     1       2.850  -3.803  -4.861  0.00  0.00    -0.055 S 
ATOM      9  C   UNL     1       4.445  -4.338  -4.760  0.00  0.00    +0.165 A 
ATOM     10  N   UNL     1       5.015  -3.436  -3.991  0.00  0.00    -0.229 NA
ATOM     11  N   UNL     1       5.018  -5.459  -5.346  0.00  0.00    -0.261 N 
ATOM     12  C   UNL     1       4.269  -6.278  -6.110  0.00  0.00    +0.251 C 
ATOM     13  O   UNL     1       3.090  -6.034  -6.287  0.00  0.00    -0.270 OA
ATOM     14  C   UNL     1       2.017  -1.341  -3.455  0.00  0.00    +0.155 C 
ATOM     15  H   UNL     1       5.958  -5.653  -5.205  0.00  0.00    +0.157 HD
ENDROOT
BRANCH  12  16
ATOM     16  C   UNL     1       4.877  -7.468  -6.732  0.00  0.00    +0.053 A 
ATOM     17  C   UNL     1       6.247  -7.759  -6.525  0.00  0.00    +0.020 A 
ATOM     18  C   UNL     1       6.782  -8.864  -7.110  0.00  0.00    +0.071 A 
ATOM     19  C   UNL     1       5.966  -9.691  -7.905  0.00  0.00    +0.249 A 
ATOM     20  N   UNL     1       4.667  -9.395  -8.089  0.00  0.00    -0.328 N 
ATOM     21  C   UNL     1       4.114  -8.310  -7.515  0.00  0.00    +0.099 A 
ATOM     22  O   UNL     1       6.441 -10.683  -8.432  0.00  0.00    -0.268 OA
ATOM     23  H   UNL     1       4.118  -9.975  -8.640  0.00  0.00    +0.168 HD
ENDBRANCH  12  16
BRANCH   1  24
ATOM     24  O   UNL     1       0.671  -0.465  -1.174  0.00  0.00    -0.445 OA
BRANCH  24  26
ATOM     25  C   UNL     1      -0.019   1.526   0.010  0.00  0.00    +0.055 C 
ATOM     26  C   UNL     1       0.002  -0.004   0.002  0.00  0.00    +0.107 C 
ATOM     27  C   UNL     1       0.742  -0.511   1.242  0.00  0.00    +0.055 C 
ATOM     28  C   UNL     1      -1.433  -0.534   0.013  0.00  0.00    +0.055 C 
ENDBRANCH  24  26
ENDBRANCH   1  24
TORSDOF 3
