REMARK  Name = ZINC13139372
REMARK  9 active torsions:
REMARK  status: ('A' for Active; 'I' for Inactive)
REMARK    1  A    between atoms: C_1  and  C_2
REMARK    2  A    between atoms: C_2  and  O_3
REMARK    3  A    between atoms: O_3  and  C_4
REMARK    4  A    between atoms: C_4  and  C_5
REMARK    5  A    between atoms: C_5  and  N_6
REMARK    6  A    between atoms: C_10  and  S_25
REMARK    7  A    between atoms: N_15  and  C_16
REMARK    8  A    between atoms: C_16  and  C_18
REMARK    9  A    between atoms: S_25  and  N_28
REMARK                            x       y       z     vdW  Elec       q    Type
REMARK                         _______ _______ _______ _____ _____    ______ ____
ROOT
ATOM      1  N   UNL     1       0.759  -1.872   3.695  0.00  0.00    -0.319 N 
ATOM      2  C   UNL     1       0.959  -0.613   4.233  0.00  0.00    +0.058 A 
ATOM      3  C   UNL     1       1.850   0.378   3.785  0.00  0.00    +0.029 A 
ATOM      4  C   UNL     1       1.939   1.589   4.428  0.00  0.00    +0.030 A 
ATOM      5  C   UNL     1       1.157   1.874   5.535  0.00  0.00    +0.106 A 
ATOM      6  C   UNL     1       0.271   0.917   5.999  0.00  0.00    +0.045 A 
ATOM      7  C   UNL     1       0.182  -0.294   5.356  0.00  0.00    +0.041 A 
ATOM      8  S   UNL     1      -0.792  -1.758   5.611  0.00  0.00    -0.052 S 
ATOM      9  C   UNL     1      -0.154  -2.719   4.249  0.00  0.00    +0.167 A 
ATOM     10  N   UNL     1      -0.483  -3.949   3.872  0.00  0.00    -0.152 NA
ENDROOT
BRANCH   5  11
ATOM     11  S   UNL     1       1.289   3.434   6.343  0.00  0.00    +0.056 S 
ATOM     12  O   UNL     1       0.842   3.240   7.678  0.00  0.00    -0.153 OA
ATOM     13  O   UNL     1       2.582   3.941   6.040  0.00  0.00    -0.153 OA
BRANCH  11  14
ATOM     14  N   UNL     1       0.200   4.453   5.622  0.00  0.00    -0.204 NA
ATOM     15  H   UNL     1      -0.207   5.169   6.135  0.00  0.00    +0.144 HD
ATOM     16  H   UNL     1      -0.030   4.333   4.688  0.00  0.00    +0.144 HD
ENDBRANCH  11  14
ENDBRANCH   5  11
BRANCH  10  17
ATOM     17  C   UNL     1      -1.414  -4.631   4.551  0.00  0.00    +0.271 C 
ATOM     18  O   UNL     1      -1.959  -4.122   5.516  0.00  0.00    -0.268 OA
BRANCH  17  19
ATOM     19  C   UNL     1      -1.780  -5.997   4.132  0.00  0.00    +0.066 A 
ATOM     20  C   UNL     1      -1.153  -6.633   2.999  0.00  0.00    +0.042 A 
ATOM     21  C   UNL     1      -1.576  -7.883   2.721  0.00  0.00    +0.080 A 
ATOM     22  S   UNL     1      -2.802  -8.182   3.976  0.00  0.00    -0.064 S 
ATOM     23  C   UNL     1      -2.732  -6.726   4.808  0.00  0.00    +0.092 A 
ATOM     24 CL   UNL     1      -3.653  -6.248   6.199  0.00  0.00    -0.075 Cl
ATOM     25 CL   UNL     1      -1.054  -8.942   1.448  0.00  0.00    -0.076 Cl
ENDBRANCH  17  19
ENDBRANCH  10  17
BRANCH   1  26
ATOM     26  C   UNL     1       1.526  -2.293   2.520  0.00  0.00    +0.152 C 
BRANCH  26  27
ATOM     27  C   UNL     1       0.770  -1.902   1.249  0.00  0.00    +0.181 C 
BRANCH  27  28
ATOM     28  O   UNL     1       0.693  -0.477   1.160  0.00  0.00    -0.378 OA
BRANCH  28  30
ATOM     29  C   UNL     1      -0.019   1.526   0.010  0.00  0.00    +0.034 C 
ATOM     30  C   UNL     1       0.002  -0.004   0.002  0.00  0.00    +0.156 C 
ENDBRANCH  28  30
ENDBRANCH  27  28
ENDBRANCH  26  27
ENDBRANCH   1  26
TORSDOF 8
