REMARK  Name = ZINC04235385
REMARK  5 active torsions:
REMARK  status: ('A' for Active; 'I' for Inactive)
REMARK    1  A    between atoms: C_4  and  C_7
REMARK    2  A    between atoms: N_9  and  C_10
REMARK    3  A    between atoms: C_20  and  O_22
REMARK    4  A    between atoms: O_22  and  C_23
REMARK    5  A    between atoms: N_25  and  C_26
REMARK                            x       y       z     vdW  Elec       q    Type
REMARK                         _______ _______ _______ _____ _____    ______ ____
ROOT
ATOM      1  C   UNL     1       6.149  -0.734  -0.029  0.00  0.00    +0.130 C 
ATOM      2  C   UNL     1       6.597  -0.993  -1.478  0.00  0.00    +0.185 C 
ATOM      3  O   UNL     1       7.878  -0.368  -1.649  0.00  0.00    -0.368 OA
ATOM      4  C   UNL     1       7.965   0.715  -0.705  0.00  0.00    +0.192 C 
ATOM      5  C   UNL     1       7.260   0.156   0.571  0.00  0.00    +0.173 C 
ATOM      6  O   UNL     1       8.247  -0.689   1.191  0.00  0.00    -0.368 OA
ATOM      7  C   UNL     1       9.531  -0.050   1.005  0.00  0.00    +0.207 C 
ATOM      8  C   UNL     1       9.431   0.852  -0.239  0.00  0.00    +0.235 C 
ENDROOT
BRANCH   1  11
ATOM      9  C   UNL     1       3.712  -0.728   0.004  0.00  0.00    +0.244 C 
ATOM     10  O   UNL     1       3.738  -1.943   0.001  0.00  0.00    -0.270 OA
ATOM     11  N   UNL     1       4.864  -0.029  -0.009  0.00  0.00    -0.304 N 
ATOM     12  H   UNL     1       4.843   0.941  -0.007  0.00  0.00    +0.149 HD
BRANCH   9  16
ATOM     13  C   UNL     1      -0.011   1.316   0.061  0.00  0.00    +0.000 A 
ATOM     14  C   UNL     1       1.170   2.037   0.047  0.00  0.00    +0.001 A 
ATOM     15  C   UNL     1       2.383   1.379   0.028  0.00  0.00    +0.013 A 
ATOM     16  C   UNL     1       2.416  -0.016   0.024  0.00  0.00    +0.037 A 
ATOM     17  C   UNL     1       1.221  -0.737   0.038  0.00  0.00    +0.013 A 
ATOM     18  C   UNL     1       0.015  -0.067   0.056  0.00  0.00    +0.001 A 
ENDBRANCH   9  16
ENDBRANCH   1  11
BRANCH   8  19
ATOM     19  O   UNL     1      10.337   0.388  -1.275  0.00  0.00    -0.442 OA
BRANCH  19  20
ATOM     20  C   UNL     1      11.551   0.968  -1.331  0.00  0.00    +0.405 C 
ATOM     21  O   UNL     1      11.845   1.839  -0.536  0.00  0.00    -0.226 OA
ATOM     22  N   UNL     1      12.439   0.584  -2.268  0.00  0.00    -0.251 N 
ATOM     23  H   UNL     1      12.230  -0.155  -2.860  0.00  0.00    +0.158 HD
BRANCH  22  24
ATOM     24  C   UNL     1      13.661   1.249  -2.387  0.00  0.00    +0.044 A 
ATOM     25  C   UNL     1      14.298   1.739  -1.267  0.00  0.00    +0.024 A 
ATOM     26  C   UNL     1      15.519   2.398  -1.374  0.00  0.00    +0.002 A 
ATOM     27  C   UNL     1      16.112   2.588  -2.585  0.00  0.00    +0.008 A 
ATOM     28  C   UNL     1      15.492   2.110  -3.752  0.00  0.00    -0.016 A 
ATOM     29  C   UNL     1      14.252   1.432  -3.655  0.00  0.00    +0.003 A 
ATOM     30  C   UNL     1      13.634   0.955  -4.822  0.00  0.00    +0.010 A 
ATOM     31  C   UNL     1      14.233   1.149  -6.029  0.00  0.00    +0.001 A 
ATOM     32  C   UNL     1      15.452   1.816  -6.126  0.00  0.00    +0.001 A 
ATOM     33  C   UNL     1      16.080   2.292  -5.016  0.00  0.00    +0.008 A 
ENDBRANCH  22  24
ENDBRANCH  19  20
ENDBRANCH   8  19
TORSDOF 5
