REMARK  Name = ZINC21000919
REMARK  6 active torsions:
REMARK  status: ('A' for Active; 'I' for Inactive)
REMARK    1  A    between atoms: C_4  and  C_7
REMARK    2  A    between atoms: C_9  and  C_31
REMARK    3  A    between atoms: C_10  and  N_12
REMARK    4  A    between atoms: C_13  and  C_15
REMARK    5  A    between atoms: N_21  and  S_22
REMARK    6  A    between atoms: S_22  and  C_25
REMARK                            x       y       z     vdW  Elec       q    Type
REMARK                         _______ _______ _______ _____ _____    ______ ____
ROOT
ATOM      1  N   UNL     1       0.667   5.063  -1.546  0.00  0.00    -0.278 N 
ATOM      2  C   UNL     1       0.307   3.799  -1.247  0.00  0.00    +0.236 C 
ATOM      3  O   UNL     1       0.972   3.147  -0.470  0.00  0.00    -0.274 OA
ATOM      4  H   UNL     1       0.064   5.655  -2.250  0.00  0.00    +0.155 HD
ENDROOT
BRANCH   2   5
ATOM      5  C   UNL     1      -0.922   3.197  -1.876  0.00  0.00    +0.166 C 
ATOM      6  C   UNL     1      -0.534   1.940  -2.661  0.00  0.00    +0.030 C 
ATOM      7  C   UNL     1      -1.801   1.256  -3.181  0.00  0.00    +0.003 C 
ATOM      8  C   UNL     1      -2.678   0.836  -1.999  0.00  0.00    +0.017 C 
ATOM      9  C   UNL     1      -3.087   2.076  -1.206  0.00  0.00    +0.110 C 
ATOM     10  N   UNL     1      -1.880   2.822  -0.827  0.00  0.00    -0.164 NA
BRANCH  10  11
ATOM     11  S   UNL     1      -1.600   3.227   0.754  0.00  0.00    +0.068 S 
ATOM     12  O   UNL     1      -0.740   4.358   0.738  0.00  0.00    -0.152 OA
ATOM     13  O   UNL     1      -2.866   3.242   1.400  0.00  0.00    -0.152 OA
BRANCH  11  14
ATOM     14  C   UNL     1      -0.682   1.907   1.476  0.00  0.00    +0.144 A 
ATOM     15  C   UNL     1       0.653   1.813   1.689  0.00  0.00    +0.038 A 
ATOM     16  C   UNL     1       1.158   0.671   2.281  0.00  0.00    +0.030 A 
ATOM     17  C   UNL     1       0.304  -0.326   2.621  0.00  0.00    +0.080 A 
ATOM     18  S   UNL     1      -1.269   0.344   2.108  0.00  0.00    -0.057 S 
ATOM     19 CL   UNL     1       0.650  -1.857   3.363  0.00  0.00    -0.076 Cl
ENDBRANCH  11  14
ENDBRANCH  10  11
ENDBRANCH   2   5
BRANCH   1  23
ATOM     20  C   UNL     1       4.022   6.261   0.368  0.00  0.00    +0.022 A 
ATOM     21  C   UNL     1       3.490   7.214  -0.445  0.00  0.00    +0.031 A 
ATOM     22  C   UNL     1       2.332   6.890  -1.152  0.00  0.00    +0.066 A 
ATOM     23  C   UNL     1       1.797   5.617  -0.968  0.00  0.00    +0.084 A 
ATOM     24  S   UNL     1       2.899   4.893   0.158  0.00  0.00    -0.073 S 
BRANCH  20  28
ATOM     25  C   UNL     1       7.496   6.491   2.800  0.00  0.00    +0.000 A 
ATOM     26  C   UNL     1       6.750   5.326   2.773  0.00  0.00    +0.001 A 
ATOM     27  C   UNL     1       5.621   5.245   1.986  0.00  0.00    +0.009 A 
ATOM     28  C   UNL     1       5.231   6.341   1.214  0.00  0.00    -0.011 A 
ATOM     29  C   UNL     1       5.992   7.511   1.241  0.00  0.00    +0.009 A 
ATOM     30  C   UNL     1       7.116   7.581   2.038  0.00  0.00    +0.001 A 
ENDBRANCH  20  28
BRANCH  22  31
ATOM     31  C   UNL     1       1.697   7.857  -2.054  0.00  0.00    +0.244 C 
ATOM     32  O   UNL     1       0.685   7.552  -2.658  0.00  0.00    -0.270 OA
ATOM     33  N   UNL     1       2.234   9.082  -2.215  0.00  0.00    -0.325 N 
ATOM     34  H   UNL     1       1.758   9.807  -2.891  0.00  0.00    +0.145 HD
ATOM     35  H   UNL     1       3.149   9.357  -1.669  0.00  0.00    +0.145 HD
ENDBRANCH  22  31
ENDBRANCH   1  23
TORSDOF 6
