REMARK  Name = ZINC14273351
REMARK  7 active torsions:
REMARK  status: ('A' for Active; 'I' for Inactive)
REMARK    1  A    between atoms: C_1  and  C_2
REMARK    2  A    between atoms: C_4  and  C_27
REMARK    3  A    between atoms: C_6  and  O_9
REMARK    4  A    between atoms: O_9  and  C_10
REMARK    5  A    between atoms: C_10  and  C_11
REMARK    6  A    between atoms: N_13  and  C_14
REMARK    7  A    between atoms: C_15  and  C_23
REMARK                            x       y       z     vdW  Elec       q    Type
REMARK                         _______ _______ _______ _____ _____    ______ ____
ROOT
ATOM      1  C   UNL     1       1.030   3.513   0.011  0.00  0.00    +0.255 C 
ATOM      2  O   UNL     1      -0.097   3.961   0.024  0.00  0.00    -0.272 OA
ATOM      3  N   UNL     1       2.088   4.348   0.005  0.00  0.00    -0.277 N 
ATOM      4  H   UNL     1       2.989   3.990  -0.005  0.00  0.00    +0.155 HD
ENDROOT
BRANCH   3   5
ATOM      5  C   UNL     1       1.887   5.720   0.015  0.00  0.00    +0.084 A 
ATOM      6  C   UNL     1       2.839   6.731   0.017  0.00  0.00    +0.068 A 
ATOM      7  C   UNL     1       2.361   8.103   0.024  0.00  0.00    -0.023 A 
ATOM      8  C   UNL     1       1.018   8.244   0.038  0.00  0.00    -0.004 A 
ATOM      9  S   UNL     1       0.389   6.589   0.034  0.00  0.00    -0.077 S 
ATOM     10  C   UNL     1       0.245   9.527   0.054  0.00  0.00    +0.043 C 
ATOM     11  C   UNL     1       1.204  10.665   0.430  0.00  0.00    +0.005 C 
ATOM     12  C   UNL     1       2.473  10.542  -0.420  0.00  0.00    +0.005 C 
ATOM     13  C   UNL     1       3.278   9.319   0.022  0.00  0.00    +0.037 C 
BRANCH   6  14
ATOM     14  C   UNL     1       4.273   6.425   0.008  0.00  0.00    +0.244 C 
ATOM     15  O   UNL     1       4.863   6.305  -1.050  0.00  0.00    -0.270 OA
ATOM     16  N   UNL     1       4.937   6.276   1.171  0.00  0.00    -0.325 N 
ATOM     17  H   UNL     1       4.467   6.371   2.014  0.00  0.00    +0.145 HD
ATOM     18  H   UNL     1       5.886   6.074   1.165  0.00  0.00    +0.145 HD
ENDBRANCH   6  14
ENDBRANCH   3   5
BRANCH   1  19
ATOM     19  C   UNL     1       1.248   2.022   0.001  0.00  0.00    +0.325 C 
BRANCH  19  20
ATOM     20  O   UNL     1      -0.016   1.355   0.009  0.00  0.00    -0.480 OA
BRANCH  20  26
ATOM     21  C   UNL     1       0.018  -2.823  -2.516  0.00  0.00    +0.047 C 
ATOM     22  C   UNL     1       0.019  -2.075  -1.208  0.00  0.00    -0.010 A 
ATOM     23  C   UNL     1       0.040  -2.772  -0.013  0.00  0.00    +0.050 A 
ATOM     24  C   UNL     1       0.042  -2.088   1.189  0.00  0.00    -0.010 A 
ATOM     25  C   UNL     1       0.023  -0.705   1.199  0.00  0.00    +0.088 A 
ATOM     26  C   UNL     1       0.002  -0.004   0.002  0.00  0.00    +0.158 A 
ATOM     27  C   UNL     1      -0.006  -0.693  -1.203  0.00  0.00    +0.088 A 
ATOM     28 CL   UNL     1      -0.039   0.181  -2.703  0.00  0.00    -0.079 Cl
ATOM     29 CL   UNL     1       0.026   0.152   2.709  0.00  0.00    -0.079 Cl
ATOM     30  C   UNL     1       0.064  -2.850   2.489  0.00  0.00    +0.047 C 
ATOM     31 CL   UNL     1       0.063  -4.508  -0.023  0.00  0.00    -0.083 Cl
ENDBRANCH  20  26
ENDBRANCH  19  20
ENDBRANCH   1  19
TORSDOF 5
