REMARK  Name = ZINC36596764
REMARK  12 active torsions:
REMARK  status: ('A' for Active; 'I' for Inactive)
REMARK    1  A    between atoms: C_1  and  C_2
REMARK    2  A    between atoms: C_5  and  C_7
REMARK    3  A    between atoms: C_7  and  N_8
REMARK    4  A    between atoms: N_8  and  C_9
REMARK    5  A    between atoms: C_9  and  C_11
REMARK    6  A    between atoms: C_9  and  C_20
REMARK    7  A    between atoms: N_22  and  C_23
REMARK    8  A    between atoms: C_23  and  C_24
REMARK    9  A    between atoms: C_23  and  C_25
REMARK   10  A    between atoms: C_23  and  C_26
REMARK   11  A    between atoms: C_27  and  C_29
REMARK   12  A    between atoms: C_31  and  N_36
REMARK                            x       y       z     vdW  Elec       q    Type
REMARK                         _______ _______ _______ _____ _____    ______ ____
ROOT
ATOM      1  N   UNL     1       2.133  -3.481  -3.384  0.00  0.00    -0.275 N 
ATOM      2  C   UNL     1       2.372  -4.689  -3.934  0.00  0.00    +0.252 C 
ATOM      3  O   UNL     1       1.443  -5.392  -4.282  0.00  0.00    -0.270 OA
ENDROOT
BRANCH   2   4
ATOM      4  C   UNL     1       3.759  -5.157  -4.112  0.00  0.00    +0.086 A 
ATOM      5  C   UNL     1       4.756  -4.756  -3.219  0.00  0.00    +0.049 A 
ATOM      6  C   UNL     1       6.050  -5.196  -3.391  0.00  0.00    +0.127 A 
ATOM      7  C   UNL     1       6.369  -6.036  -4.446  0.00  0.00    +0.036 A 
ATOM      8  C   UNL     1       5.393  -6.439  -5.336  0.00  0.00    +0.054 A 
ATOM      9  C   UNL     1       4.084  -6.010  -5.175  0.00  0.00    +0.191 A 
ATOM     10  O   UNL     1       3.124  -6.410  -6.045  0.00  0.00    -0.287 OA
BRANCH   6  11
ATOM     11  N   UNL     1       7.106  -4.771  -2.444  0.00  0.00    +0.056 N 
ATOM     12  O   UNL     1       6.831  -4.038  -1.522  0.00  0.00    -0.126 OA
ATOM     13  O   UNL     1       8.242  -5.155  -2.592  0.00  0.00    -0.126 OA
ENDBRANCH   6  11
ENDBRANCH   2   4
BRANCH   1  14
ATOM     14  C   UNL     1       0.768  -3.105  -3.007  0.00  0.00    +0.183 C 
BRANCH  14  19
ATOM     15  C   UNL     1      -0.494   0.564  -6.230  0.00  0.00    +0.086 C 
ATOM     16  C   UNL     1      -0.436  -0.781  -5.553  0.00  0.00    +0.102 A 
ATOM     17  C   UNL     1      -1.125  -1.877  -5.921  0.00  0.00    +0.045 A 
ATOM     18  C   UNL     1      -0.771  -2.905  -5.017  0.00  0.00    +0.046 A 
ATOM     19  C   UNL     1       0.113  -2.377  -4.152  0.00  0.00    +0.122 A 
ATOM     20  O   UNL     1       0.317  -1.092  -4.485  0.00  0.00    -0.463 OA
ENDBRANCH  14  19
ENDBRANCH   1  14
BRANCH   1  21
ATOM     21  C   UNL     1       3.238  -2.545  -3.165  0.00  0.00    +0.193 C 
BRANCH  21  22
ATOM     22  C   UNL     1       2.923  -1.231  -3.831  0.00  0.00    -0.014 A 
ATOM     23  C   UNL     1       2.527  -0.148  -3.068  0.00  0.00    +0.010 A 
ATOM     24  C   UNL     1       2.238   1.060  -3.675  0.00  0.00    +0.050 A 
ATOM     25  C   UNL     1       2.343   1.188  -5.050  0.00  0.00    +0.166 A 
ATOM     26  C   UNL     1       2.741   0.097  -5.819  0.00  0.00    +0.167 A 
ATOM     27  C   UNL     1       3.035  -1.109  -5.203  0.00  0.00    +0.055 A 
ATOM     28  O   UNL     1       2.767   0.474  -7.131  0.00  0.00    -0.453 OA
ATOM     29  C   UNL     1       1.989   1.684  -7.199  0.00  0.00    +0.466 C 
ATOM     30  O   UNL     1       2.119   2.248  -5.880  0.00  0.00    -0.453 OA
ENDBRANCH  21  22
BRANCH  21  31
ATOM     31  C   UNL     1       3.425  -2.326  -1.685  0.00  0.00    +0.239 C 
ATOM     32  O   UNL     1       2.705  -2.896  -0.893  0.00  0.00    -0.273 OA
ATOM     33  N   UNL     1       4.391  -1.497  -1.243  0.00  0.00    -0.309 N 
ATOM     34  H   UNL     1       4.966  -1.041  -1.877  0.00  0.00    +0.149 HD
BRANCH  33  35
ATOM     35  C   UNL     1       4.572  -1.284   0.195  0.00  0.00    +0.026 C 
ATOM     36  C   UNL     1       4.892  -2.619   0.872  0.00  0.00    +0.031 C 
ATOM     37  C   UNL     1       5.726  -0.307   0.424  0.00  0.00    +0.031 C 
ATOM     38  C   UNL     1       3.287  -0.706   0.791  0.00  0.00    +0.031 C 
ENDBRANCH  33  35
ENDBRANCH  21  31
ENDBRANCH   1  21
TORSDOF 8
