REMARK  Name = ZINC27550678
REMARK  10 active torsions:
REMARK  status: ('A' for Active; 'I' for Inactive)
REMARK    1  A    between atoms: C_1  and  C_2
REMARK    2  A    between atoms: C_2  and  C_3
REMARK    3  A    between atoms: C_5  and  C_11
REMARK    4  A    between atoms: C_6  and  S_8
REMARK    5  A    between atoms: S_8  and  C_9
REMARK    6  A    between atoms: C_9  and  C_10
REMARK    7  A    between atoms: C_13  and  C_33
REMARK    8  A    between atoms: C_14  and  N_32
REMARK    9  A    between atoms: N_15  and  C_23
REMARK   10  A    between atoms: C_26  and  N_29
REMARK                            x       y       z     vdW  Elec       q    Type
REMARK                         _______ _______ _______ _____ _____    ______ ____
ROOT
ATOM      1  C   UNL     1      -2.827   6.545   0.492  0.00  0.00    +0.099 C 
ATOM      2  C   UNL     1      -2.519   5.796  -0.771  0.00  0.00    +0.077 C 
ATOM      3  C   UNL     1      -3.410   4.919  -1.302  0.00  0.00    +0.107 C 
ATOM      4  N   UNL     1      -4.622   4.708  -0.685  0.00  0.00    -0.260 N 
ATOM      5  C   UNL     1      -5.120   5.624   0.205  0.00  0.00    +0.024 C 
ATOM      6  C   UNL     1      -4.305   6.529   0.788  0.00  0.00    +0.025 C 
ATOM      7  C   UNL     1      -4.811   7.484   1.688  0.00  0.00    +0.162 C 
ATOM      8  O   UNL     1      -4.050   8.280   2.201  0.00  0.00    -0.292 OA
ATOM      9  C   UNL     1      -6.275   7.539   2.027  0.00  0.00    +0.080 C 
ATOM     10  C   UNL     1      -7.083   7.006   0.840  0.00  0.00    +0.014 C 
ATOM     11  C   UNL     1      -6.596   5.592   0.516  0.00  0.00    +0.052 C 
ENDROOT
BRANCH   4  12
ATOM     12  C   UNL     1      -5.352   3.547  -0.968  0.00  0.00    +0.040 A 
ATOM     13  C   UNL     1      -6.234   3.525  -2.040  0.00  0.00    +0.026 A 
ATOM     14  C   UNL     1      -6.950   2.377  -2.319  0.00  0.00    +0.034 A 
ATOM     15  C   UNL     1      -6.796   1.254  -1.526  0.00  0.00    +0.126 A 
ATOM     16  C   UNL     1      -5.923   1.276  -0.454  0.00  0.00    +0.034 A 
ATOM     17  C   UNL     1      -5.201   2.419  -0.173  0.00  0.00    +0.026 A 
BRANCH  15  18
ATOM     18  N   UNL     1      -7.570   0.028  -1.824  0.00  0.00    +0.056 N 
ATOM     19  O   UNL     1      -7.436  -0.961  -1.126  0.00  0.00    -0.126 OA
ATOM     20  O   UNL     1      -8.340   0.008  -2.768  0.00  0.00    -0.126 OA
ENDBRANCH  15  18
ENDBRANCH   4  12
BRANCH   1  23
ATOM     21  C   UNL     1      -1.630   4.040   3.009  0.00  0.00    -0.009 A 
ATOM     22  C   UNL     1      -2.313   4.583   1.973  0.00  0.00    +0.017 A 
ATOM     23  C   UNL     1      -2.086   5.906   1.638  0.00  0.00    -0.014 A 
ATOM     24  C   UNL     1      -1.181   6.620   2.364  0.00  0.00    +0.049 A 
ATOM     25  S   UNL     1      -0.630   5.413   3.558  0.00  0.00    -0.087 S 
BRANCH  21  27
ATOM     26  C   UNL     1      -0.678   1.756   2.841  0.00  0.00    +0.009 C 
ATOM     27  C   UNL     1      -1.701   2.639   3.559  0.00  0.00    +0.039 C 
ENDBRANCH  21  27
BRANCH  24  28
ATOM     28  S   UNL     1      -0.686   8.301   2.177  0.00  0.00    -0.118 S 
BRANCH  28  29
ATOM     29  C   UNL     1       0.543   8.546   3.489  0.00  0.00    +0.071 C 
ATOM     30  C   UNL     1       1.062   9.984   3.439  0.00  0.00    +0.015 C 
ENDBRANCH  28  29
ENDBRANCH  24  28
ENDBRANCH   1  23
BRANCH   3  31
ATOM     31  N   UNL     1      -3.100   4.240  -2.456  0.00  0.00    -0.345 N 
ATOM     32  H   UNL     1      -3.821   3.530  -2.886  0.00  0.00    +0.144 HD
ATOM     33  H   UNL     1      -2.131   4.408  -2.949  0.00  0.00    +0.144 HD
ENDBRANCH   3  31
BRANCH   2  34
ATOM     34  C   UNL     1      -1.265   6.010  -1.428  0.00  0.00    +0.099 C 
ATOM     35  N   UNL     1      -0.270   6.180  -1.950  0.00  0.00    -0.191 NA
ENDBRANCH   2  34
TORSDOF 8
