REMARK  Name = ZINC50059520
REMARK  5 active torsions:
REMARK  status: ('A' for Active; 'I' for Inactive)
REMARK    1  A    between atoms: C_3  and  C_6
REMARK    2  A    between atoms: C_6  and  N_7
REMARK    3  A    between atoms: C_11  and  C_14
REMARK    4  A    between atoms: C_14  and  N_15
REMARK    5  A    between atoms: C_22  and  C_24
REMARK                            x       y       z     vdW  Elec       q    Type
REMARK                         _______ _______ _______ _____ _____    ______ ____
ROOT
ATOM      1  C   UNL     1       7.429   3.486   2.773  0.00  0.00    +0.107 C 
ENDROOT
BRANCH   1   2
ATOM      2  N   UNL     1       7.825   3.822   4.143  0.00  0.00    -0.299 N 
ATOM      3  C   UNL     1       9.023   4.394   4.377  0.00  0.00    +0.305 C 
ATOM      4  O   UNL     1       9.775   4.630   3.451  0.00  0.00    -0.252 OA
ATOM      5  N   UNL     1       9.387   4.703   5.637  0.00  0.00    -0.247 N 
ATOM      6  C   UNL     1      10.623   5.293   5.879  0.00  0.00    +0.189 A 
ATOM      7  N   UNL     1      11.566   5.630   5.021  0.00  0.00    -0.125 NA
ATOM      8  N   UNL     1      12.648   6.165   5.394  0.00  0.00    -0.139 NA
ATOM      9  C   UNL     1      12.842   6.392   6.678  0.00  0.00    +0.169 A 
ATOM     10  S   UNL     1      11.305   5.770   7.345  0.00  0.00    -0.030 S 
ATOM     11  H   UNL     1       7.225   3.634   4.881  0.00  0.00    +0.150 HD
ATOM     12  H   UNL     1       8.787   4.514   6.376  0.00  0.00    +0.158 HD
BRANCH   9  13
ATOM     13  C   UNL     1      14.023   7.007   7.383  0.00  0.00    +0.398 C 
ATOM     14  F   UNL     1      14.646   7.927   6.533  0.00  0.00    -0.202 F 
ATOM     15  F   UNL     1      13.587   7.661   8.540  0.00  0.00    -0.202 F 
ENDBRANCH   9  13
ENDBRANCH   1   2
BRANCH   1  20
ATOM     16  N   UNL     1       4.235   2.004   1.357  0.00  0.00    +0.383 N 
ATOM     17  C   UNL     1       4.291   0.689   2.007  0.00  0.00    -0.078 C 
ATOM     18  C   UNL     1       4.707   0.857   3.470  0.00  0.00    -0.018 C 
ATOM     19  C   UNL     1       6.087   1.518   3.531  0.00  0.00    +0.001 C 
ATOM     20  C   UNL     1       6.036   2.854   2.785  0.00  0.00    -0.011 C 
ATOM     21  C   UNL     1       5.571   2.612   1.347  0.00  0.00    -0.073 C 
ATOM     22  H   UNL     1       3.599   2.601   1.864  0.00  0.00    -0.081 HD
BRANCH  16  23
ATOM     23  C   UNL     1       3.761   1.845  -0.024  0.00  0.00    -0.036 C 
BRANCH  23  26
ATOM     24  C   UNL     1      -0.016   1.351   0.009  0.00  0.00    +0.008 A 
ATOM     25  C   UNL     1       1.183   2.038   0.002  0.00  0.00    +0.009 A 
ATOM     26  C   UNL     1       2.343   1.336  -0.013  0.00  0.00    -0.027 A 
ATOM     27  S   UNL     1       1.754  -0.349  -0.017  0.00  0.00    -0.103 S 
ATOM     28  C   UNL     1       0.002  -0.004   0.002  0.00  0.00    +0.045 A 
ENDBRANCH  23  26
ENDBRANCH  16  23
ENDBRANCH   1  20
TORSDOF 5
