REMARK  Name = ZINC41183667
REMARK  3 active torsions:
REMARK  status: ('A' for Active; 'I' for Inactive)
REMARK    1  A    between atoms: C_2  and  C_12
REMARK    2  A    between atoms: C_12  and  C_14
REMARK    3  A    between atoms: C_12  and  N_22
REMARK                            x       y       z     vdW  Elec       q    Type
REMARK                         _______ _______ _______ _____ _____    ______ ____
ROOT
ATOM      1  C   UNL     1       1.145   3.599   0.010  0.00  0.00    +0.138 C 
ENDROOT
BRANCH   1   3
ATOM      2  C   UNL     1      -0.017   1.383   0.010  0.00  0.00    +0.055 A 
ATOM      3  C   UNL     1       1.170   2.092   0.002  0.00  0.00    -0.019 A 
ATOM      4  C   UNL     1       2.378   1.422  -0.013  0.00  0.00    +0.029 A 
ATOM      5  C   UNL     1       2.405   0.039  -0.023  0.00  0.00    +0.086 A 
ATOM      6  C   UNL     1       1.217  -0.679  -0.016  0.00  0.00    +0.180 A 
ATOM      7  C   UNL     1       0.002  -0.004   0.002  0.00  0.00    +0.164 A 
ATOM      8  O   UNL     1      -1.175  -0.688   0.016  0.00  0.00    -0.485 OA
ATOM      9  C   UNL     1      -1.122  -2.066  -0.368  0.00  0.00    +0.270 C 
ATOM     10  C   UNL     1       0.060  -2.723   0.356  0.00  0.00    +0.270 C 
ATOM     11  O   UNL     1       1.258  -2.039  -0.030  0.00  0.00    -0.483 OA
ATOM     12 CL   UNL     1       3.924  -0.800  -0.043  0.00  0.00    -0.080 Cl
ENDBRANCH   1   3
BRANCH   1  13
ATOM     13  C   UNL     1       1.397   4.098   1.410  0.00  0.00    +0.100 A 
ATOM     14  N   UNL     1       2.524   4.139   2.066  0.00  0.00    -0.247 NA
ATOM     15  C   UNL     1       2.607   4.612   3.315  0.00  0.00    +0.052 A 
ATOM     16  C   UNL     1       1.432   5.039   3.838  0.00  0.00    +0.013 A 
ATOM     17  S   UNL     1       0.294   4.745   2.505  0.00  0.00    -0.075 S 
ATOM     18  C   UNL     1       1.589   5.549   5.237  0.00  0.00    +0.044 C 
ATOM     19  C   UNL     1       2.957   5.002   5.702  0.00  0.00    +0.011 C 
ATOM     20  C   UNL     1       3.699   4.820   4.362  0.00  0.00    +0.056 C 
ENDBRANCH   1  13
BRANCH   1  21
ATOM     21  N   UNL     1       2.190   4.110  -0.887  0.00  0.00    -0.318 NA
ATOM     22  H   UNL     1       2.152   5.117  -0.949  0.00  0.00    +0.119 HD
ATOM     23  H   UNL     1       3.103   3.800  -0.593  0.00  0.00    +0.119 HD
ENDBRANCH   1  21
TORSDOF 3
