REMARK  Name = ZINC38709046
REMARK  3 active torsions:
REMARK  status: ('A' for Active; 'I' for Inactive)
REMARK    1  A    between atoms: C_4  and  N_8
REMARK    2  A    between atoms: N_11  and  C_12
REMARK    3  A    between atoms: C_21  and  C_23
REMARK                            x       y       z     vdW  Elec       q    Type
REMARK                         _______ _______ _______ _____ _____    ______ ____
ROOT
ATOM      1  C   UNL     1       5.024  -3.939   0.696  0.00  0.00    +0.037 A 
ATOM      2  C   UNL     1       3.857  -4.625   1.008  0.00  0.00    +0.024 A 
ATOM      3  C   UNL     1       3.913  -5.973   1.304  0.00  0.00    +0.007 A 
ATOM      4  C   UNL     1       5.125  -6.639   1.291  0.00  0.00    -0.024 A 
ATOM      5  C   UNL     1       6.296  -5.966   0.980  0.00  0.00    +0.041 A 
ATOM      6  C   UNL     1       6.237  -4.606   0.675  0.00  0.00    +0.047 A 
ATOM      7  N   UNL     1       7.405  -6.817   1.022  0.00  0.00    -0.271 N 
ATOM      8  C   UNL     1       6.985  -8.173   1.385  0.00  0.00    +0.118 C 
ATOM      9  C   UNL     1       5.462  -8.087   1.571  0.00  0.00    +0.056 C 
ATOM     10  C   UNL     1       8.675  -6.444   0.765  0.00  0.00    +0.223 C 
ATOM     11  O   UNL     1       8.922  -5.294   0.472  0.00  0.00    -0.275 OA
ENDROOT
BRANCH   1  15
ATOM     12  N   UNL     1       3.890  -0.511   0.555  0.00  0.00    -0.264 N 
ATOM     13  C   UNL     1       3.997  -1.804   0.919  0.00  0.00    +0.308 C 
ATOM     14  O   UNL     1       3.214  -2.278   1.719  0.00  0.00    -0.252 OA
ATOM     15  N   UNL     1       4.973  -2.573   0.395  0.00  0.00    -0.269 N 
ATOM     16  H   UNL     1       4.484  -0.146  -0.120  0.00  0.00    +0.157 HD
ATOM     17  H   UNL     1       5.639  -2.180  -0.190  0.00  0.00    +0.156 HD
BRANCH  12  21
ATOM     18  C   UNL     1       1.006   1.924   2.331  0.00  0.00    +0.006 A 
ATOM     19  C   UNL     1       1.619   0.930   3.071  0.00  0.00    +0.040 A 
ATOM     20  C   UNL     1       2.576   0.120   2.485  0.00  0.00    +0.147 A 
ATOM     21  C   UNL     1       2.921   0.307   1.152  0.00  0.00    +0.106 A 
ATOM     22  C   UNL     1       2.302   1.307   0.411  0.00  0.00    +0.147 A 
ATOM     23  C   UNL     1       1.346   2.113   1.004  0.00  0.00    +0.040 A 
ATOM     24  F   UNL     1       2.633   1.493  -0.885  0.00  0.00    -0.203 F 
ATOM     25  F   UNL     1       3.176  -0.851   3.209  0.00  0.00    -0.203 F 
ENDBRANCH  12  21
ENDBRANCH   1  15
BRANCH  10  26
ATOM     26  C   UNL     1       9.788  -7.457   0.843  0.00  0.00    +0.076 C 
ATOM     27  C   UNL     1       9.910  -7.999   2.282  0.00  0.00    +0.013 C 
ATOM     28  C   UNL     1      11.434  -8.175   2.494  0.00  0.00    +0.001 C 
ATOM     29  C   UNL     1      12.026  -6.948   1.758  0.00  0.00    +0.001 C 
ATOM     30  C   UNL     1      11.133  -6.789   0.509  0.00  0.00    +0.013 C 
ENDBRANCH  10  26
TORSDOF 3
