REMARK  Name = ZINC39676783
REMARK  10 active torsions:
REMARK  status: ('A' for Active; 'I' for Inactive)
REMARK    1  A    between atoms: C_1  and  C_2
REMARK    2  A    between atoms: C_2  and  N_3
REMARK    3  A    between atoms: C_4  and  C_10
REMARK    4  A    between atoms: C_6  and  C_8
REMARK    5  A    between atoms: C_14  and  C_23
REMARK    6  A    between atoms: N_25  and  C_26
REMARK    7  A    between atoms: C_26  and  C_28
REMARK    8  A    between atoms: C_26  and  C_29
REMARK    9  A    between atoms: C_33  and  O_35
REMARK   10  A    between atoms: O_35  and  C_36
REMARK                            x       y       z     vdW  Elec       q    Type
REMARK                         _______ _______ _______ _____ _____    ______ ____
ROOT
ATOM      1  C   UNL     1      -1.732  -0.617  -2.673  0.00  0.00    +0.266 C 
ATOM      2  O   UNL     1      -2.260  -0.939  -3.721  0.00  0.00    -0.268 OA
ATOM      3  N   UNL     1      -2.485  -0.168  -1.649  0.00  0.00    -0.295 N 
ATOM      4  C   UNL     1      -2.037   0.198  -0.285  0.00  0.00    +0.121 C 
ATOM      5  C   UNL     1      -2.866   1.451   0.075  0.00  0.00    +0.100 C 
ATOM      6  C   UNL     1      -4.119   1.360  -0.812  0.00  0.00    -0.004 C 
ATOM      7  C   UNL     1      -3.947   0.075  -1.635  0.00  0.00    +0.115 C 
ATOM      8  C   UNL     1      -4.199   2.568  -1.740  0.00  0.00    -0.010 C 
ATOM      9  C   UNL     1      -5.482   2.483  -2.571  0.00  0.00    -0.082 C 
ATOM     10  N   UNL     1      -6.646   2.452  -1.676  0.00  0.00    +0.379 N 
ATOM     11  C   UNL     1      -6.609   1.238  -0.850  0.00  0.00    -0.082 C 
ATOM     12  C   UNL     1      -5.373   1.270   0.053  0.00  0.00    -0.010 C 
ATOM     13  H   UNL     1      -6.630   3.264  -1.078  0.00  0.00    -0.086 HD
ATOM     14  H   UNL     1      -7.492   2.458  -2.226  0.00  0.00    -0.086 HD
ENDROOT
BRANCH   1  16
ATOM     15  N   UNL     1       0.434  -1.783  -2.044  0.00  0.00    -0.258 N 
ATOM     16  C   UNL     1      -0.272  -0.716  -2.525  0.00  0.00    +0.138 A 
ATOM     17  C   UNL     1       0.664   0.254  -2.844  0.00  0.00    +0.071 A 
ATOM     18  C   UNL     1       1.903  -0.309  -2.526  0.00  0.00    +0.075 A 
ATOM     19  N   UNL     1       1.689  -1.511  -2.054  0.00  0.00    -0.175 NA
ATOM     20  C   UNL     1       3.247   0.352  -2.692  0.00  0.00    +0.069 C 
ATOM     21 BR   UNL     1       0.336   1.974  -3.559  0.00  0.00    -0.046 Br
BRANCH  15  23
ATOM     22  C   UNL     1      -0.533  -2.917  -0.104  0.00  0.00    +0.029 C 
ATOM     23  C   UNL     1      -0.153  -3.043  -1.581  0.00  0.00    +0.141 C 
ENDBRANCH  15  23
ENDBRANCH   1  16
BRANCH   5  24
ATOM     24  C   UNL     1      -2.088   2.703  -0.239  0.00  0.00    +0.219 C 
ATOM     25  O   UNL     1      -1.335   2.727  -1.190  0.00  0.00    -0.275 OA
ATOM     26  N   UNL     1      -2.229   3.796   0.536  0.00  0.00    -0.308 N 
ATOM     27  H   UNL     1      -2.775   3.756   1.337  0.00  0.00    +0.149 HD
BRANCH  26  28
ATOM     28  C   UNL     1      -1.558   5.046   0.169  0.00  0.00    +0.100 C 
ATOM     29  C   UNL     1      -0.099   4.995   0.627  0.00  0.00    +0.033 C 
BRANCH  28  30
ATOM     30  C   UNL     1      -2.253   6.204   0.837  0.00  0.00    -0.024 A 
ATOM     31  C   UNL     1      -2.697   6.085   2.141  0.00  0.00    +0.005 A 
ATOM     32  C   UNL     1      -3.335   7.146   2.757  0.00  0.00    +0.004 A 
ATOM     33  C   UNL     1      -3.532   8.328   2.069  0.00  0.00    +0.045 A 
ATOM     34  C   UNL     1      -3.088   8.450   0.761  0.00  0.00    +0.120 A 
ATOM     35  C   UNL     1      -2.442   7.386   0.147  0.00  0.00    +0.051 A 
BRANCH  34  36
ATOM     36  O   UNL     1      -3.280   9.612   0.083  0.00  0.00    -0.495 OA
ATOM     37  C   UNL     1      -3.946  10.667   0.779  0.00  0.00    +0.277 C 
ENDBRANCH  34  36
ENDBRANCH  28  30
ENDBRANCH  26  28
ENDBRANCH   5  24
TORSDOF 6
