REMARK  Name = ZINC59290555
REMARK  5 active torsions:
REMARK  status: ('A' for Active; 'I' for Inactive)
REMARK    1  A    between atoms: C_1  and  C_2
REMARK    2  A    between atoms: C_4  and  C_28
REMARK    3  A    between atoms: N_8  and  N_9
REMARK    4  A    between atoms: C_10  and  C_12
REMARK    5  A    between atoms: N_15  and  C_17
REMARK                            x       y       z     vdW  Elec       q    Type
REMARK                         _______ _______ _______ _____ _____    ______ ____
ROOT
ATOM      1  C   UNL     1       0.143  -1.863   6.001  0.00  0.00    +0.152 A 
ATOM      2  C   UNL     1      -0.009  -2.402   7.290  0.00  0.00    +0.006 A 
ATOM      3  C   UNL     1      -0.074  -1.342   8.132  0.00  0.00    +0.049 A 
ATOM      4  N   UNL     1       0.036  -0.227   7.378  0.00  0.00    -0.236 N 
ATOM      5  N   UNL     1       0.167  -0.548   6.137  0.00  0.00    -0.161 NA
ATOM      6  C   UNL     1      -0.243  -1.464   9.625  0.00  0.00    +0.056 C 
ATOM      7  C   UNL     1      -0.733  -2.882   9.941  0.00  0.00    +0.006 C 
ATOM      8  C   UNL     1       0.160  -3.905   9.233  0.00  0.00    +0.005 C 
ATOM      9  C   UNL     1      -0.088  -3.841   7.720  0.00  0.00    +0.039 C 
ENDROOT
BRANCH   4  10
ATOM     10  C   UNL     1       0.017   1.084   7.872  0.00  0.00    +0.067 A 
ATOM     11  C   UNL     1       0.714   1.401   9.031  0.00  0.00    +0.028 A 
ATOM     12  C   UNL     1       0.693   2.694   9.516  0.00  0.00    +0.003 A 
ATOM     13  C   UNL     1      -0.020   3.673   8.849  0.00  0.00    +0.015 A 
ATOM     14  C   UNL     1      -0.715   3.361   7.694  0.00  0.00    +0.020 A 
ATOM     15  C   UNL     1      -0.693   2.070   7.201  0.00  0.00    +0.043 A 
ATOM     16 BR   UNL     1      -1.689   4.704   6.786  0.00  0.00    -0.050 Br
ENDBRANCH   4  10
BRANCH   1  18
ATOM     17  N   UNL     1       0.407  -1.964   3.570  0.00  0.00    -0.229 N 
ATOM     18  C   UNL     1       0.259  -2.620   4.738  0.00  0.00    +0.281 C 
ATOM     19  O   UNL     1       0.222  -3.835   4.752  0.00  0.00    -0.267 OA
ATOM     20  H   UNL     1       0.437  -0.994   3.559  0.00  0.00    +0.173 HD
BRANCH  17  28
ATOM     21  C   UNL     1       0.894   1.498   0.059  0.00  0.00    +0.066 C 
ATOM     22  C   UNL     1       0.851  -0.009   0.047  0.00  0.00    +0.044 A 
ATOM     23  C   UNL     1       0.961  -0.704  -1.147  0.00  0.00    +0.046 A 
ATOM     24  C   UNL     1       0.917  -2.089  -1.114  0.00  0.00    +0.044 A 
ATOM     25  N   UNL     1       0.772  -2.702   0.049  0.00  0.00    -0.219 NA
ATOM     26  C   UNL     1       0.669  -2.008   1.173  0.00  0.00    +0.232 A 
ATOM     27  N   UNL     1       0.712  -0.683   1.176  0.00  0.00    -0.219 NA
ATOM     28  N   UNL     1       0.517  -2.682   2.372  0.00  0.00    -0.232 N 
ATOM     29  C   UNL     1       1.033  -2.886  -2.387  0.00  0.00    +0.066 C 
ATOM     30  H   UNL     1       0.487  -3.651   2.383  0.00  0.00    +0.173 HD
ENDBRANCH  17  28
ENDBRANCH   1  18
TORSDOF 3
