REMARK  Name = ZINC00748990
REMARK  7 active torsions:
REMARK  status: ('A' for Active; 'I' for Inactive)
REMARK    1  A    between atoms: C_1  and  C_2
REMARK    2  A    between atoms: C_2  and  C_4
REMARK    3  A    between atoms: C_2  and  N_10
REMARK    4  A    between atoms: C_11  and  C_13
REMARK    5  A    between atoms: C_15  and  N_24
REMARK    6  A    between atoms: C_18  and  N_19
REMARK    7  A    between atoms: N_27  and  C_28
REMARK                            x       y       z     vdW  Elec       q    Type
REMARK                         _______ _______ _______ _____ _____    ______ ____
ROOT
ATOM      1  C   UNL     1       0.585   2.367  -8.278  0.00  0.00    +0.059 A 
ATOM      2  C   UNL     1       0.844   1.655  -7.104  0.00  0.00    +0.038 A 
ATOM      3  C   UNL     1       0.236   2.033  -5.920  0.00  0.00    +0.036 A 
ATOM      4  C   UNL     1      -0.636   3.117  -5.897  0.00  0.00    +0.025 A 
ATOM      5  C   UNL     1      -0.894   3.830  -7.049  0.00  0.00    +0.026 A 
ATOM      6  C   UNL     1      -0.292   3.462  -8.246  0.00  0.00    +0.042 A 
ENDROOT
BRANCH   3   7
ATOM      7  N   UNL     1       0.495   1.319  -4.742  0.00  0.00    -0.269 N 
ATOM      8  C   UNL     1       0.518   1.960  -3.556  0.00  0.00    +0.304 C 
ATOM      9  O   UNL     1       0.408   3.170  -3.518  0.00  0.00    -0.253 OA
ATOM     10  N   UNL     1       0.662   1.260  -2.414  0.00  0.00    -0.296 N 
ATOM     11  H   UNL     1       0.680   0.236  -4.785  0.00  0.00    +0.156 HD
ATOM     12  H   UNL     1       0.761   0.165  -2.449  0.00  0.00    +0.151 HD
BRANCH  10  13
ATOM     13  C   UNL     1       0.686   1.956  -1.126  0.00  0.00    +0.074 C 
ATOM     14  C   UNL     1       1.450   1.111  -0.103  0.00  0.00    +0.022 C 
ATOM     15  C   UNL     1       1.475   1.839   1.242  0.00  0.00    +0.002 C 
ATOM     16  C   UNL     1       0.042   2.059   1.730  0.00  0.00    +0.000 C 
ATOM     17  C   UNL     1      -0.721   2.904   0.708  0.00  0.00    +0.002 C 
ATOM     18  C   UNL     1      -0.747   2.176  -0.637  0.00  0.00    +0.022 C 
ENDBRANCH  10  13
ENDBRANCH   3   7
BRANCH   6  19
ATOM     19  N   UNL     1      -0.556   4.178  -9.409  0.00  0.00    -0.329 N 
ATOM     20  C   UNL     1      -2.018   4.285  -9.647  0.00  0.00    +0.105 C 
ATOM     21  C   UNL     1      -2.133   5.495 -10.608  0.00  0.00    +0.020 C 
ATOM     22  C   UNL     1      -1.045   6.459 -10.081  0.00  0.00    +0.020 C 
ATOM     23  C   UNL     1      -0.062   5.568  -9.299  0.00  0.00    +0.105 C 
ENDBRANCH   6  19
BRANCH   1  25
ATOM     24  N   UNL     1       1.986   0.856  -9.593  0.00  0.00    -0.305 N 
ATOM     25  C   UNL     1       1.229   1.970  -9.543  0.00  0.00    +0.246 C 
ATOM     26  O   UNL     1       1.078   2.647 -10.541  0.00  0.00    -0.270 OA
ATOM     27  H   UNL     1       2.123   0.242  -8.690  0.00  0.00    +0.150 HD
BRANCH  24  29
ATOM     28  C   UNL     1       1.639  -0.348 -11.693  0.00  0.00    +0.033 C 
ATOM     29  C   UNL     1       2.626   0.461 -10.850  0.00  0.00    +0.100 C 
BRANCH  29  30
ATOM     30  C   UNL     1       3.840  -0.381 -10.553  0.00  0.00    -0.027 A 
ATOM     31  C   UNL     1       3.801  -1.316  -9.536  0.00  0.00    +0.005 A 
ATOM     32  C   UNL     1       4.913  -2.091  -9.267  0.00  0.00    +0.000 A 
ATOM     33  C   UNL     1       6.068  -1.924 -10.008  0.00  0.00    +0.000 A 
ATOM     34  C   UNL     1       6.109  -0.985 -11.021  0.00  0.00    +0.000 A 
ATOM     35  C   UNL     1       4.996  -0.213 -11.293  0.00  0.00    +0.005 A 
ENDBRANCH  29  30
ENDBRANCH  24  29
ENDBRANCH   1  25
TORSDOF 6
