REMARK  Name = ZINC64921750
REMARK  6 active torsions:
REMARK  status: ('A' for Active; 'I' for Inactive)
REMARK    1  A    between atoms: C_1  and  C_2
REMARK    2  A    between atoms: C_2  and  C_3
REMARK    3  A    between atoms: C_10  and  S_15
REMARK    4  A    between atoms: S_15  and  N_18
REMARK    5  A    between atoms: C_21  and  C_24
REMARK    6  A    between atoms: N_26  and  C_27
REMARK                            x       y       z     vdW  Elec       q    Type
REMARK                         _______ _______ _______ _____ _____    ______ ____
ROOT
ATOM      1  S   UNL     1      -0.588  -3.196   6.040  0.00  0.00    +0.061 S 
ATOM      2  O   UNL     1      -1.216  -2.534   7.130  0.00  0.00    -0.153 OA
ATOM      3  O   UNL     1      -0.822  -4.566   5.745  0.00  0.00    -0.153 OA
ENDROOT
BRANCH   1  10
ATOM      4  C   UNL     1      -1.403  -0.545  -0.025  0.00  0.00    +0.259 C 
ATOM      5  C   UNL     1      -1.387  -2.047  -0.152  0.00  0.00    +0.258 C 
ATOM      6  O   UNL     1      -1.469  -2.567  -1.245  0.00  0.00    -0.271 OA
ATOM      7  N   UNL     1      -1.281  -2.811   0.956  0.00  0.00    -0.279 N 
ATOM      8  C   UNL     1      -1.315  -2.198   2.215  0.00  0.00    +0.078 A 
ATOM      9  C   UNL     1      -0.983  -2.912   3.356  0.00  0.00    +0.055 A 
ATOM     10  C   UNL     1      -1.008  -2.289   4.590  0.00  0.00    +0.107 A 
ATOM     11  C   UNL     1      -1.363  -0.956   4.688  0.00  0.00    +0.032 A 
ATOM     12  C   UNL     1      -1.700  -0.239   3.555  0.00  0.00    +0.049 A 
ATOM     13  C   UNL     1      -1.682  -0.858   2.316  0.00  0.00    +0.143 A 
ATOM     14  O   UNL     1      -2.041  -0.173   1.199  0.00  0.00    -0.478 OA
ATOM     15  H   UNL     1      -1.183  -3.773   0.880  0.00  0.00    +0.155 HD
BRANCH   4  17
ATOM     16  C   UNL     1       0.017   1.512  -0.029  0.00  0.00    +0.008 C 
ATOM     17  C   UNL     1       0.034  -0.018  -0.030  0.00  0.00    +0.051 C 
ENDBRANCH   4  17
ENDBRANCH   1  10
BRANCH   1  18
ATOM     18  N   UNL     1       1.044  -3.033   6.265  0.00  0.00    -0.177 NA
ATOM     19  C   UNL     1       1.982  -3.987   5.658  0.00  0.00    +0.110 C 
ATOM     20  C   UNL     1       3.022  -3.208   4.846  0.00  0.00    +0.030 C 
ATOM     21  C   UNL     1       3.684  -2.160   5.744  0.00  0.00    +0.078 C 
ATOM     22  C   UNL     1       2.626  -1.175   6.246  0.00  0.00    +0.030 C 
ATOM     23  C   UNL     1       1.582  -1.927   7.069  0.00  0.00    +0.110 C 
BRANCH  21  24
ATOM     24  C   UNL     1       4.731  -1.414   4.958  0.00  0.00    +0.220 C 
ATOM     25  O   UNL     1       4.928  -1.693   3.794  0.00  0.00    -0.275 OA
ATOM     26  N   UNL     1       5.448  -0.437   5.547  0.00  0.00    -0.285 N 
ATOM     27  H   UNL     1       5.245  -0.168   6.457  0.00  0.00    +0.155 HD
BRANCH  26  28
ATOM     28  C   UNL     1       6.486   0.189   4.847  0.00  0.00    +0.033 A 
ATOM     29  C   UNL     1       7.632   0.594   5.518  0.00  0.00    +0.025 A 
ATOM     30  C   UNL     1       8.655   1.212   4.825  0.00  0.00    +0.022 A 
ATOM     31  C   UNL     1       8.537   1.428   3.463  0.00  0.00    +0.041 A 
ATOM     32  C   UNL     1       7.395   1.026   2.792  0.00  0.00    +0.022 A 
ATOM     33  C   UNL     1       6.372   0.402   3.480  0.00  0.00    +0.025 A 
ATOM     34 CL   UNL     1       9.824   2.205   2.595  0.00  0.00    -0.084 Cl
ENDBRANCH  26  28
ENDBRANCH  21  24
ENDBRANCH   1  18
TORSDOF 5
