REMARK  Name = ZINC55166298
REMARK  5 active torsions:
REMARK  status: ('A' for Active; 'I' for Inactive)
REMARK    1  A    between atoms: C_1  and  C_2
REMARK    2  A    between atoms: C_2  and  C_4
REMARK    3  A    between atoms: C_2  and  N_14
REMARK    4  A    between atoms: C_7  and  C_10
REMARK    5  A    between atoms: C_15  and  C_17
REMARK                            x       y       z     vdW  Elec       q    Type
REMARK                         _______ _______ _______ _____ _____    ______ ____
ROOT
ATOM      1  N   UNL     1      -1.372  -0.511   0.012  0.00  0.00    -0.302 N 
ATOM      2  C   UNL     1      -2.029  -0.655   1.181  0.00  0.00    +0.284 C 
ATOM      3  O   UNL     1      -1.480  -0.364   2.226  0.00  0.00    -0.267 OA
ATOM      4  H   UNL     1      -1.810  -0.743  -0.822  0.00  0.00    +0.150 HD
ENDROOT
BRANCH   2   5
ATOM      5  C   UNL     1      -3.416  -1.167   1.191  0.00  0.00    +0.238 A 
ATOM      6  N   UNL     1      -4.173  -1.349   2.285  0.00  0.00    -0.190 NA
ATOM      7  C   UNL     1      -5.349  -1.815   1.936  0.00  0.00    +0.209 A 
ATOM      8  N   UNL     1      -5.368  -1.942   0.589  0.00  0.00    -0.246 N 
ATOM      9  H   UNL     1      -6.105  -2.262   0.046  0.00  0.00    +0.192 HD
ATOM     10  N   UNL     1      -4.112  -1.513   0.130  0.00  0.00    -0.146 NA
ATOM     11  N   UNL     1      -6.389  -2.122   2.794  0.00  0.00    -0.328 N 
ATOM     12  H   UNL     1      -6.282  -1.997   3.750  0.00  0.00    +0.145 HD
ATOM     13  H   UNL     1      -7.226  -2.463   2.441  0.00  0.00    +0.145 HD
ENDBRANCH   2   5
BRANCH   1  15
ATOM     14  C   UNL     1      -0.019   1.526   0.010  0.00  0.00    +0.033 C 
ATOM     15  C   UNL     1       0.002  -0.004   0.002  0.00  0.00    +0.100 C 
BRANCH  15  16
ATOM     16  C   UNL     1       0.707  -0.490  -1.238  0.00  0.00    -0.027 A 
ATOM     17  C   UNL     1       0.038  -0.522  -2.447  0.00  0.00    +0.006 A 
ATOM     18  C   UNL     1       0.685  -0.967  -3.584  0.00  0.00    +0.013 A 
ATOM     19  C   UNL     1       2.002  -1.381  -3.513  0.00  0.00    +0.055 A 
ATOM     20  C   UNL     1       2.672  -1.349  -2.304  0.00  0.00    +0.013 A 
ATOM     21  C   UNL     1       2.026  -0.899  -1.167  0.00  0.00    +0.006 A 
BRANCH  19  22
ATOM     22  C   UNL     1       2.707  -1.868  -4.752  0.00  0.00    +0.417 C 
ATOM     23  F   UNL     1       3.325  -0.788  -5.391  0.00  0.00    -0.166 F 
ATOM     24  F   UNL     1       3.673  -2.816  -4.397  0.00  0.00    -0.166 F 
ATOM     25  F   UNL     1       1.776  -2.452  -5.619  0.00  0.00    -0.166 F 
ENDBRANCH  19  22
ENDBRANCH  15  16
ENDBRANCH   1  15
TORSDOF 4
