REMARK  Name = ZINC40356169
REMARK  7 active torsions:
REMARK  status: ('A' for Active; 'I' for Inactive)
REMARK    1  A    between atoms: C_1  and  C_2
REMARK    2  A    between atoms: C_2  and  C_4
REMARK    3  A    between atoms: C_2  and  N_20
REMARK    4  A    between atoms: N_6  and  C_7
REMARK    5  A    between atoms: C_12  and  C_13
REMARK    6  A    between atoms: C_13  and  C_14
REMARK    7  A    between atoms: N_23  and  C_24
REMARK                            x       y       z     vdW  Elec       q    Type
REMARK                         _______ _______ _______ _____ _____    ______ ____
ROOT
ATOM      1  C   UNL     1       0.443  -0.491  -0.648  0.00  0.00    +0.237 C 
ATOM      2  O   UNL     1      -0.125  -1.161  -1.485  0.00  0.00    -0.273 OA
ATOM      3  N   UNL     1       1.743  -0.174  -0.807  0.00  0.00    -0.284 N 
ATOM      4  H   UNL     1       2.180   0.414  -0.172  0.00  0.00    +0.155 HD
ENDROOT
BRANCH   3   5
ATOM      5  C   UNL     1       2.462  -0.694  -1.889  0.00  0.00    +0.037 A 
ATOM      6  C   UNL     1       1.834  -0.891  -3.112  0.00  0.00    +0.023 A 
ATOM      7  C   UNL     1       2.547  -1.404  -4.178  0.00  0.00    +0.002 A 
ATOM      8  C   UNL     1       3.884  -1.722  -4.029  0.00  0.00    +0.000 A 
ATOM      9  C   UNL     1       4.513  -1.527  -2.812  0.00  0.00    +0.006 A 
ATOM     10  C   UNL     1       3.807  -1.008  -1.744  0.00  0.00    -0.022 A 
BRANCH  10  11
ATOM     11  C   UNL     1       4.495  -0.789  -0.421  0.00  0.00    +0.072 C 
BRANCH  11  12
ATOM     12  C   UNL     1       4.268  -1.986   0.466  0.00  0.00    -0.043 A 
ATOM     13  C   UNL     1       3.167  -2.029   1.302  0.00  0.00    +0.004 A 
ATOM     14  C   UNL     1       2.960  -3.127   2.116  0.00  0.00    +0.000 A 
ATOM     15  C   UNL     1       3.853  -4.182   2.094  0.00  0.00    +0.000 A 
ATOM     16  C   UNL     1       4.953  -4.139   1.258  0.00  0.00    +0.000 A 
ATOM     17  C   UNL     1       5.158  -3.043   0.441  0.00  0.00    +0.004 A 
ENDBRANCH  11  12
ENDBRANCH  10  11
ENDBRANCH   3   5
BRANCH   1  19
ATOM     18  C   UNL     1      -0.290   1.515   0.612  0.00  0.00    +0.038 C 
ATOM     19  C   UNL     1      -0.305  -0.014   0.570  0.00  0.00    +0.158 C 
BRANCH  19  20
ATOM     20  N   UNL     1      -1.690  -0.487   0.509  0.00  0.00    -0.288 N 
ATOM     21  C   UNL     1      -2.401  -0.639   1.644  0.00  0.00    +0.305 C 
ATOM     22  O   UNL     1      -1.893  -0.384   2.719  0.00  0.00    -0.252 OA
ATOM     23  N   UNL     1      -3.675  -1.074   1.588  0.00  0.00    -0.267 N 
ATOM     24  H   UNL     1      -2.096  -0.691  -0.348  0.00  0.00    +0.151 HD
ATOM     25  H   UNL     1      -4.060  -1.340   0.738  0.00  0.00    +0.156 HD
BRANCH  23  26
ATOM     26  C   UNL     1      -4.444  -1.143   2.757  0.00  0.00    +0.070 A 
ATOM     27  C   UNL     1      -3.846  -1.478   3.964  0.00  0.00    +0.026 A 
ATOM     28  C   UNL     1      -4.607  -1.545   5.115  0.00  0.00    +0.002 A 
ATOM     29  C   UNL     1      -5.963  -1.280   5.067  0.00  0.00    +0.003 A 
ATOM     30  C   UNL     1      -6.564  -0.946   3.867  0.00  0.00    +0.040 A 
ATOM     31  C   UNL     1      -5.807  -0.871   2.711  0.00  0.00    +0.145 A 
ATOM     32  F   UNL     1      -6.392  -0.540   1.540  0.00  0.00    -0.204 F 
ENDBRANCH  23  26
ENDBRANCH  19  20
ENDBRANCH   1  19
TORSDOF 6
