REMARK  Name = ZINC35646529
REMARK  14 active torsions:
REMARK  status: ('A' for Active; 'I' for Inactive)
REMARK    1  A    between atoms: C_1  and  C_2
REMARK    2  A    between atoms: C_2  and  N_3
REMARK    3  A    between atoms: C_4  and  C_24
REMARK    4  A    between atoms: C_5  and  C_19
REMARK    5  A    between atoms: C_6  and  C_11
REMARK    6  A    between atoms: C_14  and  O_17
REMARK    7  A    between atoms: O_17  and  C_18
REMARK    8  A    between atoms: C_19  and  O_21
REMARK    9  A    between atoms: O_21  and  C_22
REMARK   10  A    between atoms: C_22  and  C_23
REMARK   11  A    between atoms: C_24  and  N_25
REMARK   12  A    between atoms: C_29  and  C_32
REMARK   13  A    between atoms: C_33  and  C_35
REMARK   14  A    between atoms: C_38  and  C_41
REMARK                            x       y       z     vdW  Elec       q    Type
REMARK                         _______ _______ _______ _____ _____    ______ ____
ROOT
ATOM      1  N   UNL     1      -0.341   0.365  -3.088  0.00  0.00    -0.258 N 
ATOM      2  C   UNL     1      -1.262   0.246  -4.090  0.00  0.00    +0.041 C 
ATOM      3  C   UNL     1      -0.881  -0.004  -5.361  0.00  0.00    +0.080 C 
ATOM      4  C   UNL     1       0.602  -0.148  -5.637  0.00  0.00    +0.144 C 
ATOM      5  N   UNL     1       1.512  -0.002  -4.488  0.00  0.00    -0.288 N 
ATOM      6  C   UNL     1       0.980   0.252  -3.277  0.00  0.00    +0.307 C 
ATOM      7  O   UNL     1       1.722   0.378  -2.323  0.00  0.00    -0.252 OA
ATOM      8  H   UNL     1       2.472  -0.083  -4.602  0.00  0.00    +0.151 HD
ENDROOT
BRANCH   4   9
ATOM      9  C   UNL     1       0.986   0.884  -6.666  0.00  0.00    -0.022 A 
ATOM     10  C   UNL     1       1.205   2.194  -6.282  0.00  0.00    +0.009 A 
ATOM     11  C   UNL     1       1.556   3.142  -7.223  0.00  0.00    +0.046 A 
ATOM     12  C   UNL     1       1.688   2.779  -8.555  0.00  0.00    +0.120 A 
ATOM     13  C   UNL     1       1.468   1.464  -8.939  0.00  0.00    +0.046 A 
ATOM     14  C   UNL     1       1.123   0.519  -7.992  0.00  0.00    +0.009 A 
BRANCH  12  15
ATOM     15  O   UNL     1       2.033   3.710  -9.483  0.00  0.00    -0.495 OA
ATOM     16  C   UNL     1       2.151   3.265 -10.836  0.00  0.00    +0.277 C 
ENDBRANCH  12  15
ENDBRANCH   4   9
BRANCH   1  18
ATOM     17  C   UNL     1      -0.909   2.148  -1.514  0.00  0.00    +0.025 C 
ATOM     18  C   UNL     1      -0.826   0.636  -1.732  0.00  0.00    +0.111 C 
ENDBRANCH   1  18
BRANCH   3  19
ATOM     19  C   UNL     1      -1.833  -0.128  -6.399  0.00  0.00    +0.339 C 
ATOM     20  O   UNL     1      -2.188  -1.231  -6.771  0.00  0.00    -0.245 OA
BRANCH  19  21
ATOM     21  O   UNL     1      -2.349   0.977  -6.977  0.00  0.00    -0.462 OA
BRANCH  21  22
ATOM     22  C   UNL     1      -3.306   0.777  -8.019  0.00  0.00    +0.229 C 
ATOM     23  C   UNL     1      -3.774   2.135  -8.549  0.00  0.00    +0.048 C 
ENDBRANCH  21  22
ENDBRANCH  19  21
ENDBRANCH   3  19
BRANCH   2  24
ATOM     24  C   UNL     1      -2.727   0.396  -3.771  0.00  0.00    +0.136 C 
BRANCH  24  25
ATOM     25  N   UNL     1      -3.160  -0.720  -2.921  0.00  0.00    -0.294 NA
ATOM     26  C   UNL     1      -3.082  -1.996  -3.645  0.00  0.00    +0.104 C 
ATOM     27  C   UNL     1      -3.365  -3.148  -2.676  0.00  0.00    +0.124 C 
ATOM     28  N   UNL     1      -4.650  -2.891  -2.008  0.00  0.00    -0.292 N 
ATOM     29  C   UNL     1      -4.855  -1.579  -1.375  0.00  0.00    +0.087 C 
ATOM     30  C   UNL     1      -4.512  -0.488  -2.396  0.00  0.00    +0.107 C 
ATOM     31  C   UNL     1      -6.315  -1.441  -0.939  0.00  0.00    +0.029 C 
ATOM     32  C   UNL     1      -5.613  -3.833  -1.975  0.00  0.00    +0.247 C 
ATOM     33  O   UNL     1      -6.705  -3.570  -1.510  0.00  0.00    -0.270 OA
BRANCH  32  34
ATOM     34  C   UNL     1      -5.342  -5.187  -2.504  0.00  0.00    +0.037 A 
ATOM     35  C   UNL     1      -4.043  -5.696  -2.494  0.00  0.00    +0.013 A 
ATOM     36  C   UNL     1      -3.797  -6.960  -2.989  0.00  0.00    +0.004 A 
ATOM     37  C   UNL     1      -4.835  -7.722  -3.495  0.00  0.00    -0.050 A 
ATOM     38  C   UNL     1      -6.125  -7.223  -3.509  0.00  0.00    +0.004 A 
ATOM     39  C   UNL     1      -6.386  -5.963  -3.011  0.00  0.00    +0.013 A 
ATOM     40  C   UNL     1      -4.559  -9.102  -4.035  0.00  0.00    +0.044 C 
ENDBRANCH  32  34
ENDBRANCH  24  25
ENDBRANCH   2  24
TORSDOF 9
