REMARK  Name = ZINC39575061
REMARK  4 active torsions:
REMARK  status: ('A' for Active; 'I' for Inactive)
REMARK    1  A    between atoms: C_1  and  C_2
REMARK    2  A    between atoms: C_3  and  C_22
REMARK    3  A    between atoms: C_5  and  N_21
REMARK    4  A    between atoms: C_6  and  C_7
REMARK                            x       y       z     vdW  Elec       q    Type
REMARK                         _______ _______ _______ _____ _____    ______ ____
ROOT
ATOM      1  C   UNL     1      -1.361  -0.771   1.885  0.00  0.00    +0.118 A 
ATOM      2  N   UNL     1      -2.516  -0.808   1.167  0.00  0.00    -0.341 N 
ATOM      3  H   UNL     1      -2.592  -0.831   0.200  0.00  0.00    +0.167 HD
ATOM      4  C   UNL     1      -3.562  -0.806   2.071  0.00  0.00    +0.070 A 
ATOM      5  C   UNL     1      -4.944  -0.833   1.946  0.00  0.00    +0.077 A 
ATOM      6  C   UNL     1      -5.740  -0.823   3.077  0.00  0.00    +0.164 A 
ATOM      7  C   UNL     1      -5.159  -0.787   4.346  0.00  0.00    +0.164 A 
ATOM      8  C   UNL     1      -3.786  -0.758   4.481  0.00  0.00    +0.079 A 
ATOM      9  C   UNL     1      -2.972  -0.767   3.345  0.00  0.00    +0.093 A 
ATOM     10  N   UNL     1      -1.626  -0.752   3.158  0.00  0.00    -0.232 NA
ATOM     11  O   UNL     1      -5.935  -0.785   5.465  0.00  0.00    -0.485 OA
ATOM     12  C   UNL     1      -7.314  -0.439   5.293  0.00  0.00    +0.270 C 
ATOM     13  C   UNL     1      -7.858  -1.216   4.087  0.00  0.00    +0.270 C 
ATOM     14  O   UNL     1      -7.095  -0.846   2.933  0.00  0.00    -0.485 OA
ENDROOT
BRANCH   1  20
ATOM     15  C   UNL     1      -0.018   1.503   0.010  0.00  0.00    +0.040 C 
ATOM     16  C   UNL     1       0.002  -0.004   0.002  0.00  0.00    -0.051 C 
ATOM     17  C   UNL     1       0.006  -0.659  -1.143  0.00  0.00    -0.016 C 
ATOM     18  S   UNL     1       0.049  -2.390  -0.715  0.00  0.00    -0.110 S 
ATOM     19  C   UNL     1       0.489  -2.221   1.066  0.00  0.00    +0.128 C 
ATOM     20  C   UNL     1       0.025  -0.760   1.291  0.00  0.00    +0.108 C 
ATOM     21  C   UNL     1      -0.022  -0.066  -2.528  0.00  0.00    +0.051 C 
BRANCH  19  22
ATOM     22  N   UNL     1       1.936  -2.360   1.279  0.00  0.00    -0.318 NA
ATOM     23  H   UNL     1       2.259  -3.271   0.990  0.00  0.00    +0.119 HD
ATOM     24  H   UNL     1       2.443  -1.629   0.803  0.00  0.00    +0.119 HD
ENDBRANCH  19  22
ENDBRANCH   1  20
TORSDOF 2
