REMARK  Name = ZINC38546994
REMARK  7 active torsions:
REMARK  status: ('A' for Active; 'I' for Inactive)
REMARK    1  A    between atoms: C_1  and  C_2
REMARK    2  A    between atoms: N_8  and  C_9
REMARK    3  A    between atoms: C_9  and  C_11
REMARK    4  A    between atoms: C_9  and  C_17
REMARK    5  A    between atoms: C_19  and  C_30
REMARK    6  A    between atoms: C_21  and  N_22
REMARK    7  A    between atoms: C_23  and  C_25
REMARK                            x       y       z     vdW  Elec       q    Type
REMARK                         _______ _______ _______ _____ _____    ______ ____
ROOT
ATOM      1  C   UNL     1       0.048  -2.142   3.611  0.00  0.00    +0.136 C 
ENDROOT
BRANCH   1   9
ATOM      2  C   UNL     1       0.234   1.775   0.313  0.00  0.00    +0.044 C 
ATOM      3  C   UNL     1       0.387   0.279   0.202  0.00  0.00    -0.046 A 
ATOM      4  C   UNL     1       0.642  -0.320  -1.024  0.00  0.00    +0.021 A 
ATOM      5  C   UNL     1       0.778  -1.692  -1.092  0.00  0.00    +0.084 A 
ATOM      6  N   UNL     1       0.668  -2.437  -0.008  0.00  0.00    -0.350 N 
ATOM      7  C   UNL     1       0.425  -1.903   1.179  0.00  0.00    +0.097 A 
ATOM      8  C   UNL     1       0.283  -0.526   1.321  0.00  0.00    +0.045 A 
ATOM      9  N   UNL     1       0.317  -2.726   2.295  0.00  0.00    -0.320 N 
ATOM     10  H   UNL     1       0.419  -3.686   2.201  0.00  0.00    +0.148 HD
ATOM     11  H   UNL     1       0.767  -3.398  -0.083  0.00  0.00    +0.166 HD
ENDBRANCH   1   9
BRANCH   1  12
ATOM     12  C   UNL     1      -1.436  -1.940   3.778  0.00  0.00    -0.005 A 
ATOM     13  C   UNL     1      -1.925  -0.795   4.388  0.00  0.00    +0.009 A 
ATOM     14  C   UNL     1      -3.297  -0.651   4.520  0.00  0.00    +0.020 A 
ATOM     15  C   UNL     1      -4.128  -1.647   4.041  0.00  0.00    +0.111 A 
ATOM     16  N   UNL     1      -3.628  -2.724   3.467  0.00  0.00    -0.263 NA
ATOM     17  C   UNL     1      -2.328  -2.891   3.319  0.00  0.00    +0.116 A 
ENDBRANCH   1  12
BRANCH   1  18
ATOM     18  C   UNL     1       0.551  -3.072   4.685  0.00  0.00    +0.006 A 
ATOM     19  C   UNL     1       0.638  -4.433   4.454  0.00  0.00    +0.018 A 
ATOM     20  C   UNL     1       1.095  -5.241   5.441  0.00  0.00    -0.011 A 
ATOM     21  S   UNL     1       1.424  -4.077   6.753  0.00  0.00    -0.078 S 
ATOM     22  C   UNL     1       0.935  -2.587   5.899  0.00  0.00    +0.078 A 
ATOM     23  C   UNL     1       1.279  -6.736   5.432  0.00  0.00    +0.051 C 
BRANCH  22  24
ATOM     24  N   UNL     1       0.942  -1.268   6.357  0.00  0.00    -0.273 N 
ATOM     25  C   UNL     1       1.364  -0.991   7.606  0.00  0.00    +0.284 C 
ATOM     26  O   UNL     1       1.739  -1.890   8.336  0.00  0.00    -0.266 OA
ATOM     27  H   UNL     1       0.643  -0.551   5.776  0.00  0.00    +0.156 HD
BRANCH  25  28
ATOM     28  C   UNL     1       1.371   0.395   8.087  0.00  0.00    +0.189 A 
ATOM     29  C   UNL     1       1.777   0.813   9.322  0.00  0.00    +0.054 A 
ATOM     30  C   UNL     1       1.616   2.208   9.349  0.00  0.00    +0.042 A 
ATOM     31  C   UNL     1       1.125   2.574   8.144  0.00  0.00    +0.196 A 
ATOM     32  O   UNL     1       0.984   1.480   7.385  0.00  0.00    -0.458 OA
ENDBRANCH  25  28
ENDBRANCH  22  24
ENDBRANCH   1  18
TORSDOF 5
