REMARK  Name = ZINC09905121
REMARK  5 active torsions:
REMARK  status: ('A' for Active; 'I' for Inactive)
REMARK    1  A    between atoms: C_5  and  C_7
REMARK    2  A    between atoms: C_8  and  C_9
REMARK    3  A    between atoms: N_11  and  C_12
REMARK    4  A    between atoms: C_14  and  C_23
REMARK    5  A    between atoms: C_17  and  N_18
REMARK                            x       y       z     vdW  Elec       q    Type
REMARK                         _______ _______ _______ _____ _____    ______ ____
ROOT
ATOM      1  C   UNL     1       3.625  -6.316   0.032  0.00  0.00    +0.056 A 
ATOM      2  C   UNL     1       2.418  -6.990   0.033  0.00  0.00    +0.038 A 
ATOM      3  C   UNL     1       2.401  -8.385   0.114  0.00  0.00    +0.038 A 
ATOM      4  C   UNL     1       3.603  -9.094   0.194  0.00  0.00    +0.015 A 
ATOM      5  C   UNL     1       4.803  -8.418   0.194  0.00  0.00    +0.026 A 
ATOM      6  C   UNL     1       4.823  -7.031   0.107  0.00  0.00    +0.051 A 
ENDROOT
BRANCH   6   7
ATOM      7  N   UNL     1       6.039  -6.352   0.100  0.00  0.00    -0.328 N 
ATOM      8  C   UNL     1       7.178  -7.301   0.016  0.00  0.00    +0.105 C 
ATOM      9  C   UNL     1       8.340  -6.417  -0.502  0.00  0.00    +0.020 C 
ATOM     10  C   UNL     1       7.635  -5.473  -1.504  0.00  0.00    +0.020 C 
ATOM     11  C   UNL     1       6.153  -5.479  -1.088  0.00  0.00    +0.105 C 
ENDBRANCH   6   7
BRANCH   3  12
ATOM     12  C   UNL     1       1.115  -9.109   0.116  0.00  0.00    +0.242 C 
ATOM     13  O   UNL     1       0.070  -8.492   0.046  0.00  0.00    -0.270 OA
ATOM     14  N   UNL     1       1.100 -10.454   0.194  0.00  0.00    -0.325 N 
ATOM     15  H   UNL     1       1.934 -10.947   0.249  0.00  0.00    +0.145 HD
ATOM     16  H   UNL     1       0.255 -10.930   0.195  0.00  0.00    +0.145 HD
ENDBRANCH   3  12
BRANCH   1  19
ATOM     17  C   UNL     1       2.615  -4.259  -0.614  0.00  0.00    +0.241 C 
ATOM     18  O   UNL     1       1.713  -4.881  -1.144  0.00  0.00    -0.270 OA
ATOM     19  N   UNL     1       3.646  -4.917  -0.049  0.00  0.00    -0.280 N 
ATOM     20  H   UNL     1       4.404  -4.423   0.302  0.00  0.00    +0.155 HD
BRANCH  17  22
ATOM     21  C   UNL     1       1.547  -2.138  -1.156  0.00  0.00    +0.014 C 
ATOM     22  C   UNL     1       2.579  -2.796  -0.591  0.00  0.00    +0.068 C 
BRANCH  21  27
ATOM     23  C   UNL     1       2.506   1.430  -0.506  0.00  0.00    +0.001 A 
ATOM     24  C   UNL     1       1.445   2.103  -1.087  0.00  0.00    +0.001 A 
ATOM     25  C   UNL     1       0.417   1.400  -1.691  0.00  0.00    +0.016 A 
ATOM     26  C   UNL     1       0.443   0.021  -1.718  0.00  0.00    +0.025 A 
ATOM     27  C   UNL     1       1.512  -0.667  -1.133  0.00  0.00    -0.011 A 
ATOM     28  C   UNL     1       2.546   0.052  -0.524  0.00  0.00    +0.009 A 
ATOM     29 BR   UNL     1      -0.962  -0.938  -2.544  0.00  0.00    -0.050 Br
ENDBRANCH  21  27
ENDBRANCH  17  22
ENDBRANCH   1  19
TORSDOF 5
