REMARK  Name = ZINC20762449
REMARK  8 active torsions:
REMARK  status: ('A' for Active; 'I' for Inactive)
REMARK    1  A    between atoms: C_1  and  C_2
REMARK    2  A    between atoms: C_4  and  C_35
REMARK    3  A    between atoms: C_5  and  N_9
REMARK    4  A    between atoms: C_6  and  C_8
REMARK    5  A    between atoms: C_10  and  C_12
REMARK    6  A    between atoms: N_17  and  S_19
REMARK    7  A    between atoms: S_19  and  C_22
REMARK    8  A    between atoms: C_25  and  C_27
REMARK                            x       y       z     vdW  Elec       q    Type
REMARK                         _______ _______ _______ _____ _____    ______ ____
ROOT
ATOM      1  C   UNL     1      -2.404  -3.880  -2.486  0.00  0.00    +0.091 C 
ATOM      2  C   UNL     1      -2.365  -2.574  -3.283  0.00  0.00    +0.015 C 
ATOM      3  C   UNL     1      -2.977  -1.447  -2.447  0.00  0.00    +0.018 C 
ATOM      4  C   UNL     1      -2.159  -1.260  -1.171  0.00  0.00    +0.109 C 
ATOM      5  N   UNL     1      -2.064  -2.548  -0.470  0.00  0.00    -0.175 NA
ATOM      6  C   UNL     1      -1.574  -3.720  -1.208  0.00  0.00    +0.122 C 
ENDROOT
BRANCH   1   8
ATOM      7  N   UNL     1      -2.402  -5.319  -4.498  0.00  0.00    -0.285 N 
ATOM      8  C   UNL     1      -1.831  -4.996  -3.321  0.00  0.00    +0.222 C 
ATOM      9  O   UNL     1      -0.855  -5.604  -2.934  0.00  0.00    -0.275 OA
ATOM     10  H   UNL     1      -3.333  -4.823  -4.812  0.00  0.00    +0.155 HD
BRANCH   7  15
ATOM     11  C   UNL     1      -0.010  -9.234  -7.834  0.00  0.00    +0.044 C 
ATOM     12  C   UNL     1      -0.646  -8.194  -6.948  0.00  0.00    -0.050 A 
ATOM     13  C   UNL     1       0.109  -7.137  -6.475  0.00  0.00    +0.008 A 
ATOM     14  C   UNL     1      -0.470  -6.182  -5.663  0.00  0.00    -0.029 A 
ATOM     15  C   UNL     1      -1.812  -6.285  -5.321  0.00  0.00    +0.039 A 
ATOM     16  C   UNL     1      -2.566  -7.351  -5.793  0.00  0.00    -0.029 A 
ATOM     17  C   UNL     1      -1.982  -8.300  -6.609  0.00  0.00    +0.008 A 
ATOM     18  C   UNL     1      -4.022  -7.470  -5.420  0.00  0.00    +0.045 C 
ATOM     19  C   UNL     1       0.353  -5.030  -5.147  0.00  0.00    +0.045 C 
ENDBRANCH   7  15
ENDBRANCH   1   8
BRANCH   5  20
ATOM     20  S   UNL     1      -2.509  -2.678   1.120  0.00  0.00    +0.067 S 
ATOM     21  O   UNL     1      -2.849  -4.040   1.337  0.00  0.00    -0.152 OA
ATOM     22  O   UNL     1      -3.418  -1.616   1.375  0.00  0.00    -0.152 OA
BRANCH  20  23
ATOM     23  C   UNL     1      -1.074  -2.356   2.090  0.00  0.00    +0.143 A 
ATOM     24  C   UNL     1      -0.620  -1.171   2.576  0.00  0.00    +0.037 A 
ATOM     25  C   UNL     1       0.539  -1.151   3.321  0.00  0.00    +0.020 A 
ATOM     26  C   UNL     1       1.197  -2.331   3.546  0.00  0.00    +0.041 A 
ATOM     27  S   UNL     1       0.158  -3.502   2.687  0.00  0.00    -0.067 S 
BRANCH  26  28
ATOM     28  C   UNL     1       2.443  -2.572   4.302  0.00  0.00    +0.098 A 
ATOM     29  C   UNL     1       2.956  -3.888   4.418  0.00  0.00    +0.036 A 
ATOM     30  C   UNL     1       4.110  -4.071   5.118  0.00  0.00    +0.073 A 
ATOM     31  C   UNL     1       4.721  -2.935   5.697  0.00  0.00    +0.265 A 
ATOM     32  O   UNL     1       5.753  -3.052   6.337  0.00  0.00    -0.266 OA
ATOM     33  N   UNL     1       4.156  -1.724   5.536  0.00  0.00    -0.243 N 
ATOM     34  H   UNL     1       4.625  -0.835   5.983  0.00  0.00    +0.192 HD
ATOM     35  N   UNL     1       3.071  -1.566   4.869  0.00  0.00    -0.170 NA
ENDBRANCH  26  28
ENDBRANCH  20  23
ENDBRANCH   5  20
TORSDOF 5
