REMARK  Name = ZINC22906236
REMARK  8 active torsions:
REMARK  status: ('A' for Active; 'I' for Inactive)
REMARK    1  A    between atoms: C_1  and  C_2
REMARK    2  A    between atoms: C_2  and  C_4
REMARK    3  A    between atoms: C_2  and  O_24
REMARK    4  A    between atoms: N_6  and  N_7
REMARK    5  A    between atoms: C_8  and  C_10
REMARK    6  A    between atoms: C_14  and  N_16
REMARK    7  A    between atoms: C_17  and  C_19
REMARK    8  A    between atoms: O_24  and  C_25
REMARK                            x       y       z     vdW  Elec       q    Type
REMARK                         _______ _______ _______ _____ _____    ______ ____
ROOT
ATOM      1  N   UNL     1      -1.226   1.692  -0.771  0.00  0.00    -0.230 N 
ATOM      2  C   UNL     1      -2.402   1.033  -0.781  0.00  0.00    +0.260 C 
ATOM      3  O   UNL     1      -2.422  -0.175  -0.648  0.00  0.00    -0.269 OA
ATOM      4  H   UNL     1      -1.208   2.785  -0.891  0.00  0.00    +0.173 HD
ENDROOT
BRANCH   2   5
ATOM      5  C   UNL     1      -3.667   1.780  -0.952  0.00  0.00    +0.040 A 
ATOM      6  C   UNL     1      -3.646   3.167  -1.103  0.00  0.00    +0.013 A 
ATOM      7  C   UNL     1      -4.827   3.862  -1.264  0.00  0.00    +0.003 A 
ATOM      8  C   UNL     1      -6.035   3.188  -1.274  0.00  0.00    +0.023 A 
ATOM      9  C   UNL     1      -6.066   1.807  -1.123  0.00  0.00    +0.034 A 
ATOM     10  C   UNL     1      -4.884   1.099  -0.967  0.00  0.00    +0.036 A 
BRANCH   9  11
ATOM     11  N   UNL     1      -7.290   1.130  -1.133  0.00  0.00    -0.281 N 
ATOM     12  C   UNL     1      -7.474   0.058  -0.338  0.00  0.00    +0.255 C 
ATOM     13  O   UNL     1      -6.549  -0.374   0.325  0.00  0.00    -0.269 OA
ATOM     14  H   UNL     1      -8.102   1.473  -1.791  0.00  0.00    +0.155 HD
BRANCH  12  15
ATOM     15  C   UNL     1      -8.788  -0.589  -0.271  0.00  0.00    +0.074 A 
ATOM     16  C   UNL     1      -9.184  -1.689   0.474  0.00  0.00    +0.021 A 
ATOM     17  C   UNL     1     -10.490  -2.091   0.348  0.00  0.00    +0.008 A 
ATOM     18  C   UNL     1     -11.318  -1.407  -0.485  0.00  0.00    +0.046 A 
ATOM     19  S   UNL     1     -10.296  -0.160  -1.122  0.00  0.00    -0.092 S 
ENDBRANCH  12  15
ENDBRANCH   9  11
ENDBRANCH   2   5
BRANCH   1  22
ATOM     20  C   UNL     1       1.148   1.643  -0.606  0.00  0.00    +0.270 C 
ATOM     21  O   UNL     1       1.169   2.849  -0.738  0.00  0.00    -0.270 OA
ATOM     22  N   UNL     1      -0.028   0.985  -0.610  0.00  0.00    -0.231 N 
ATOM     23  H   UNL     1      -0.047  -0.108  -0.485  0.00  0.00    +0.173 HD
BRANCH  20  25
ATOM     24  C   UNL     1       2.645  -0.041  -1.641  0.00  0.00    +0.062 C 
ATOM     25  C   UNL     1       2.438   0.882  -0.438  0.00  0.00    +0.257 C 
BRANCH  25  26
ATOM     26  O   UNL     1       3.527   1.803  -0.350  0.00  0.00    -0.480 OA
BRANCH  26  27
ATOM     27  C   UNL     1       4.644   1.378   0.297  0.00  0.00    +0.122 A 
ATOM     28  C   UNL     1       4.722   0.054   0.741  0.00  0.00    +0.046 A 
ATOM     29  C   UNL     1       5.826  -0.400   1.392  0.00  0.00    +0.012 A 
ATOM     30  C   UNL     1       6.907   0.469   1.623  0.00  0.00    -0.018 A 
ATOM     31  C   UNL     1       8.063   0.032   2.292  0.00  0.00    +0.008 A 
ATOM     32  C   UNL     1       9.090   0.901   2.498  0.00  0.00    +0.001 A 
ATOM     33  C   UNL     1       9.014   2.220   2.057  0.00  0.00    +0.001 A 
ATOM     34  C   UNL     1       7.911   2.679   1.406  0.00  0.00    +0.008 A 
ATOM     35  C   UNL     1       6.829   1.811   1.174  0.00  0.00    -0.014 A 
ATOM     36  C   UNL     1       5.677   2.248   0.500  0.00  0.00    +0.054 A 
ENDBRANCH  26  27
ENDBRANCH  25  26
ENDBRANCH  20  25
ENDBRANCH   1  22
TORSDOF 7
