REMARK  Name = ZINC09310310
REMARK  5 active torsions:
REMARK  status: ('A' for Active; 'I' for Inactive)
REMARK    1  A    between atoms: C_3  and  N_24
REMARK    2  A    between atoms: C_6  and  C_7
REMARK    3  A    between atoms: C_7  and  O_8
REMARK    4  A    between atoms: O_8  and  C_9
REMARK    5  A    between atoms: C_14  and  C_15
REMARK                            x       y       z     vdW  Elec       q    Type
REMARK                         _______ _______ _______ _____ _____    ______ ____
ROOT
ATOM      1  C   UNL     1      -3.095  -1.500  -1.532  0.00  0.00    +0.128 A 
ATOM      2  C   UNL     1      -3.803  -1.988  -0.447  0.00  0.00    +0.047 A 
ATOM      3  C   UNL     1      -4.740  -2.989  -0.623  0.00  0.00    +0.019 A 
ATOM      4  C   UNL     1      -4.981  -3.512  -1.884  0.00  0.00    +0.019 A 
ATOM      5  C   UNL     1      -4.288  -3.040  -2.977  0.00  0.00    +0.027 A 
ATOM      6  C   UNL     1      -3.338  -2.022  -2.815  0.00  0.00    +0.020 A 
ATOM      7 BR   UNL     1      -6.267  -4.881  -2.105  0.00  0.00    -0.050 Br
ENDROOT
BRANCH   6   8
ATOM      8  C   UNL     1      -2.600  -1.511  -3.972  0.00  0.00    +0.044 C 
ATOM      9  C   UNL     1      -3.251  -1.304  -5.167  0.00  0.00    +0.129 C 
ATOM     10  C   UNL     1      -4.702  -1.390  -5.415  0.00  0.00    +0.268 C 
ATOM     11  O   UNL     1      -5.573  -1.658  -4.608  0.00  0.00    -0.268 OA
ATOM     12  N   UNL     1      -4.860  -1.109  -6.727  0.00  0.00    -0.259 N 
ATOM     13  C   UNL     1      -3.624  -0.865  -7.269  0.00  0.00    +0.172 C 
ATOM     14  S   UNL     1      -3.340  -0.454  -8.959  0.00  0.00    -0.014 SA
ATOM     15  N   UNL     1      -2.685  -0.972  -6.366  0.00  0.00    -0.220 NA
ATOM     16  H   UNL     1      -5.704  -1.083  -7.204  0.00  0.00    +0.157 HD
ENDBRANCH   6   8
BRANCH   1  17
ATOM     17  O   UNL     1      -2.175  -0.517  -1.360  0.00  0.00    -0.487 OA
BRANCH  17  18
ATOM     18  C   UNL     1      -1.981  -0.036  -0.029  0.00  0.00    +0.264 C 
BRANCH  18  24
ATOM     19  C   UNL     1      -1.296   2.365  -0.210  0.00  0.00    +0.009 A 
ATOM     20  C   UNL     1      -0.332   3.355  -0.213  0.00  0.00    +0.033 A 
ATOM     21  C   UNL     1       0.999   3.024  -0.040  0.00  0.00    +0.126 A 
ATOM     22  C   UNL     1       1.365   1.703   0.138  0.00  0.00    +0.033 A 
ATOM     23  C   UNL     1       0.401   0.713   0.143  0.00  0.00    +0.009 A 
ATOM     24  C   UNL     1      -0.930   1.044  -0.032  0.00  0.00    -0.010 A 
BRANCH  21  25
ATOM     25  N   UNL     1       2.032   4.085  -0.044  0.00  0.00    +0.056 N 
ATOM     26  O   UNL     1       1.711   5.240  -0.200  0.00  0.00    -0.126 OA
ATOM     27  O   UNL     1       3.196   3.795   0.108  0.00  0.00    -0.126 OA
ENDBRANCH  21  25
ENDBRANCH  18  24
ENDBRANCH  17  18
ENDBRANCH   1  17
TORSDOF 5
