REMARK  Name = ZINC14466877
REMARK  5 active torsions:
REMARK  status: ('A' for Active; 'I' for Inactive)
REMARK    1  A    between atoms: C_6  and  S_7
REMARK    2  A    between atoms: S_7  and  N_10
REMARK    3  A    between atoms: N_10  and  C_11
REMARK    4  A    between atoms: C_24  and  C_27
REMARK    5  A    between atoms: C_32  and  O_33
REMARK                            x       y       z     vdW  Elec       q    Type
REMARK                         _______ _______ _______ _____ _____    ______ ____
ROOT
ATOM      1  C   UNL     1      -1.611  -5.984  -1.003  0.00  0.00    +0.030 A 
ATOM      2  C   UNL     1      -1.337  -4.636  -1.123  0.00  0.00    +0.025 A 
ATOM      3  C   UNL     1      -0.338  -4.058  -0.351  0.00  0.00    +0.031 A 
ATOM      4  C   UNL     1       0.390  -4.826   0.546  0.00  0.00    -0.018 A 
ATOM      5  C   UNL     1       0.106  -6.179   0.657  0.00  0.00    +0.034 A 
ATOM      6  C   UNL     1      -0.887  -6.753  -0.112  0.00  0.00    +0.106 A 
ATOM      7  C   UNL     1       1.471  -4.246   1.401  0.00  0.00    +0.049 C 
ATOM      8  C   UNL     1       2.841  -4.629   0.894  0.00  0.00    -0.023 C 
ATOM      9  C   UNL     1       3.682  -3.638   1.064  0.00  0.00    -0.030 C 
ATOM     10  C   UNL     1       2.986  -2.458   1.715  0.00  0.00    +0.033 C 
ATOM     11  C   UNL     1       1.483  -2.705   1.395  0.00  0.00    +0.029 C 
ATOM     12  C   UNL     1       1.226  -2.187  -0.023  0.00  0.00    +0.109 C 
ATOM     13  N   UNL     1      -0.070  -2.692  -0.486  0.00  0.00    -0.336 N 
ATOM     14  H   UNL     1      -0.726  -2.093  -0.876  0.00  0.00    +0.147 HD
ENDROOT
BRANCH  12  15
ATOM     15  C   UNL     1       1.207  -0.680  -0.014  0.00  0.00    +0.017 A 
ATOM     16  C   UNL     1       2.268   0.028  -0.546  0.00  0.00    +0.029 A 
ATOM     17  C   UNL     1       2.252   1.411  -0.537  0.00  0.00    +0.043 A 
ATOM     18  C   UNL     1       1.174   2.089   0.004  0.00  0.00    +0.043 A 
ATOM     19  C   UNL     1       0.111   1.385   0.537  0.00  0.00    +0.084 A 
ATOM     20  C   UNL     1       0.126  -0.003   0.530  0.00  0.00    +0.140 A 
ATOM     21 CL   UNL     1      -1.241   2.235   1.217  0.00  0.00    -0.080 Cl
ATOM     22 CL   UNL     1       3.589   2.298  -1.200  0.00  0.00    -0.083 Cl
BRANCH  20  23
ATOM     23  O   UNL     1      -0.918  -0.699   1.054  0.00  0.00    -0.505 OA
ATOM     24  H   UNL     1      -0.824  -0.899   1.996  0.00  0.00    +0.292 HD
ENDBRANCH  20  23
ENDBRANCH  12  15
BRANCH   6  25
ATOM     25  S   UNL     1      -1.232  -8.474   0.044  0.00  0.00    +0.059 S 
ATOM     26  O   UNL     1      -1.835  -8.880  -1.177  0.00  0.00    -0.153 OA
ATOM     27  O   UNL     1      -0.050  -9.082   0.548  0.00  0.00    -0.153 OA
BRANCH  25  28
ATOM     28  N   UNL     1      -2.386  -8.638   1.219  0.00  0.00    -0.187 NA
ATOM     29  H   UNL     1      -2.175  -9.100   2.046  0.00  0.00    +0.148 HD
BRANCH  28  30
ATOM     30  C   UNL     1      -3.727  -8.085   1.011  0.00  0.00    +0.077 C 
ATOM     31  C   UNL     1      -3.808  -6.692   1.639  0.00  0.00    +0.020 C 
ATOM     32  C   UNL     1      -5.208  -6.115   1.421  0.00  0.00    +0.002 C 
ATOM     33  C   UNL     1      -6.244  -7.030   2.076  0.00  0.00    +0.000 C 
ATOM     34  C   UNL     1      -6.164  -8.423   1.449  0.00  0.00    +0.002 C 
ATOM     35  C   UNL     1      -4.763  -9.001   1.667  0.00  0.00    +0.020 C 
ENDBRANCH  28  30
ENDBRANCH  25  28
ENDBRANCH   6  25
TORSDOF 5
