REMARK  Name = ZINC21869360
REMARK  7 active torsions:
REMARK  status: ('A' for Active; 'I' for Inactive)
REMARK    1  A    between atoms: C_1  and  C_2
REMARK    2  A    between atoms: C_5  and  N_9
REMARK    3  A    between atoms: C_7  and  C_8
REMARK    4  A    between atoms: C_10  and  C_12
REMARK    5  A    between atoms: C_15  and  N_18
REMARK    6  A    between atoms: N_18  and  S_19
REMARK    7  A    between atoms: S_19  and  C_22
REMARK                            x       y       z     vdW  Elec       q    Type
REMARK                         _______ _______ _______ _____ _____    ______ ____
ROOT
ATOM      1  C   UNL     1       4.824   1.895  -4.385  0.00  0.00    +0.037 A 
ATOM      2  C   UNL     1       5.442   0.657  -4.588  0.00  0.00    +0.015 A 
ATOM      3  C   UNL     1       5.224  -0.372  -3.701  0.00  0.00    +0.025 A 
ATOM      4  C   UNL     1       4.391  -0.182  -2.602  0.00  0.00    +0.048 A 
ATOM      5  C   UNL     1       3.771   1.048  -2.400  0.00  0.00    +0.025 A 
ATOM      6  C   UNL     1       3.988   2.083  -3.280  0.00  0.00    +0.015 A 
ENDROOT
BRANCH   1   8
ATOM      7  N   UNL     1       4.459   4.193  -5.136  0.00  0.00    -0.281 N 
ATOM      8  C   UNL     1       5.054   3.000  -5.334  0.00  0.00    +0.248 C 
ATOM      9  O   UNL     1       5.782   2.835  -6.294  0.00  0.00    -0.270 OA
ATOM     10  H   UNL     1       3.735   4.317  -4.318  0.00  0.00    +0.155 HD
BRANCH   7  15
ATOM     11  C   UNL     1       5.684   8.571  -8.529  0.00  0.00    +0.044 C 
ATOM     12  C   UNL     1       5.358   7.408  -7.628  0.00  0.00    -0.047 A 
ATOM     13  C   UNL     1       6.333   6.473  -7.328  0.00  0.00    +0.005 A 
ATOM     14  C   UNL     1       6.039   5.409  -6.498  0.00  0.00    +0.023 A 
ATOM     15  C   UNL     1       4.761   5.272  -5.973  0.00  0.00    +0.034 A 
ATOM     16  C   UNL     1       3.785   6.213  -6.276  0.00  0.00    +0.027 A 
ATOM     17  C   UNL     1       4.086   7.277  -7.102  0.00  0.00    -0.046 A 
ATOM     18  C   UNL     1       3.027   8.298  -7.432  0.00  0.00    +0.044 C 
ENDBRANCH   7  15
ENDBRANCH   1   8
BRANCH   4  19
ATOM     19  N   UNL     1       4.174  -1.224  -1.707  0.00  0.00    -0.216 N 
ATOM     20  H   UNL     1       3.214  -1.760  -1.709  0.00  0.00    +0.174 HD
BRANCH  19  21
ATOM     21  S   UNL     1       5.362  -1.658  -0.638  0.00  0.00    +0.072 S 
ATOM     22  O   UNL     1       6.546  -1.846  -1.401  0.00  0.00    -0.150 OA
ATOM     23  O   UNL     1       4.815  -2.681   0.183  0.00  0.00    -0.150 OA
BRANCH  21  24
ATOM     24  C   UNL     1       5.653  -0.272   0.410  0.00  0.00    +0.112 A 
ATOM     25  C   UNL     1       4.858  -0.070   1.523  0.00  0.00    +0.032 A 
ATOM     26  C   UNL     1       5.082   1.017   2.346  0.00  0.00    +0.051 A 
ATOM     27  C   UNL     1       6.104   1.909   2.058  0.00  0.00    +0.162 A 
ATOM     28  C   UNL     1       6.905   1.704   0.940  0.00  0.00    +0.164 A 
ATOM     29  C   UNL     1       6.674   0.612   0.117  0.00  0.00    +0.078 A 
ATOM     30  O   UNL     1       7.919   2.562   0.643  0.00  0.00    -0.485 OA
ATOM     31  C   UNL     1       7.882   3.846   1.277  0.00  0.00    +0.270 C 
ATOM     32  C   UNL     1       7.575   3.638   2.766  0.00  0.00    +0.270 C 
ATOM     33  O   UNL     1       6.308   2.979   2.873  0.00  0.00    -0.485 OA
ENDBRANCH  21  24
ENDBRANCH  19  21
ENDBRANCH   4  19
TORSDOF 5
