REMARK  Name = ZINC12428979
REMARK  5 active torsions:
REMARK  status: ('A' for Active; 'I' for Inactive)
REMARK    1  A    between atoms: C_6  and  C_7
REMARK    2  A    between atoms: C_7  and  C_9
REMARK    3  A    between atoms: C_11  and  C_31
REMARK    4  A    between atoms: C_13  and  C_26
REMARK    5  A    between atoms: C_13  and  C_28
REMARK                            x       y       z     vdW  Elec       q    Type
REMARK                         _______ _______ _______ _____ _____    ______ ____
ROOT
ATOM      1  C   UNL     1       1.272   2.247  -0.003  0.00  0.00    +0.155 C 
ATOM      2  C   UNL     1       1.925   2.237   1.405  0.00  0.00    +0.078 C 
ATOM      3  C   UNL     1       1.437   3.553   2.076  0.00  0.00    +0.163 C 
ATOM      4  C   UNL     1       0.495   4.172   1.041  0.00  0.00    +0.127 C 
ATOM      5  N   UNL     1       1.021   3.670  -0.257  0.00  0.00    -0.310 N 
ATOM      6  C   UNL     1       0.155   4.020  -1.268  0.00  0.00    +0.038 A 
ATOM      7  C   UNL     1      -0.220   3.163  -2.284  0.00  0.00    +0.026 A 
ATOM      8  C   UNL     1      -1.102   3.593  -3.258  0.00  0.00    +0.040 A 
ATOM      9  C   UNL     1      -1.615   4.881  -3.224  0.00  0.00    +0.124 A 
ATOM     10  C   UNL     1      -1.248   5.753  -2.215  0.00  0.00    +0.048 A 
ATOM     11  C   UNL     1      -0.361   5.334  -1.232  0.00  0.00    -0.001 A 
ATOM     12  C   UNL     1       0.072   6.237  -0.140  0.00  0.00    +0.007 C 
ATOM     13  C   UNL     1       0.501   5.670   1.002  0.00  0.00    -0.002 C 
ATOM     14  F   UNL     1      -2.479   5.286  -4.180  0.00  0.00    -0.205 F 
ENDROOT
BRANCH   2  15
ATOM     15  C   UNL     1       1.459   1.039   2.192  0.00  0.00    -0.037 A 
ATOM     16  C   UNL     1       0.112   0.841   2.451  0.00  0.00    +0.024 A 
ATOM     17  C   UNL     1      -0.279  -0.272   3.171  0.00  0.00    +0.111 A 
ATOM     18  N   UNL     1       0.613  -1.133   3.619  0.00  0.00    -0.263 NA
ATOM     19  C   UNL     1       1.903  -0.974   3.396  0.00  0.00    +0.111 A 
ATOM     20  C   UNL     1       2.368   0.112   2.679  0.00  0.00    +0.024 A 
ENDBRANCH   2  15
BRANCH   3  21
ATOM     21  C   UNL     1       2.601   4.470   2.347  0.00  0.00    +0.233 C 
ATOM     22  O   UNL     1       2.737   4.971   3.443  0.00  0.00    -0.274 OA
ATOM     23  N   UNL     1       3.492   4.735   1.371  0.00  0.00    -0.328 N 
ATOM     24  H   UNL     1       3.345   4.394   0.474  0.00  0.00    +0.145 HD
ATOM     25  H   UNL     1       4.280   5.266   1.564  0.00  0.00    +0.145 HD
ENDBRANCH   3  21
BRANCH   1  26
ATOM     26  C   UNL     1      -0.022   1.473   0.006  0.00  0.00    +0.184 C 
ATOM     27  O   UNL     1      -1.081   2.063   0.022  0.00  0.00    -0.290 OA
BRANCH  26  33
ATOM     28  C   UNL     1       1.221  -0.682  -0.038  0.00  0.00    +0.013 A 
ATOM     29  C   UNL     1       1.234  -2.060  -0.047  0.00  0.00    +0.020 A 
ATOM     30  C   UNL     1       0.043  -2.768  -0.038  0.00  0.00    +0.041 A 
ATOM     31  C   UNL     1      -1.169  -2.097  -0.015  0.00  0.00    +0.020 A 
ATOM     32  C   UNL     1      -1.198  -0.719   0.000  0.00  0.00    +0.013 A 
ATOM     33  C   UNL     1       0.001   0.002  -0.009  0.00  0.00    +0.019 A 
ATOM     34 CL   UNL     1       0.070  -4.503  -0.056  0.00  0.00    -0.084 Cl
ENDBRANCH  26  33
ENDBRANCH   1  26
BRANCH   3  35
ATOM     35  C   UNL     1       0.712   3.260   3.324  0.00  0.00    +0.082 C 
ATOM     36  N   UNL     1       0.152   3.034   4.286  0.00  0.00    -0.195 NA
ENDBRANCH   3  35
TORSDOF 5
