REMARK  Name = ZINC21319113
REMARK  11 active torsions:
REMARK  status: ('A' for Active; 'I' for Inactive)
REMARK    1  A    between atoms: C_1  and  O_2
REMARK    2  A    between atoms: O_2  and  C_3
REMARK    3  A    between atoms: C_7  and  C_10
REMARK    4  A    between atoms: C_8  and  O_9
REMARK    5  A    between atoms: N_11  and  N_12
REMARK    6  A    between atoms: C_16  and  S_19
REMARK    7  A    between atoms: N_17  and  N_18
REMARK    8  A    between atoms: S_19  and  C_20
REMARK    9  A    between atoms: C_20  and  C_21
REMARK   10  A    between atoms: N_23  and  C_24
REMARK   11  A    between atoms: C_25  and  C_33
REMARK                            x       y       z     vdW  Elec       q    Type
REMARK                         _______ _______ _______ _____ _____    ______ ____
ROOT
ATOM      1  N   UNL     1      -4.412  13.129  -7.407  0.00  0.00    -0.204 N 
ATOM      2  C   UNL     1      -4.027  12.228  -6.425  0.00  0.00    +0.254 A 
ATOM      3  N   UNL     1      -3.832  12.505  -5.159  0.00  0.00    -0.109 NA
ATOM      4  N   UNL     1      -3.460  11.320  -4.509  0.00  0.00    -0.119 NA
ATOM      5  C   UNL     1      -3.431  10.360  -5.402  0.00  0.00    +0.210 A 
ATOM      6  N   UNL     1      -3.784  10.895  -6.608  0.00  0.00    -0.211 N 
ATOM      7  H   UNL     1      -4.548  12.787  -8.444  0.00  0.00    +0.177 HD
ENDROOT
BRANCH   6   8
ATOM      8  N   UNL     1      -3.877  10.216  -7.790  0.00  0.00    -0.294 N 
ATOM      9  H   UNL     1      -3.658   9.139  -7.825  0.00  0.00    +0.163 HD
ATOM     10  H   UNL     1      -4.171  10.748  -8.708  0.00  0.00    +0.163 HD
ENDBRANCH   6   8
BRANCH   1  12
ATOM     11  C   UNL     1      -4.989  15.317  -7.997  0.00  0.00    +0.142 C 
ATOM     12  N   UNL     1      -4.628  14.473  -7.078  0.00  0.00    -0.187 NA
BRANCH  11  17
ATOM     13  C   UNL     1      -5.262  18.504  -6.017  0.00  0.00    +0.162 A 
ATOM     14  C   UNL     1      -5.648  19.397  -7.006  0.00  0.00    +0.049 A 
ATOM     15  C   UNL     1      -5.817  18.964  -8.310  0.00  0.00    +0.004 A 
ATOM     16  C   UNL     1      -5.605  17.642  -8.638  0.00  0.00    +0.013 A 
ATOM     17  C   UNL     1      -5.217  16.731  -7.651  0.00  0.00    +0.040 A 
ATOM     18  C   UNL     1      -5.050  17.168  -6.331  0.00  0.00    +0.167 A 
BRANCH  13  20
ATOM     19  C   UNL     1      -5.338  20.322  -4.486  0.00  0.00    +0.277 C 
ATOM     20  O   UNL     1      -5.097  18.936  -4.738  0.00  0.00    -0.491 OA
ENDBRANCH  13  20
BRANCH  18  21
ATOM     21  O   UNL     1      -4.678  16.290  -5.363  0.00  0.00    -0.503 OA
ATOM     22  H   UNL     1      -4.511  15.232  -5.615  0.00  0.00    +0.292 HD
ENDBRANCH  18  21
ENDBRANCH  11  17
ENDBRANCH   1  12
BRANCH   5  23
ATOM     23  S   UNL     1      -3.017   8.675  -5.097  0.00  0.00    -0.075 S 
BRANCH  23  24
ATOM     24  C   UNL     1      -2.653   8.627  -3.320  0.00  0.00    +0.173 C 
BRANCH  24  25
ATOM     25  C   UNL     1      -2.279   7.222  -2.922  0.00  0.00    +0.228 C 
ATOM     26  O   UNL     1      -2.260   6.341  -3.755  0.00  0.00    -0.275 OA
ATOM     27  N   UNL     1      -1.965   6.946  -1.641  0.00  0.00    -0.278 N 
ATOM     28  H   UNL     1      -1.982   7.746  -0.886  0.00  0.00    +0.155 HD
BRANCH  27  29
ATOM     29  C   UNL     1      -1.621   5.653  -1.274  0.00  0.00    +0.090 A 
ATOM     30  C   UNL     1      -1.271   5.177  -0.019  0.00  0.00    +0.084 A 
ATOM     31  C   UNL     1      -0.951   3.765   0.100  0.00  0.00    -0.018 A 
ATOM     32  C   UNL     1      -1.032   3.059  -1.049  0.00  0.00    -0.004 A 
ATOM     33  S   UNL     1      -1.524   4.240  -2.273  0.00  0.00    -0.077 S 
ATOM     34  C   UNL     1      -0.761   1.597  -1.232  0.00  0.00    +0.043 C 
ATOM     35  C   UNL     1      -0.013   1.086   0.008  0.00  0.00    +0.005 C 
ATOM     36  C   UNL     1      -0.735   1.583   1.264  0.00  0.00    +0.005 C 
ATOM     37  C   UNL     1      -0.551   3.094   1.407  0.00  0.00    +0.037 C 
BRANCH  30  38
ATOM     38  C   UNL     1      -1.226   6.046   1.118  0.00  0.00    +0.102 C 
ATOM     39  N   UNL     1      -1.191   6.736   2.020  0.00  0.00    -0.191 NA
ENDBRANCH  30  38
ENDBRANCH  27  29
ENDBRANCH  24  25
ENDBRANCH  23  24
ENDBRANCH   5  23
TORSDOF 10
