REMARK  Name = ZINC39667665
REMARK  11 active torsions:
REMARK  status: ('A' for Active; 'I' for Inactive)
REMARK    1  A    between atoms: C_1  and  C_2
REMARK    2  A    between atoms: C_6  and  C_9
REMARK    3  A    between atoms: C_7  and  C_8
REMARK    4  A    between atoms: C_9  and  N_10
REMARK    5  A    between atoms: C_11  and  C_13
REMARK    6  A    between atoms: C_24  and  C_26
REMARK    7  A    between atoms: C_26  and  C_28
REMARK    8  A    between atoms: C_26  and  O_31
REMARK    9  A    between atoms: C_28  and  C_29
REMARK   10  A    between atoms: C_28  and  C_30
REMARK   11  A    between atoms: O_31  and  C_32
REMARK                            x       y       z     vdW  Elec       q    Type
REMARK                         _______ _______ _______ _____ _____    ______ ____
ROOT
ATOM      1  C   UNL     1      -2.901  -3.664   4.846  0.00  0.00    +0.100 C 
ATOM      2  C   UNL     1      -3.853  -4.291   3.803  0.00  0.00    +0.121 C 
ATOM      3  N   UNL     1      -3.949  -5.717   4.193  0.00  0.00    -0.297 N 
ATOM      4  C   UNL     1      -3.994  -5.692   5.675  0.00  0.00    +0.115 C 
ATOM      5  C   UNL     1      -2.999  -4.585   6.074  0.00  0.00    -0.004 C 
ATOM      6  C   UNL     1      -1.635  -5.191   6.390  0.00  0.00    -0.010 C 
ATOM      7  C   UNL     1      -1.746  -6.057   7.648  0.00  0.00    -0.082 C 
ATOM      8  N   UNL     1      -2.210  -5.234   8.771  0.00  0.00    +0.379 N 
ATOM      9  C   UNL     1      -3.562  -4.730   8.498  0.00  0.00    -0.082 C 
ATOM     10  C   UNL     1      -3.527  -3.808   7.276  0.00  0.00    -0.010 C 
ATOM     11  C   UNL     1      -3.986  -6.795   3.384  0.00  0.00    +0.257 C 
ATOM     12  O   UNL     1      -4.066  -7.907   3.859  0.00  0.00    -0.272 OA
ATOM     13  H   UNL     1      -2.224  -5.792   9.612  0.00  0.00    -0.086 HD
ATOM     14  H   UNL     1      -1.581  -4.455   8.898  0.00  0.00    -0.086 HD
ENDROOT
BRANCH   1  16
ATOM     15  N   UNL     1      -0.640  -2.670   4.713  0.00  0.00    -0.311 N 
ATOM     16  C   UNL     1      -1.489  -3.640   4.320  0.00  0.00    +0.218 C 
ATOM     17  O   UNL     1      -1.117  -4.493   3.543  0.00  0.00    -0.275 OA
ATOM     18  H   UNL     1      -0.937  -1.987   5.334  0.00  0.00    +0.149 HD
BRANCH  15  19
ATOM     19  C   UNL     1       0.733  -2.646   4.201  0.00  0.00    +0.139 C 
BRANCH  19  25
ATOM     20  C   UNL     1       3.217  -0.555   8.009  0.00  0.00    +0.044 C 
ATOM     21  C   UNL     1       2.657  -0.470   6.613  0.00  0.00    -0.047 A 
ATOM     22  C   UNL     1       2.817   0.687   5.872  0.00  0.00    +0.003 A 
ATOM     23  C   UNL     1       2.303   0.765   4.592  0.00  0.00    +0.001 A 
ATOM     24  C   UNL     1       1.628  -0.314   4.051  0.00  0.00    +0.005 A 
ATOM     25  C   UNL     1       1.468  -1.471   4.791  0.00  0.00    -0.027 A 
ATOM     26  C   UNL     1       1.987  -1.550   6.070  0.00  0.00    -0.043 A 
ATOM     27  C   UNL     1       1.817  -2.813   6.874  0.00  0.00    +0.044 C 
ENDBRANCH  19  25
ENDBRANCH  15  19
ENDBRANCH   1  16
BRANCH  11  28
ATOM     28  C   UNL     1      -3.928  -6.616   1.889  0.00  0.00    +0.261 C 
BRANCH  28  29
ATOM     29  C   UNL     1      -5.179  -5.875   1.414  0.00  0.00    +0.033 C 
ATOM     30  C   UNL     1      -5.120  -5.693  -0.104  0.00  0.00    +0.011 C 
ATOM     31  C   UNL     1      -6.423  -6.686   1.783  0.00  0.00    +0.011 C 
ENDBRANCH  28  29
BRANCH  28  32
ATOM     32  O   UNL     1      -3.865  -7.897   1.258  0.00  0.00    -0.479 OA
BRANCH  32  33
ATOM     33  C   UNL     1      -3.147  -7.983   0.107  0.00  0.00    +0.122 A 
ATOM     34  C   UNL     1      -2.446  -6.881  -0.359  0.00  0.00    +0.045 A 
ATOM     35  C   UNL     1      -1.717  -6.971  -1.529  0.00  0.00    +0.004 A 
ATOM     36  C   UNL     1      -1.687  -8.159  -2.236  0.00  0.00    +0.000 A 
ATOM     37  C   UNL     1      -2.385  -9.259  -1.774  0.00  0.00    +0.004 A 
ATOM     38  C   UNL     1      -3.111  -9.176  -0.601  0.00  0.00    +0.045 A 
ENDBRANCH  32  33
ENDBRANCH  28  32
ENDBRANCH  11  28
TORSDOF 7
