REMARK  Name = ZINC40893801
REMARK  9 active torsions:
REMARK  status: ('A' for Active; 'I' for Inactive)
REMARK    1  A    between atoms: C_3  and  S_34
REMARK    2  A    between atoms: C_6  and  C_7
REMARK    3  A    between atoms: C_7  and  C_8
REMARK    4  A    between atoms: C_8  and  N_9
REMARK    5  A    between atoms: C_10  and  C_12
REMARK    6  A    between atoms: N_17  and  C_19
REMARK    7  A    between atoms: C_22  and  C_26
REMARK    8  A    between atoms: C_28  and  C_31
REMARK    9  A    between atoms: S_34  and  N_37
REMARK                            x       y       z     vdW  Elec       q    Type
REMARK                         _______ _______ _______ _____ _____    ______ ____
ROOT
ATOM      1  C   UNL     1      -4.889  -2.888  -2.575  0.00  0.00    +0.092 C 
ATOM      2  C   UNL     1      -4.681  -4.227  -1.864  0.00  0.00    +0.016 C 
ATOM      3  C   UNL     1      -6.003  -4.997  -1.826  0.00  0.00    +0.020 C 
ATOM      4  C   UNL     1      -6.468  -5.277  -3.259  0.00  0.00    +0.105 C 
ATOM      5  N   UNL     1      -6.531  -4.006  -3.992  0.00  0.00    -0.327 N 
ATOM      6  C   UNL     1      -5.342  -3.143  -4.016  0.00  0.00    +0.118 C 
ENDROOT
BRANCH   5   7
ATOM      7  C   UNL     1      -7.699  -3.624  -4.654  0.00  0.00    +0.065 A 
ATOM      8  C   UNL     1      -8.661  -2.873  -3.989  0.00  0.00    +0.027 A 
ATOM      9  C   UNL     1      -9.815  -2.494  -4.640  0.00  0.00    +0.013 A 
ATOM     10  C   UNL     1     -10.018  -2.865  -5.969  0.00  0.00    +0.025 A 
ATOM     11  C   UNL     1      -9.053  -3.618  -6.637  0.00  0.00    +0.052 A 
ATOM     12  C   UNL     1      -7.897  -3.991  -5.983  0.00  0.00    +0.145 A 
ATOM     13  F   UNL     1      -6.959  -4.716  -6.630  0.00  0.00    -0.204 F 
BRANCH  10  14
ATOM     14  C   UNL     1     -11.260  -2.459  -6.671  0.00  0.00    +0.202 A 
ATOM     15  N   UNL     1     -11.575  -2.757  -7.945  0.00  0.00    -0.191 NA
ATOM     16  C   UNL     1     -12.735  -2.249  -8.248  0.00  0.00    +0.231 A 
ATOM     17  O   UNL     1     -13.210  -1.603  -7.175  0.00  0.00    -0.337 OA
ATOM     18  N   UNL     1     -12.236  -1.754  -6.152  0.00  0.00    -0.056 NA
BRANCH  16  19
ATOM     19  C   UNL     1     -13.427  -2.367  -9.581  0.00  0.00    +0.078 C 
ATOM     20  C   UNL     1     -14.690  -1.531  -9.799  0.00  0.00    +0.014 C 
ATOM     21  C   UNL     1     -14.798  -3.045  -9.608  0.00  0.00    +0.014 C 
ENDBRANCH  16  19
ENDBRANCH  10  14
ENDBRANCH   5   7
BRANCH   1  23
ATOM     22  N   UNL     1      -3.004  -1.778  -1.420  0.00  0.00    -0.315 N 
ATOM     23  C   UNL     1      -3.594  -2.117  -2.584  0.00  0.00    +0.218 C 
ATOM     24  O   UNL     1      -3.084  -1.801  -3.637  0.00  0.00    -0.275 OA
ATOM     25  H   UNL     1      -3.412  -2.031  -0.578  0.00  0.00    +0.149 HD
BRANCH  22  26
ATOM     26  C   UNL     1      -1.745  -1.028  -1.429  0.00  0.00    +0.109 C 
BRANCH  26  27
ATOM     27  C   UNL     1      -1.293  -0.775   0.011  0.00  0.00    +0.054 C 
BRANCH  27  33
ATOM     28  C   UNL     1      -0.017   1.378   0.010  0.00  0.00    +0.005 A 
ATOM     29  C   UNL     1       1.171   2.086   0.002  0.00  0.00    +0.029 A 
ATOM     30  C   UNL     1       2.377   1.411  -0.013  0.00  0.00    +0.105 A 
ATOM     31  C   UNL     1       2.396   0.029  -0.020  0.00  0.00    +0.029 A 
ATOM     32  C   UNL     1       1.208  -0.679  -0.012  0.00  0.00    +0.005 A 
ATOM     33  C   UNL     1       0.002  -0.004   0.002  0.00  0.00    -0.046 A 
BRANCH  30  34
ATOM     34  S   UNL     1       3.891   2.312  -0.024  0.00  0.00    +0.056 S 
ATOM     35  O   UNL     1       4.872   1.453  -0.588  0.00  0.00    -0.153 OA
ATOM     36  O   UNL     1       3.597   3.593  -0.566  0.00  0.00    -0.153 OA
BRANCH  34  37
ATOM     37  N   UNL     1       4.327   2.556   1.555  0.00  0.00    -0.204 NA
ATOM     38  H   UNL     1       3.768   2.215   2.271  0.00  0.00    +0.144 HD
ATOM     39  H   UNL     1       5.142   3.039   1.764  0.00  0.00    +0.144 HD
ENDBRANCH  34  37
ENDBRANCH  30  34
ENDBRANCH  27  33
ENDBRANCH  26  27
ENDBRANCH  22  26
ENDBRANCH   1  23
TORSDOF 9
