REMARK  Name = ZINC09599725
REMARK  6 active torsions:
REMARK  status: ('A' for Active; 'I' for Inactive)
REMARK    1  A    between atoms: C_1  and  N_2
REMARK    2  A    between atoms: C_3  and  C_5
REMARK    3  A    between atoms: C_9  and  N_10
REMARK    4  A    between atoms: C_11  and  C_13
REMARK    5  A    between atoms: C_16  and  S_19
REMARK    6  A    between atoms: S_19  and  N_22
REMARK                            x       y       z     vdW  Elec       q    Type
REMARK                         _______ _______ _______ _____ _____    ______ ____
ROOT
ATOM      1  C   UNL     1      -2.072   1.445   7.261  0.00  0.00    +0.037 A 
ATOM      2  C   UNL     1      -1.279   0.381   7.695  0.00  0.00    +0.015 A 
ATOM      3  C   UNL     1      -1.284   0.019   9.026  0.00  0.00    +0.029 A 
ATOM      4  C   UNL     1      -2.083   0.700   9.928  0.00  0.00    +0.109 A 
ATOM      5  C   UNL     1      -2.876   1.751   9.504  0.00  0.00    +0.029 A 
ATOM      6  C   UNL     1      -2.875   2.127   8.177  0.00  0.00    +0.015 A 
ENDROOT
BRANCH   1   8
ATOM      7  N   UNL     1      -1.290   1.181   4.957  0.00  0.00    -0.275 N 
ATOM      8  C   UNL     1      -2.066   1.842   5.838  0.00  0.00    +0.249 C 
ATOM      9  O   UNL     1      -2.761   2.766   5.462  0.00  0.00    -0.270 OA
ATOM     10  H   UNL     1      -0.735   0.444   5.256  0.00  0.00    +0.156 HD
BRANCH   7  15
ATOM     11  C   UNL     1      -0.560   1.000   2.575  0.00  0.00    +0.069 A 
ATOM     12  C   UNL     1      -0.734   1.582   1.257  0.00  0.00    -0.023 A 
ATOM     13  C   UNL     1      -1.603   2.617   1.194  0.00  0.00    -0.004 A 
ATOM     14  S   UNL     1      -2.180   2.823   2.855  0.00  0.00    -0.077 S 
ATOM     15  C   UNL     1      -1.284   1.554   3.622  0.00  0.00    +0.085 A 
ATOM     16  C   UNL     1      -1.982   3.407  -0.020  0.00  0.00    +0.043 C 
ATOM     17  C   UNL     1      -0.958   3.113  -1.127  0.00  0.00    +0.005 C 
ATOM     18  C   UNL     1      -0.761   1.598  -1.227  0.00  0.00    +0.005 C 
ATOM     19  C   UNL     1      -0.015   1.088   0.008  0.00  0.00    +0.037 C 
BRANCH  11  22
ATOM     20  C   UNL     1       2.549  -1.033   3.321  0.00  0.00    +0.128 C 
ATOM     21  N   UNL     1       1.641   0.096   3.103  0.00  0.00    -0.314 N 
ATOM     22  C   UNL     1       0.349  -0.129   2.793  0.00  0.00    +0.246 C 
ATOM     23  O   UNL     1      -0.063  -1.270   2.692  0.00  0.00    -0.270 OA
ATOM     24  H   UNL     1       1.969   1.005   3.183  0.00  0.00    +0.149 HD
ENDBRANCH  11  22
ENDBRANCH   7  15
ENDBRANCH   1   8
BRANCH   4  25
ATOM     25  S   UNL     1      -2.090   0.226  11.625  0.00  0.00    +0.075 S 
ATOM     26  O   UNL     1      -0.854  -0.431  11.868  0.00  0.00    -0.150 OA
ATOM     27  O   UNL     1      -2.504   1.367  12.364  0.00  0.00    -0.150 OA
BRANCH  25  28
ATOM     28  N   UNL     1      -3.276  -0.915  11.810  0.00  0.00    -0.203 N 
ATOM     29  C   UNL     1      -4.621  -0.527  12.257  0.00  0.00    +0.132 C 
ATOM     30  C   UNL     1      -5.074  -1.530  13.320  0.00  0.00    +0.025 C 
ATOM     31  C   UNL     1      -5.170  -2.917  12.686  0.00  0.00    +0.038 C 
ATOM     32  C   UNL     1      -3.896  -3.252  11.957  0.00  0.00    -0.025 A 
ATOM     33  C   UNL     1      -3.013  -2.264  11.549  0.00  0.00    +0.054 A 
ATOM     34  C   UNL     1      -1.848  -2.607  10.873  0.00  0.00    +0.025 A 
ATOM     35  C   UNL     1      -1.568  -3.933  10.608  0.00  0.00    +0.002 A 
ATOM     36  C   UNL     1      -2.448  -4.919  11.017  0.00  0.00    +0.000 A 
ATOM     37  C   UNL     1      -3.607  -4.580  11.688  0.00  0.00    +0.005 A 
ENDBRANCH  25  28
ENDBRANCH   4  25
TORSDOF 5
