REMARK  Name = ZINC34681327
REMARK  6 active torsions:
REMARK  status: ('A' for Active; 'I' for Inactive)
REMARK    1  A    between atoms: C_1  and  C_2
REMARK    2  A    between atoms: C_2  and  C_3
REMARK    3  A    between atoms: C_2  and  C_4
REMARK    4  A    between atoms: C_2  and  N_5
REMARK    5  A    between atoms: N_8  and  C_9
REMARK    6  A    between atoms: C_22  and  C_24
REMARK                            x       y       z     vdW  Elec       q    Type
REMARK                         _______ _______ _______ _____ _____    ______ ____
ROOT
ATOM      1  C   UNL     1       2.629   2.265  -2.803  0.00  0.00    +0.051 A 
ATOM      2  C   UNL     1       3.680   2.535  -1.928  0.00  0.00    +0.028 A 
ATOM      3  C   UNL     1       4.974   2.443  -2.405  0.00  0.00    +0.043 A 
ATOM      4  C   UNL     1       5.184   2.086  -3.733  0.00  0.00    +0.099 A 
ATOM      5  N   UNL     1       4.161   1.837  -4.536  0.00  0.00    -0.348 N 
ATOM      6  C   UNL     1       2.913   1.910  -4.112  0.00  0.00    +0.107 A 
ATOM      7  N   UNL     1       6.483   1.990  -4.224  0.00  0.00    -0.315 N 
ATOM      8  C   UNL     1       6.671   1.757  -5.664  0.00  0.00    +0.108 C 
ATOM      9  C   UNL     1       7.784   2.623  -6.260  0.00  0.00    +0.038 C 
ATOM     10  C   UNL     1       7.719   4.027  -5.694  0.00  0.00    +0.109 C 
ATOM     11  N   UNL     1       8.480   4.047  -4.445  0.00  0.00    -0.296 N 
ATOM     12  C   UNL     1       7.974   3.626  -3.186  0.00  0.00    +0.127 C 
ATOM     13  C   UNL     1       7.586   2.131  -3.289  0.00  0.00    +0.125 C 
ATOM     14  C   UNL     1       9.751   4.496  -4.492  0.00  0.00    +0.247 C 
ATOM     15  O   UNL     1      10.393   4.611  -3.466  0.00  0.00    -0.270 OA
ATOM     16  H   UNL     1       4.333   1.591  -5.458  0.00  0.00    +0.167 HD
ENDROOT
BRANCH  14  17
ATOM     17  C   UNL     1      10.362   4.849  -5.790  0.00  0.00    +0.037 A 
ATOM     18  C   UNL     1      10.973   6.092  -5.963  0.00  0.00    +0.014 A 
ATOM     19  C   UNL     1      11.542   6.415  -7.176  0.00  0.00    +0.021 A 
ATOM     20  C   UNL     1      11.509   5.509  -8.223  0.00  0.00    +0.041 A 
ATOM     21  C   UNL     1      10.905   4.274  -8.058  0.00  0.00    +0.021 A 
ATOM     22  C   UNL     1      10.337   3.937  -6.847  0.00  0.00    +0.014 A 
ATOM     23 CL   UNL     1      12.227   5.924  -9.748  0.00  0.00    -0.084 Cl
ENDBRANCH  14  17
BRANCH   1  27
ATOM     24  N   UNL     1      -0.347   3.420  -1.104  0.00  0.00    -0.294 N 
ATOM     25  C   UNL     1       0.947   3.277  -1.454  0.00  0.00    +0.304 C 
ATOM     26  O   UNL     1       1.795   3.989  -0.951  0.00  0.00    -0.252 OA
ATOM     27  N   UNL     1       1.300   2.346  -2.363  0.00  0.00    -0.268 N 
ATOM     28  H   UNL     1      -1.023   2.853  -1.505  0.00  0.00    +0.151 HD
ATOM     29  H   UNL     1       0.635   1.732  -2.711  0.00  0.00    +0.156 HD
BRANCH  24  31
ATOM     30  C   UNL     1      -0.331   5.819  -0.625  0.00  0.00    +0.031 C 
ATOM     31  C   UNL     1      -0.731   4.432  -0.116  0.00  0.00    +0.028 C 
ATOM     32  C   UNL     1      -0.018   4.150   1.208  0.00  0.00    +0.031 C 
ATOM     33  C   UNL     1      -2.245   4.386   0.100  0.00  0.00    +0.031 C 
ENDBRANCH  24  31
ENDBRANCH   1  27
TORSDOF 3
