REMARK  Name = ZINC36017138
REMARK  17 active torsions:
REMARK  status: ('A' for Active; 'I' for Inactive)
REMARK    1  A    between atoms: C_1  and  C_2
REMARK    2  A    between atoms: C_2  and  C_3
REMARK    3  A    between atoms: C_3  and  N_4
REMARK    4  A    between atoms: N_10  and  C_15
REMARK    5  A    between atoms: C_12  and  C_14
REMARK    6  A    between atoms: C_15  and  C_16
REMARK    7  A    between atoms: C_17  and  C_36
REMARK    8  A    between atoms: C_18  and  C_26
REMARK    9  A    between atoms: N_23  and  C_24
REMARK   10  A    between atoms: C_24  and  C_25
REMARK   11  A    between atoms: C_28  and  O_34
REMARK   12  A    between atoms: C_30  and  O_32
REMARK   13  A    between atoms: O_32  and  C_33
REMARK   14  A    between atoms: O_34  and  C_35
REMARK   15  A    between atoms: C_36  and  O_38
REMARK   16  A    between atoms: O_38  and  C_39
REMARK   17  A    between atoms: C_39  and  C_40
REMARK                            x       y       z     vdW  Elec       q    Type
REMARK                         _______ _______ _______ _____ _____    ______ ____
ROOT
ATOM      1  C   UNL     1      -0.617  -8.481   1.860  0.00  0.00    +0.041 C 
ATOM      2  C   UNL     1      -0.251  -9.763   2.079  0.00  0.00    +0.080 C 
ATOM      3  C   UNL     1      -0.570 -10.781   1.004  0.00  0.00    +0.144 C 
ATOM      4  N   UNL     1      -1.259 -10.287  -0.200  0.00  0.00    -0.288 N 
ATOM      5  C   UNL     1      -1.560  -8.975  -0.274  0.00  0.00    +0.307 C 
ATOM      6  O   UNL     1      -2.129  -8.557  -1.263  0.00  0.00    -0.252 OA
ATOM      7  N   UNL     1      -1.259  -8.119   0.710  0.00  0.00    -0.258 N 
ATOM      8  H   UNL     1      -1.490 -10.890  -0.923  0.00  0.00    +0.151 HD
ENDROOT
BRANCH   3   9
ATOM      9  C   UNL     1       0.724 -11.419   0.569  0.00  0.00    -0.016 A 
ATOM     10  C   UNL     1       1.554 -10.760  -0.317  0.00  0.00    +0.051 A 
ATOM     11  C   UNL     1       2.747 -11.345  -0.719  0.00  0.00    +0.124 A 
ATOM     12  C   UNL     1       3.104 -12.593  -0.232  0.00  0.00    +0.091 A 
ATOM     13  C   UNL     1       2.269 -13.252   0.656  0.00  0.00    +0.124 A 
ATOM     14  C   UNL     1       1.080 -12.661   1.060  0.00  0.00    +0.051 A 
BRANCH  13  15
ATOM     15  O   UNL     1       2.616 -14.476   1.135  0.00  0.00    -0.495 OA
ATOM     16  C   UNL     1       3.856 -15.023   0.681  0.00  0.00    +0.277 C 
ENDBRANCH  13  15
BRANCH  11  17
ATOM     17  O   UNL     1       3.563 -10.696  -1.590  0.00  0.00    -0.495 OA
ATOM     18  C   UNL     1       4.774 -11.358  -1.961  0.00  0.00    +0.277 C 
ENDBRANCH  11  17
ENDBRANCH   3   9
BRANCH   7  19
ATOM     19  C   UNL     1      -1.632  -6.712   0.541  0.00  0.00    +0.111 C 
ATOM     20  C   UNL     1      -0.534  -5.982  -0.234  0.00  0.00    +0.025 C 
ENDBRANCH   7  19
BRANCH   2  21
ATOM     21  C   UNL     1       0.409 -10.141   3.271  0.00  0.00    +0.339 C 
ATOM     22  O   UNL     1       0.547  -9.335   4.173  0.00  0.00    -0.245 OA
BRANCH  21  23
ATOM     23  O   UNL     1       0.887 -11.395   3.410  0.00  0.00    -0.462 OA
BRANCH  23  24
ATOM     24  C   UNL     1       1.542 -11.708   4.640  0.00  0.00    +0.229 C 
ATOM     25  C   UNL     1       2.012 -13.164   4.612  0.00  0.00    +0.048 C 
ENDBRANCH  23  24
ENDBRANCH  21  23
ENDBRANCH   2  21
BRANCH   1  26
ATOM     26  C   UNL     1      -0.318  -7.436   2.903  0.00  0.00    +0.136 C 
BRANCH  26  33
ATOM     27  N   UNL     1      -3.611  -7.920   8.051  0.00  0.00    -0.299 N 
ATOM     28  C   UNL     1      -3.404  -6.805   7.322  0.00  0.00    +0.303 C 
ATOM     29  O   UNL     1      -3.507  -5.711   7.842  0.00  0.00    -0.253 OA
ATOM     30  N   UNL     1      -3.082  -6.904   6.017  0.00  0.00    -0.280 N 
ATOM     31  C   UNL     1      -3.087  -8.206   5.334  0.00  0.00    +0.125 C 
ATOM     32  C   UNL     1      -1.747  -8.384   4.613  0.00  0.00    +0.104 C 
ATOM     33  N   UNL     1      -1.506  -7.226   3.741  0.00  0.00    -0.294 NA
ATOM     34  C   UNL     1      -1.389  -5.987   4.521  0.00  0.00    +0.107 C 
ATOM     35  C   UNL     1      -2.721  -5.710   5.236  0.00  0.00    +0.088 C 
ATOM     36  C   UNL     1      -2.563  -4.511   6.173  0.00  0.00    +0.029 C 
ATOM     37  H   UNL     1      -3.601  -8.789   7.621  0.00  0.00    +0.150 HD
BRANCH  27  38
ATOM     38  C   UNL     1      -3.850  -7.818   9.493  0.00  0.00    +0.105 C 
BRANCH  38  40
ATOM     39  C   UNL     1      -4.302  -9.112  11.582  0.00  0.00    +0.005 C 
ATOM     40  C   UNL     1      -4.053  -9.218  10.076  0.00  0.00    +0.015 C 
ENDBRANCH  38  40
ENDBRANCH  27  38
ENDBRANCH  26  33
ENDBRANCH   1  26
TORSDOF 11
