REMARK  Name = ZINC16734677
REMARK  8 active torsions:
REMARK  status: ('A' for Active; 'I' for Inactive)
REMARK    1  A    between atoms: C_1  and  C_2
REMARK    2  A    between atoms: C_5  and  C_8
REMARK    3  A    between atoms: C_8  and  N_9
REMARK    4  A    between atoms: N_9  and  C_10
REMARK    5  A    between atoms: C_11  and  C_22
REMARK    6  A    between atoms: C_16  and  C_21
REMARK    7  A    between atoms: N_26  and  C_30
REMARK    8  A    between atoms: C_30  and  C_31
REMARK                            x       y       z     vdW  Elec       q    Type
REMARK                         _______ _______ _______ _____ _____    ______ ____
ROOT
ATOM      1  C   UNL     1       6.036   3.330   6.366  0.00  0.00    +0.134 A 
ATOM      2  C   UNL     1       5.686   2.346   5.412  0.00  0.00    +0.081 A 
ATOM      3  C   UNL     1       5.867   0.985   5.753  0.00  0.00    +0.267 A 
ATOM      4  O   UNL     1       5.575   0.103   4.963  0.00  0.00    -0.267 OA
ATOM      5  N   UNL     1       6.374   0.678   6.967  0.00  0.00    -0.267 N 
ATOM      6  C   UNL     1       6.556  -0.630   7.303  0.00  0.00    +0.099 A 
ATOM      7  C   UNL     1       7.057  -0.972   8.511  0.00  0.00    -0.034 A 
ATOM      8  C   UNL     1       7.396   0.023   9.438  0.00  0.00    +0.008 A 
ATOM      9  C   UNL     1       7.217   1.335   9.112  0.00  0.00    +0.047 A 
ATOM     10  C   UNL     1       6.695   1.671   7.850  0.00  0.00    +0.142 A 
ATOM     11  N   UNL     1       6.524   2.957   7.540  0.00  0.00    -0.214 NA
ATOM     12  C   UNL     1       7.250  -2.425   8.863  0.00  0.00    +0.045 C 
ENDROOT
BRANCH   2  13
ATOM     13  C   UNL     1       5.163   2.714   4.150  0.00  0.00    +0.037 C 
ATOM     14  C   UNL     1       5.866   3.557   3.339  0.00  0.00    +0.077 C 
ATOM     15  C   UNL     1       5.485   4.151   2.102  0.00  0.00    +0.259 C 
ATOM     16  O   UNL     1       4.390   3.933   1.613  0.00  0.00    -0.269 OA
ATOM     17  N   UNL     1       6.355   4.940   1.496  0.00  0.00    -0.248 N 
ATOM     18  C   UNL     1       7.567   5.186   2.041  0.00  0.00    +0.121 C 
ATOM     19  S   UNL     1       8.834   6.170   1.443  0.00  0.00    -0.027 S 
ATOM     20  S   UNL     1       7.512   4.223   3.545  0.00  0.00    -0.061 S 
BRANCH  17  21
ATOM     21  C   UNL     1       5.998   5.563   0.219  0.00  0.00    +0.189 C 
BRANCH  21  22
ATOM     22  C   UNL     1       6.413   4.660  -0.913  0.00  0.00    +0.122 A 
ATOM     23  C   UNL     1       5.656   3.698  -1.471  0.00  0.00    +0.046 A 
ATOM     24  C   UNL     1       6.435   3.103  -2.490  0.00  0.00    +0.041 A 
ATOM     25  C   UNL     1       7.622   3.736  -2.494  0.00  0.00    +0.195 A 
ATOM     26  O   UNL     1       7.603   4.678  -1.537  0.00  0.00    -0.466 OA
ENDBRANCH  21  22
ENDBRANCH  17  21
ENDBRANCH   2  13
BRANCH   1  27
ATOM     27  N   UNL     1       5.871   4.667   6.077  0.00  0.00    -0.324 N 
ATOM     28  H   UNL     1       5.513   4.936   5.216  0.00  0.00    +0.148 HD
BRANCH  27  29
ATOM     29  C   UNL     1       6.235   5.681   7.069  0.00  0.00    +0.138 C 
BRANCH  29  34
ATOM     30  C   UNL     1       5.177  10.942   4.924  0.00  0.00    +0.044 C 
ATOM     31  C   UNL     1       5.453   9.570   5.484  0.00  0.00    -0.050 A 
ATOM     32  C   UNL     1       4.470   8.900   6.188  0.00  0.00    +0.003 A 
ATOM     33  C   UNL     1       4.723   7.642   6.701  0.00  0.00    +0.005 A 
ATOM     34  C   UNL     1       5.959   7.053   6.510  0.00  0.00    -0.030 A 
ATOM     35  C   UNL     1       6.944   7.725   5.809  0.00  0.00    +0.005 A 
ATOM     36  C   UNL     1       6.689   8.982   5.293  0.00  0.00    +0.003 A 
ENDBRANCH  29  34
ENDBRANCH  27  29
ENDBRANCH   1  27
TORSDOF 6
