REMARK  Name = ZINC03840838
REMARK  12 active torsions:
REMARK  status: ('A' for Active; 'I' for Inactive)
REMARK    1  A    between atoms: C_1  and  C_2
REMARK    2  A    between atoms: C_5  and  S_8
REMARK    3  A    between atoms: S_8  and  N_11
REMARK    4  A    between atoms: C_18  and  C_41
REMARK    5  A    between atoms: C_21  and  C_31
REMARK    6  A    between atoms: C_23  and  O_30
REMARK    7  A    between atoms: C_27  and  C_29
REMARK    8  A    between atoms: C_31  and  C_33
REMARK    9  A    between atoms: C_31  and  C_34
REMARK   10  A    between atoms: N_36  and  C_37
REMARK   11  A    between atoms: N_36  and  C_38
REMARK   12  A    between atoms: C_38  and  C_39
REMARK                            x       y       z     vdW  Elec       q    Type
REMARK                         _______ _______ _______ _____ _____    ______ ____
ROOT
ATOM      1  N   UNL     1      -7.959  -1.804  -4.712  0.00  0.00    -0.194 N 
ATOM      2  C   UNL     1      -6.623  -1.598  -5.018  0.00  0.00    +0.178 A 
ATOM      3  N   UNL     1      -5.611  -2.436  -4.918  0.00  0.00    -0.228 NA
ATOM      4  C   UNL     1      -4.370  -2.091  -5.255  0.00  0.00    +0.057 A 
ATOM      5  C   UNL     1      -4.205  -0.821  -5.704  0.00  0.00    +0.015 A 
ATOM      6  S   UNL     1      -5.851  -0.166  -5.630  0.00  0.00    -0.056 S 
ATOM      7  C   UNL     1      -2.944  -0.163  -6.144  0.00  0.00    +0.051 C 
ATOM      8  C   UNL     1      -1.875  -1.246  -6.377  0.00  0.00    -0.022 C 
ATOM      9  C   UNL     1      -0.504  -0.555  -6.413  0.00  0.00    +0.008 C 
ATOM     10  C   UNL     1      -0.323   0.250  -5.124  0.00  0.00    +0.007 C 
ATOM     11  C   UNL     1      -0.386  -0.684  -3.915  0.00  0.00    +0.029 C 
ATOM     12  C   UNL     1      -1.732  -1.413  -3.893  0.00  0.00    +0.123 C 
ATOM     13  C   UNL     1      -1.888  -2.212  -5.186  0.00  0.00    +0.033 C 
ATOM     14  C   UNL     1      -3.174  -3.031  -5.162  0.00  0.00    +0.042 C 
ATOM     15  C   UNL     1      -3.188  -3.995  -6.349  0.00  0.00    +0.014 C 
ATOM     16  C   UNL     1      -2.139  -1.988  -7.689  0.00  0.00    +0.012 C 
ATOM     17  H   UNL     1      -8.252  -2.665  -4.373  0.00  0.00    +0.176 HD
ENDROOT
BRANCH   1  18
ATOM     18  S   UNL     1      -9.055  -0.582  -4.923  0.00  0.00    +0.074 S 
ATOM     19  O   UNL     1     -10.323  -1.105  -4.553  0.00  0.00    -0.150 OA
ATOM     20  O   UNL     1      -8.499   0.574  -4.310  0.00  0.00    -0.150 OA
BRANCH  18  25
ATOM     21  C   UNL     1      -9.325   0.568 -10.840  0.00  0.00    +0.044 C 
ATOM     22  C   UNL     1      -9.258   0.281  -9.363  0.00  0.00    -0.050 A 
ATOM     23  C   UNL     1     -10.104  -0.657  -8.801  0.00  0.00    +0.005 A 
ATOM     24  C   UNL     1     -10.042  -0.921  -7.446  0.00  0.00    +0.029 A 
ATOM     25  C   UNL     1      -9.134  -0.246  -6.651  0.00  0.00    +0.109 A 
ATOM     26  C   UNL     1      -8.292   0.696  -7.212  0.00  0.00    +0.029 A 
ATOM     27  C   UNL     1      -8.350   0.956  -8.568  0.00  0.00    +0.005 A 
ENDBRANCH  18  25
ENDBRANCH   1  18
BRANCH  12  28
ATOM     28  O   UNL     1      -1.775  -2.302  -2.775  0.00  0.00    -0.391 OA
ATOM     29  H   UNL     1      -1.768  -1.856  -1.917  0.00  0.00    +0.210 HD
ENDBRANCH  12  28
BRANCH  11  30
ATOM     30  C   UNL     1      -0.230   0.135  -2.631  0.00  0.00    +0.078 C 
ATOM     31  C   UNL     1      -1.264   1.262  -2.617  0.00  0.00    +0.017 C 
BRANCH  30  32
ATOM     32  C   UNL     1       1.156   0.724  -2.576  0.00  0.00    +0.219 C 
ATOM     33  O   UNL     1       1.876   0.674  -3.552  0.00  0.00    -0.275 OA
ATOM     34  N   UNL     1       1.596   1.307  -1.444  0.00  0.00    -0.301 N 
ATOM     35  C   UNL     1       0.727   1.368  -0.266  0.00  0.00    +0.132 C 
BRANCH  34  36
ATOM     36  C   UNL     1       2.944   1.880  -1.391  0.00  0.00    +0.134 C 
BRANCH  36  37
ATOM     37  C   UNL     1       3.919   0.828  -0.929  0.00  0.00    -0.016 C 
ATOM     38  C   UNL     1       4.971   0.546  -1.656  0.00  0.00    +0.005 C 
ENDBRANCH  36  37
ENDBRANCH  34  36
ENDBRANCH  30  32
ENDBRANCH  11  30
TORSDOF 7
