REMARK  Name = ZINC67064052
REMARK  5 active torsions:
REMARK  status: ('A' for Active; 'I' for Inactive)
REMARK    1  A    between atoms: C_3  and  C_11
REMARK    2  A    between atoms: N_19  and  C_20
REMARK    3  A    between atoms: C_20  and  C_21
REMARK    4  A    between atoms: N_23  and  C_24
REMARK    5  A    between atoms: C_24  and  C_25
REMARK                            x       y       z     vdW  Elec       q    Type
REMARK                         _______ _______ _______ _____ _____    ______ ____
ROOT
ATOM      1  C   UNL     1       3.670   2.195  -0.023  0.00  0.00    +0.111 C 
ATOM      2  C   UNL     1       4.260   2.248   1.401  0.00  0.00    +0.029 C 
ATOM      3  C   UNL     1       4.833   3.687   1.486  0.00  0.00    +0.021 C 
ATOM      4  C   UNL     1       3.795   4.485   0.658  0.00  0.00    +0.110 C 
ATOM      5  N   UNL     1       3.417   3.580  -0.447  0.00  0.00    -0.278 N 
ATOM      6  C   UNL     1       2.922   3.958  -1.642  0.00  0.00    +0.303 C 
ATOM      7  O   UNL     1       2.645   3.120  -2.478  0.00  0.00    -0.253 OA
ATOM      8  N   UNL     1       2.735   5.266  -1.911  0.00  0.00    -0.291 N 
ATOM      9  H   UNL     1       2.956   5.934  -1.244  0.00  0.00    +0.151 HD
ENDROOT
BRANCH   1  12
ATOM     10  C   UNL     1      -0.017   1.378   0.010  0.00  0.00    +0.004 A 
ATOM     11  C   UNL     1       1.170   2.088   0.002  0.00  0.00    +0.009 A 
ATOM     12  C   UNL     1       2.378   1.418  -0.014  0.00  0.00    +0.018 A 
ATOM     13  C   UNL     1       2.404   0.031  -0.023  0.00  0.00    +0.167 A 
ATOM     14  C   UNL     1       1.212  -0.683  -0.013  0.00  0.00    +0.162 A 
ATOM     15  C   UNL     1       0.002  -0.004   0.002  0.00  0.00    +0.049 A 
ATOM     16  O   UNL     1       1.214  -2.044  -0.013  0.00  0.00    -0.485 OA
ATOM     17  C   UNL     1       2.434  -2.685  -0.404  0.00  0.00    +0.270 C 
ATOM     18  C   UNL     1       3.594  -1.997   0.328  0.00  0.00    +0.270 C 
ATOM     19  O   UNL     1       3.602  -0.615  -0.043  0.00  0.00    -0.485 OA
ENDBRANCH   1  12
BRANCH   8  20
ATOM     20  C   UNL     1       2.198   5.677  -3.210  0.00  0.00    +0.201 C 
BRANCH  20  21
ATOM     21  C   UNL     1       2.087   7.179  -3.255  0.00  0.00    +0.231 C 
ATOM     22  O   UNL     1       2.423   7.841  -2.296  0.00  0.00    -0.274 OA
ATOM     23  N   UNL     1       1.613   7.787  -4.361  0.00  0.00    -0.307 N 
ATOM     24  H   UNL     1       1.344   7.257  -5.128  0.00  0.00    +0.149 HD
BRANCH  23  25
ATOM     25  C   UNL     1       1.505   9.247  -4.405  0.00  0.00    +0.178 C 
BRANCH  25  26
ATOM     26  C   UNL     1       0.952   9.670  -5.741  0.00  0.00    +0.122 A 
ATOM     27  C   UNL     1      -0.350   9.833  -6.038  0.00  0.00    +0.046 A 
ATOM     28  C   UNL     1      -0.414  10.232  -7.393  0.00  0.00    +0.041 A 
ATOM     29  C   UNL     1       0.853  10.290  -7.843  0.00  0.00    +0.195 A 
ATOM     30  O   UNL     1       1.676   9.954  -6.836  0.00  0.00    -0.466 OA
ENDBRANCH  25  26
ENDBRANCH  23  25
ENDBRANCH  20  21
ENDBRANCH   8  20
TORSDOF 5
