REMARK  Name = ZINC48271078
REMARK  9 active torsions:
REMARK  status: ('A' for Active; 'I' for Inactive)
REMARK    1  A    between atoms: C_1  and  C_2
REMARK    2  A    between atoms: C_5  and  N_25
REMARK    3  A    between atoms: C_7  and  N_8
REMARK    4  A    between atoms: N_11  and  C_12
REMARK    5  A    between atoms: C_12  and  C_14
REMARK    6  A    between atoms: C_12  and  C_15
REMARK    7  A    between atoms: C_18  and  O_21
REMARK    8  A    between atoms: O_21  and  C_22
REMARK    9  A    between atoms: C_26  and  C_28
REMARK                            x       y       z     vdW  Elec       q    Type
REMARK                         _______ _______ _______ _____ _____    ______ ____
ROOT
ATOM      1  N   UNL     1       0.436  -0.233   2.349  0.00  0.00    -0.269 N 
ATOM      2  C   UNL     1       0.824  -0.933   3.433  0.00  0.00    +0.304 C 
ATOM      3  O   UNL     1       1.081  -2.118   3.332  0.00  0.00    -0.252 OA
ATOM      4  N   UNL     1       0.926  -0.321   4.630  0.00  0.00    -0.293 N 
ATOM      5  H   UNL     1       0.292   0.724   2.416  0.00  0.00    +0.156 HD
ATOM      6  H   UNL     1       0.721   0.623   4.710  0.00  0.00    +0.151 HD
ENDROOT
BRANCH   1  13
ATOM      7  C   UNL     1      -1.443   0.870   0.522  0.00  0.00    +0.045 C 
ATOM      8  C   UNL     1      -0.665  -0.382   0.205  0.00  0.00    -0.029 A 
ATOM      9  C   UNL     1      -0.853  -1.022  -1.005  0.00  0.00    +0.007 A 
ATOM     10  C   UNL     1      -0.142  -2.170  -1.300  0.00  0.00    +0.024 A 
ATOM     11  C   UNL     1       0.764  -2.683  -0.379  0.00  0.00    +0.035 A 
ATOM     12  C   UNL     1       0.954  -2.042   0.836  0.00  0.00    +0.047 A 
ATOM     13  C   UNL     1       0.243  -0.886   1.126  0.00  0.00    +0.039 A 
BRANCH  11  14
ATOM     14  N   UNL     1       1.483  -3.846  -0.678  0.00  0.00    -0.286 N 
ATOM     15  C   UNL     1       1.895  -4.077  -1.940  0.00  0.00    +0.214 C 
ATOM     16  O   UNL     1       1.574  -3.321  -2.832  0.00  0.00    -0.276 OA
ATOM     17  C   UNL     1       2.756  -5.277  -2.243  0.00  0.00    +0.109 C 
ATOM     18  H   UNL     1       1.684  -4.485   0.023  0.00  0.00    +0.155 HD
ENDBRANCH  11  14
ENDBRANCH   1  13
BRANCH   4  19
ATOM     19  C   UNL     1       1.347  -1.083   5.808  0.00  0.00    +0.102 C 
ATOM     20  C   UNL     1       2.876  -1.129   5.866  0.00  0.00    +0.033 C 
BRANCH  19  21
ATOM     21  C   UNL     1       0.818  -0.417   7.052  0.00  0.00    -0.027 A 
ATOM     22  C   UNL     1       0.817   0.963   7.149  0.00  0.00    +0.009 A 
ATOM     23  C   UNL     1       0.333   1.575   8.289  0.00  0.00    +0.046 A 
ATOM     24  C   UNL     1      -0.154   0.806   9.335  0.00  0.00    +0.127 A 
ATOM     25  C   UNL     1      -0.152  -0.578   9.235  0.00  0.00    +0.046 A 
ATOM     26  C   UNL     1       0.328  -1.186   8.092  0.00  0.00    +0.009 A 
BRANCH  24  27
ATOM     27  O   UNL     1      -0.631   1.407  10.457  0.00  0.00    -0.434 OA
BRANCH  27  28
ATOM     28  C   UNL     1      -1.115   0.552  11.495  0.00  0.00    +0.541 C 
ATOM     29  F   UNL     1      -2.173  -0.223  11.005  0.00  0.00    -0.166 F 
ATOM     30  F   UNL     1      -0.084  -0.288  11.928  0.00  0.00    -0.166 F 
ENDBRANCH  27  28
ENDBRANCH  24  27
ENDBRANCH  19  21
ENDBRANCH   4  19
TORSDOF 6
