REMARK  Name = ZINC04258889
REMARK  3 active torsions:
REMARK  status: ('A' for Active; 'I' for Inactive)
REMARK    1  A    between atoms: C_4  and  N_7
REMARK    2  A    between atoms: N_10  and  C_11
REMARK    3  A    between atoms: C_27  and  C_29
REMARK                            x       y       z     vdW  Elec       q    Type
REMARK                         _______ _______ _______ _____ _____    ______ ____
ROOT
ATOM      1  C   UNL     1       1.153   1.310  -1.765  0.00  0.00    +0.100 A 
ATOM      2  C   UNL     1       1.763   0.119  -1.481  0.00  0.00    +0.030 A 
ATOM      3  C   UNL     1       3.018   0.134  -0.861  0.00  0.00    +0.024 A 
ATOM      4  C   UNL     1       3.612   1.310  -0.528  0.00  0.00    +0.027 A 
ATOM      5  N   UNL     1       2.972   2.487  -0.730  0.00  0.00    -0.310 N 
ATOM      6  C   UNL     1       1.788   2.509  -1.391  0.00  0.00    +0.273 A 
ATOM      7  O   UNL     1       1.269   3.579  -1.665  0.00  0.00    -0.266 OA
ATOM      8  C   UNL     1       3.476   3.768  -0.232  0.00  0.00    +0.130 C 
ATOM      9  C   UNL     1       4.959   3.724   0.085  0.00  0.00    +0.027 C 
ATOM     10  C   UNL     1       5.279   2.474   0.906  0.00  0.00    +0.018 C 
ATOM     11  C   UNL     1       5.013   1.243   0.035  0.00  0.00    +0.054 C 
ATOM     12  C   UNL     1       5.994   1.267  -1.149  0.00  0.00    +0.117 C 
ATOM     13  N   UNL     1       5.750   2.512  -1.896  0.00  0.00    -0.297 N 
ATOM     14  C   UNL     1       5.815   3.787  -1.172  0.00  0.00    +0.113 C 
ATOM     15  C   UNL     1       5.473   2.482  -3.214  0.00  0.00    +0.247 C 
ATOM     16  O   UNL     1       5.489   1.424  -3.814  0.00  0.00    -0.270 OA
ENDROOT
BRANCH  15  17
ATOM     17  C   UNL     1       5.151   3.733  -3.931  0.00  0.00    +0.037 A 
ATOM     18  C   UNL     1       5.774   4.936  -3.550  0.00  0.00    +0.013 A 
ATOM     19  C   UNL     1       5.495   6.098  -4.193  0.00  0.00    +0.009 A 
ATOM     20  C   UNL     1       4.572   6.111  -5.255  0.00  0.00    -0.018 A 
ATOM     21  C   UNL     1       4.268   7.301  -5.936  0.00  0.00    +0.008 A 
ATOM     22  C   UNL     1       3.371   7.283  -6.960  0.00  0.00    +0.001 A 
ATOM     23  C   UNL     1       2.748   6.098  -7.347  0.00  0.00    +0.001 A 
ATOM     24  C   UNL     1       3.017   4.925  -6.712  0.00  0.00    +0.008 A 
ATOM     25  C   UNL     1       3.938   4.905  -5.649  0.00  0.00    -0.017 A 
ATOM     26  C   UNL     1       4.242   3.712  -4.976  0.00  0.00    +0.021 A 
ENDBRANCH  15  17
BRANCH   1  30
ATOM     27  N   UNL     1      -2.316   2.035  -2.484  0.00  0.00    -0.269 N 
ATOM     28  C   UNL     1      -1.147   1.926  -1.822  0.00  0.00    +0.308 C 
ATOM     29  O   UNL     1      -1.048   2.357  -0.689  0.00  0.00    -0.252 OA
ATOM     30  N   UNL     1      -0.090   1.336  -2.414  0.00  0.00    -0.265 N 
ATOM     31  H   UNL     1      -2.416   1.634  -3.362  0.00  0.00    +0.156 HD
ATOM     32  H   UNL     1      -0.189   0.928  -3.289  0.00  0.00    +0.157 HD
BRANCH  27  36
ATOM     33  C   UNL     1      -5.501   4.095  -0.761  0.00  0.00    +0.000 A 
ATOM     34  C   UNL     1      -5.302   4.151  -2.129  0.00  0.00    +0.002 A 
ATOM     35  C   UNL     1      -4.247   3.469  -2.703  0.00  0.00    +0.023 A 
ATOM     36  C   UNL     1      -3.386   2.727  -1.906  0.00  0.00    +0.035 A 
ATOM     37  C   UNL     1      -3.592   2.668  -0.533  0.00  0.00    +0.023 A 
ATOM     38  C   UNL     1      -4.646   3.357   0.035  0.00  0.00    +0.002 A 
ENDBRANCH  27  36
ENDBRANCH   1  30
TORSDOF 3
