REMARK  Name = ZINC14276648
REMARK  6 active torsions:
REMARK  status: ('A' for Active; 'I' for Inactive)
REMARK    1  A    between atoms: C_4  and  C_7
REMARK    2  A    between atoms: N_12  and  C_15
REMARK    3  A    between atoms: C_18  and  N_21
REMARK    4  A    between atoms: N_21  and  C_22
REMARK    5  A    between atoms: C_22  and  N_24
REMARK    6  A    between atoms: C_25  and  C_27
REMARK                            x       y       z     vdW  Elec       q    Type
REMARK                         _______ _______ _______ _____ _____    ______ ____
ROOT
ATOM      1  C   UNL     1       9.425  -3.862   2.358  0.00  0.00    +0.030 A 
ATOM      2  C   UNL     1       8.211  -4.091   2.991  0.00  0.00    +0.025 A 
ATOM      3  C   UNL     1       7.467  -3.028   3.462  0.00  0.00    +0.025 A 
ATOM      4  C   UNL     1       7.933  -1.730   3.303  0.00  0.00    +0.033 A 
ATOM      5  C   UNL     1       9.145  -1.500   2.665  0.00  0.00    +0.025 A 
ATOM      6  C   UNL     1       9.891  -2.564   2.198  0.00  0.00    +0.025 A 
ENDROOT
BRANCH   1  12
ATOM      7  C   UNL     1      13.504  -7.294   1.788  0.00  0.00    +0.247 C 
ATOM      8  O   UNL     1      14.485  -6.864   1.212  0.00  0.00    -0.270 OA
ATOM      9  N   UNL     1      12.300  -6.724   1.585  0.00  0.00    -0.295 N 
ATOM     10  C   UNL     1      12.128  -5.660   0.583  0.00  0.00    +0.127 C 
ATOM     11  C   UNL     1      11.422  -4.474   1.249  0.00  0.00    +0.124 C 
ATOM     12  N   UNL     1      10.180  -4.940   1.881  0.00  0.00    -0.327 N 
ATOM     13  C   UNL     1      10.457  -5.904   2.954  0.00  0.00    +0.124 C 
ATOM     14  C   UNL     1      11.123  -7.149   2.358  0.00  0.00    +0.127 C 
BRANCH   7  18
ATOM     15  C   UNL     1      13.872 -10.591   4.440  0.00  0.00    +0.000 A 
ATOM     16  C   UNL     1      14.897  -9.666   4.346  0.00  0.00    +0.001 A 
ATOM     17  C   UNL     1      14.784  -8.593   3.486  0.00  0.00    +0.013 A 
ATOM     18  C   UNL     1      13.633  -8.441   2.711  0.00  0.00    +0.037 A 
ATOM     19  C   UNL     1      12.601  -9.375   2.816  0.00  0.00    +0.013 A 
ATOM     20  C   UNL     1      12.729 -10.447   3.675  0.00  0.00    +0.001 A 
ENDBRANCH   7  18
ENDBRANCH   1  12
BRANCH   4  21
ATOM     21  N   UNL     1       7.177  -0.651   3.780  0.00  0.00    -0.297 N 
ATOM     22  H   UNL     1       7.048   0.134   3.225  0.00  0.00    +0.154 HD
BRANCH  21  23
ATOM     23  C   UNL     1       6.630  -0.703   5.011  0.00  0.00    +0.141 C 
ATOM     24  S   UNL     1       6.765  -2.131   5.947  0.00  0.00    -0.018 S 
BRANCH  23  25
ATOM     25  N   UNL     1       5.978   0.368   5.505  0.00  0.00    -0.264 N 
ATOM     26  C   UNL     1       5.431   0.315   6.736  0.00  0.00    +0.250 C 
ATOM     27  O   UNL     1       5.527  -0.698   7.401  0.00  0.00    -0.270 OA
ATOM     28  H   UNL     1       5.902   1.176   4.975  0.00  0.00    +0.157 HD
BRANCH  26  29
ATOM     29  C   UNL     1       4.718   1.488   7.277  0.00  0.00    +0.041 A 
ATOM     30  C   UNL     1       4.607   2.654   6.514  0.00  0.00    +0.017 A 
ATOM     31  C   UNL     1       3.940   3.746   7.022  0.00  0.00    +0.050 A 
ATOM     32  C   UNL     1       3.376   3.696   8.292  0.00  0.00    +0.162 A 
ATOM     33  C   UNL     1       3.481   2.536   9.056  0.00  0.00    +0.163 A 
ATOM     34  C   UNL     1       4.150   1.435   8.552  0.00  0.00    +0.062 A 
ATOM     35  O   UNL     1       2.926   2.467  10.297  0.00  0.00    -0.485 OA
ATOM     36  C   UNL     1       2.586   3.711  10.919  0.00  0.00    +0.270 C 
ATOM     37  C   UNL     1       1.853   4.579   9.888  0.00  0.00    +0.270 C 
ATOM     38  O   UNL     1       2.730   4.790   8.776  0.00  0.00    -0.485 OA
ENDBRANCH  26  29
ENDBRANCH  23  25
ENDBRANCH  21  23
ENDBRANCH   4  21
TORSDOF 6
