REMARK  Name = ZINC09505412
REMARK  6 active torsions:
REMARK  status: ('A' for Active; 'I' for Inactive)
REMARK    1  A    between atoms: C_6  and  C_7
REMARK    2  A    between atoms: C_7  and  S_8
REMARK    3  A    between atoms: S_8  and  C_9
REMARK    4  A    between atoms: C_9  and  C_10
REMARK    5  A    between atoms: C_17  and  C_22
REMARK    6  A    between atoms: N_27  and  C_30
REMARK                            x       y       z     vdW  Elec       q    Type
REMARK                         _______ _______ _______ _____ _____    ______ ____
ROOT
ATOM      1  C   UNL     1       1.172  -5.012  -2.639  0.00  0.00    +0.167 C 
ATOM      2  C   UNL     1       1.215  -6.447  -2.179  0.00  0.00    +0.238 C 
ATOM      3  O   UNL     1       2.278  -6.951  -1.883  0.00  0.00    -0.273 OA
ATOM      4  N   UNL     1       0.087  -7.175  -2.095  0.00  0.00    -0.282 N 
ATOM      5  C   UNL     1      -1.131  -6.666  -2.562  0.00  0.00    +0.055 A 
ATOM      6  C   UNL     1      -2.315  -7.325  -2.292  0.00  0.00    +0.038 A 
ATOM      7  C   UNL     1      -3.524  -6.799  -2.758  0.00  0.00    +0.039 A 
ATOM      8  C   UNL     1      -3.532  -5.609  -3.492  0.00  0.00    +0.015 A 
ATOM      9  C   UNL     1      -2.349  -4.957  -3.762  0.00  0.00    +0.025 A 
ATOM     10  C   UNL     1      -1.148  -5.481  -3.304  0.00  0.00    +0.049 A 
ATOM     11  N   UNL     1       0.063  -4.845  -3.590  0.00  0.00    -0.331 N 
ATOM     12  H   UNL     1       0.117  -8.063  -1.705  0.00  0.00    +0.155 HD
ATOM     13  H   UNL     1       0.170  -4.308  -4.390  0.00  0.00    +0.147 HD
ENDROOT
BRANCH   7  14
ATOM     14  C   UNL     1      -4.791  -7.499  -2.475  0.00  0.00    +0.247 C 
ATOM     15  O   UNL     1      -5.736  -6.885  -2.018  0.00  0.00    -0.270 OA
ATOM     16  N   UNL     1      -4.901  -8.819  -2.722  0.00  0.00    -0.295 N 
ATOM     17  C   UNL     1      -6.177  -9.521  -2.519  0.00  0.00    +0.127 C 
ATOM     18  C   UNL     1      -6.503 -10.307  -3.799  0.00  0.00    +0.124 C 
ATOM     19  N   UNL     1      -5.366 -11.173  -4.139  0.00  0.00    -0.327 N 
ATOM     20  C   UNL     1      -4.167 -10.382  -4.443  0.00  0.00    +0.124 C 
ATOM     21  C   UNL     1      -3.746  -9.598  -3.196  0.00  0.00    +0.127 C 
BRANCH  19  22
ATOM     22  C   UNL     1      -5.686 -12.027  -5.200  0.00  0.00    +0.030 A 
ATOM     23  C   UNL     1      -4.902 -12.035  -6.346  0.00  0.00    +0.026 A 
ATOM     24  C   UNL     1      -5.216 -12.882  -7.390  0.00  0.00    +0.040 A 
ATOM     25  C   UNL     1      -6.318 -13.715  -7.299  0.00  0.00    +0.124 A 
ATOM     26  C   UNL     1      -7.104 -13.705  -6.160  0.00  0.00    +0.040 A 
ATOM     27  C   UNL     1      -6.791 -12.863  -5.111  0.00  0.00    +0.026 A 
ATOM     28  F   UNL     1      -6.627 -14.540  -8.324  0.00  0.00    -0.205 F 
ENDBRANCH  19  22
ENDBRANCH   7  14
BRANCH   1  29
ATOM     29  C   UNL     1       0.956  -4.095  -1.434  0.00  0.00    +0.101 C 
BRANCH  29  30
ATOM     30  S   UNL     1       0.899  -2.369  -1.990  0.00  0.00    -0.154 S 
BRANCH  30  31
ATOM     31  C   UNL     1       0.641  -1.424  -0.464  0.00  0.00    +0.104 C 
BRANCH  31  37
ATOM     32  C   UNL     1      -0.642   0.633  -1.083  0.00  0.00    +0.007 A 
ATOM     33  C   UNL     1      -0.705   1.981  -1.382  0.00  0.00    +0.038 A 
ATOM     34  C   UNL     1       0.451   2.744  -1.385  0.00  0.00    +0.123 A 
ATOM     35  C   UNL     1       1.668   2.154  -1.088  0.00  0.00    +0.038 A 
ATOM     36  C   UNL     1       1.728   0.806  -0.791  0.00  0.00    +0.007 A 
ATOM     37  C   UNL     1       0.574   0.046  -0.788  0.00  0.00    -0.037 A 
ATOM     38  F   UNL     1       0.391   4.061  -1.677  0.00  0.00    -0.205 F 
ENDBRANCH  31  37
ENDBRANCH  30  31
ENDBRANCH  29  30
ENDBRANCH   1  29
TORSDOF 6
