REMARK  Name = ZINC13094789
REMARK  8 active torsions:
REMARK  status: ('A' for Active; 'I' for Inactive)
REMARK    1  A    between atoms: C_1  and  C_2
REMARK    2  A    between atoms: C_5  and  S_8
REMARK    3  A    between atoms: S_8  and  N_11
REMARK    4  A    between atoms: N_11  and  C_12
REMARK    5  A    between atoms: N_11  and  C_13
REMARK    6  A    between atoms: C_16  and  C_19
REMARK    7  A    between atoms: N_21  and  C_22
REMARK    8  A    between atoms: C_26  and  C_28
REMARK                            x       y       z     vdW  Elec       q    Type
REMARK                         _______ _______ _______ _____ _____    ______ ____
ROOT
ATOM      1  C   UNL     1      -3.632  -2.536  -0.242  0.00  0.00    +0.051 A 
ATOM      2  C   UNL     1      -2.504  -3.292  -0.546  0.00  0.00    +0.025 A 
ATOM      3  C   UNL     1      -1.322  -2.667  -0.870  0.00  0.00    +0.015 A 
ATOM      4  C   UNL     1      -1.255  -1.270  -0.894  0.00  0.00    +0.037 A 
ATOM      5  C   UNL     1      -2.389  -0.514  -0.583  0.00  0.00    +0.015 A 
ATOM      6  C   UNL     1      -3.570  -1.146  -0.266  0.00  0.00    +0.025 A 
ENDROOT
BRANCH   4   7
ATOM      7  C   UNL     1       0.010  -0.597  -1.242  0.00  0.00    +0.248 C 
ATOM      8  O   UNL     1       0.997  -1.256  -1.507  0.00  0.00    -0.270 OA
ATOM      9  N   UNL     1       0.073   0.750  -1.264  0.00  0.00    -0.281 N 
ATOM     10  H   UNL     1      -0.730   1.275  -1.118  0.00  0.00    +0.155 HD
BRANCH   9  11
ATOM     11  C   UNL     1       1.293   1.389  -1.504  0.00  0.00    +0.034 A 
ATOM     12  C   UNL     1       1.324   2.583  -2.215  0.00  0.00    +0.023 A 
ATOM     13  C   UNL     1       2.528   3.219  -2.455  0.00  0.00    +0.003 A 
ATOM     14  C   UNL     1       3.707   2.674  -1.990  0.00  0.00    +0.015 A 
ATOM     15  C   UNL     1       3.687   1.474  -1.275  0.00  0.00    +0.065 A 
ATOM     16  C   UNL     1       2.471   0.835  -1.028  0.00  0.00    +0.038 A 
BRANCH  15  17
ATOM     17  C   UNL     1       4.947   0.888  -0.775  0.00  0.00    +0.387 C 
ATOM     18  O   UNL     1       4.928  -0.155  -0.153  0.00  0.00    -0.241 OA
ATOM     19  O   UNL     1       6.119   1.510  -1.009  0.00  0.00    -0.241 OA
ENDBRANCH  15  17
ENDBRANCH   9  11
ENDBRANCH   4   7
BRANCH   1  20
ATOM     20  N   UNL     1      -4.825  -3.172   0.085  0.00  0.00    -0.206 N 
ATOM     21  C   UNL     1      -5.105  -4.514  -0.429  0.00  0.00    +0.157 C 
BRANCH  20  22
ATOM     22  S   UNL     1      -5.929  -2.410   1.057  0.00  0.00    +0.074 S 
ATOM     23  O   UNL     1      -6.696  -3.432   1.678  0.00  0.00    -0.150 OA
ATOM     24  O   UNL     1      -5.211  -1.437   1.802  0.00  0.00    -0.150 OA
BRANCH  22  29
ATOM     25  C   UNL     1      -9.696   0.619  -2.554  0.00  0.00    +0.044 C 
ATOM     26  C   UNL     1      -8.755  -0.137  -1.652  0.00  0.00    -0.050 A 
ATOM     27  C   UNL     1      -8.964  -1.482  -1.407  0.00  0.00    +0.005 A 
ATOM     28  C   UNL     1      -8.101  -2.176  -0.580  0.00  0.00    +0.029 A 
ATOM     29  C   UNL     1      -7.029  -1.526   0.002  0.00  0.00    +0.109 A 
ATOM     30  C   UNL     1      -6.823  -0.180  -0.239  0.00  0.00    +0.029 A 
ATOM     31  C   UNL     1      -7.683   0.513  -1.070  0.00  0.00    +0.005 A 
ENDBRANCH  22  29
ENDBRANCH  20  22
ENDBRANCH   1  20
TORSDOF 6
