REMARK  Name = ZINC61093323
REMARK  4 active torsions:
REMARK  status: ('A' for Active; 'I' for Inactive)
REMARK    1  A    between atoms: C_3  and  S_9
REMARK    2  A    between atoms: C_4  and  N_8
REMARK    3  A    between atoms: S_9  and  N_12
REMARK    4  A    between atoms: N_12  and  C_13
REMARK                            x       y       z     vdW  Elec       q    Type
REMARK                         _______ _______ _______ _____ _____    ______ ____
ROOT
ATOM      1  S   UNL     1       3.650   2.457   0.133  0.00  0.00    +0.074 S 
ATOM      2  O   UNL     1       4.516   2.139  -0.948  0.00  0.00    -0.150 OA
ATOM      3  O   UNL     1       3.112   3.759   0.320  0.00  0.00    -0.150 OA
ENDROOT
BRANCH   1   6
ATOM      4  C   UNL     1       1.138  -0.427  -1.100  0.00  0.00    +0.040 A 
ATOM      5  C   UNL     1       2.213   0.438  -1.009  0.00  0.00    +0.033 A 
ATOM      6  C   UNL     1       2.279   1.357   0.019  0.00  0.00    +0.129 A 
ATOM      7  C   UNL     1       1.263   1.413   0.965  0.00  0.00    +0.054 A 
ATOM      8  C   UNL     1       0.183   0.544   0.874  0.00  0.00    +0.063 A 
ATOM      9  C   UNL     1       0.123  -0.374  -0.159  0.00  0.00    +0.125 A 
ATOM     10  F   UNL     1      -0.926  -1.220  -0.250  0.00  0.00    -0.205 F 
BRANCH   7  11
ATOM     11  N   UNL     1       1.327   2.341   2.007  0.00  0.00    -0.356 N 
ATOM     12  H   UNL     1       2.045   2.994   2.031  0.00  0.00    +0.142 HD
ATOM     13  H   UNL     1       0.654   2.334   2.706  0.00  0.00    +0.142 HD
ENDBRANCH   7  11
ENDBRANCH   1   6
BRANCH   1  14
ATOM     14  N   UNL     1       4.468   2.078   1.522  0.00  0.00    -0.213 N 
ATOM     15  H   UNL     1       4.577   2.745   2.218  0.00  0.00    +0.174 HD
BRANCH  14  16
ATOM     16  C   UNL     1       5.003   0.796   1.692  0.00  0.00    +0.086 A 
ATOM     17  C   UNL     1       5.523   0.110   0.603  0.00  0.00    +0.068 A 
ATOM     18  C   UNL     1       6.051  -1.158   0.774  0.00  0.00    +0.160 A 
ATOM     19  C   UNL     1       6.060  -1.743   2.031  0.00  0.00    +0.161 A 
ATOM     20  C   UNL     1       5.541  -1.060   3.118  0.00  0.00    +0.081 A 
ATOM     21  C   UNL     1       5.018   0.209   2.953  0.00  0.00    +0.149 A 
ATOM     22  F   UNL     1       4.517   0.877   4.015  0.00  0.00    -0.203 F 
ATOM     23  F   UNL     1       6.576  -2.980   2.195  0.00  0.00    -0.202 F 
ATOM     24  F   UNL     1       6.558  -1.826  -0.285  0.00  0.00    -0.202 F 
ENDBRANCH  14  16
ENDBRANCH   1  14
TORSDOF 4
