REMARK  Name = ZINC36218529
REMARK  9 active torsions:
REMARK  status: ('A' for Active; 'I' for Inactive)
REMARK    1  A    between atoms: C_1  and  C_2
REMARK    2  A    between atoms: C_2  and  C_4
REMARK    3  A    between atoms: C_2  and  N_10
REMARK    4  A    between atoms: C_11  and  C_13
REMARK    5  A    between atoms: C_15  and  C_28
REMARK    6  A    between atoms: N_20  and  C_21
REMARK    7  A    between atoms: C_21  and  C_22
REMARK    8  A    between atoms: C_32  and  N_34
REMARK    9  A    between atoms: C_35  and  C_37
REMARK                            x       y       z     vdW  Elec       q    Type
REMARK                         _______ _______ _______ _____ _____    ______ ____
ROOT
ATOM      1  C   UNL     1       2.778  -1.097   2.384  0.00  0.00    +0.210 C 
ATOM      2  C   UNL     1       3.005   0.053   3.393  0.00  0.00    +0.238 C 
ATOM      3  O   UNL     1       4.321   0.516   3.030  0.00  0.00    -0.440 OA
ATOM      4  C   UNL     1       4.981  -0.510   2.467  0.00  0.00    +0.405 C 
ATOM      5  O   UNL     1       6.190  -0.551   2.353  0.00  0.00    -0.226 OA
ATOM      6  N   UNL     1       4.158  -1.493   2.039  0.00  0.00    -0.248 N 
ENDROOT
BRANCH   2   7
ATOM      7  C   UNL     1       1.981   1.143   3.207  0.00  0.00    -0.003 A 
ATOM      8  C   UNL     1       2.134   2.068   2.190  0.00  0.00    +0.007 A 
ATOM      9  C   UNL     1       1.196   3.069   2.015  0.00  0.00    +0.002 A 
ATOM     10  C   UNL     1       0.103   3.148   2.856  0.00  0.00    +0.023 A 
ATOM     11  C   UNL     1      -0.053   2.221   3.878  0.00  0.00    +0.034 A 
ATOM     12  C   UNL     1       0.888   1.213   4.048  0.00  0.00    +0.030 A 
BRANCH  11  13
ATOM     13  N   UNL     1      -1.158   2.298   4.732  0.00  0.00    -0.281 N 
ATOM     14  C   UNL     1      -1.657   3.500   5.082  0.00  0.00    +0.248 C 
ATOM     15  O   UNL     1      -1.200   4.514   4.591  0.00  0.00    -0.270 OA
ATOM     16  H   UNL     1      -1.567   1.486   5.071  0.00  0.00    +0.155 HD
BRANCH  14  17
ATOM     17  C   UNL     1      -2.759   3.586   6.063  0.00  0.00    +0.037 A 
ATOM     18  C   UNL     1      -3.282   2.424   6.633  0.00  0.00    +0.013 A 
ATOM     19  C   UNL     1      -4.310   2.512   7.549  0.00  0.00    +0.001 A 
ATOM     20  C   UNL     1      -4.823   3.747   7.902  0.00  0.00    +0.000 A 
ATOM     21  C   UNL     1      -4.309   4.903   7.340  0.00  0.00    +0.001 A 
ATOM     22  C   UNL     1      -3.277   4.830   6.428  0.00  0.00    +0.013 A 
ENDBRANCH  14  17
ENDBRANCH  11  13
ENDBRANCH   2   7
BRANCH   1  24
ATOM     23  N   UNL     1       0.698  -0.497   1.188  0.00  0.00    -0.307 N 
ATOM     24  C   UNL     1       2.041  -0.604   1.166  0.00  0.00    +0.238 C 
ATOM     25  O   UNL     1       2.656  -0.304   0.165  0.00  0.00    -0.274 OA
ATOM     26  H   UNL     1       0.205  -0.738   1.989  0.00  0.00    +0.149 HD
BRANCH  23  28
ATOM     27  C   UNL     1      -0.044   1.511   0.007  0.00  0.00    +0.033 C 
ATOM     28  C   UNL     1      -0.019  -0.018   0.004  0.00  0.00    +0.100 C 
BRANCH  28  29
ATOM     29  C   UNL     1      -1.431  -0.544   0.025  0.00  0.00    -0.027 A 
ATOM     30  C   UNL     1      -2.135  -0.587   1.214  0.00  0.00    +0.005 A 
ATOM     31  C   UNL     1      -3.431  -1.068   1.233  0.00  0.00    +0.000 A 
ATOM     32  C   UNL     1      -4.022  -1.507   0.063  0.00  0.00    +0.000 A 
ATOM     33  C   UNL     1      -3.319  -1.464  -1.126  0.00  0.00    +0.000 A 
ATOM     34  C   UNL     1      -2.025  -0.978  -1.146  0.00  0.00    +0.005 A 
ENDBRANCH  28  29
ENDBRANCH  23  28
ENDBRANCH   1  24
BRANCH   6  35
ATOM     35  C   UNL     1       4.558  -2.728   1.359  0.00  0.00    +0.147 C 
BRANCH  35  36
ATOM     36  C   UNL     1       4.568  -2.500  -0.130  0.00  0.00    -0.030 A 
ATOM     37  C   UNL     1       3.424  -2.728  -0.872  0.00  0.00    +0.005 A 
ATOM     38  C   UNL     1       3.433  -2.519  -2.239  0.00  0.00    +0.000 A 
ATOM     39  C   UNL     1       4.586  -2.081  -2.863  0.00  0.00    +0.000 A 
ATOM     40  C   UNL     1       5.729  -1.851  -2.121  0.00  0.00    +0.000 A 
ATOM     41  C   UNL     1       5.719  -2.056  -0.754  0.00  0.00    +0.005 A 
ENDBRANCH  35  36
ENDBRANCH   6  35
TORSDOF 8
