REMARK  Name = ZINC13360642
REMARK  6 active torsions:
REMARK  status: ('A' for Active; 'I' for Inactive)
REMARK    1  A    between atoms: C_1  and  C_2
REMARK    2  A    between atoms: C_5  and  N_9
REMARK    3  A    between atoms: N_19  and  S_22
REMARK    4  A    between atoms: S_22  and  C_25
REMARK    5  A    between atoms: C_28  and  O_31
REMARK    6  A    between atoms: O_31  and  C_32
REMARK                            x       y       z     vdW  Elec       q    Type
REMARK                         _______ _______ _______ _____ _____    ______ ____
ROOT
ATOM      1  N   UNL     1      -1.876  -3.082   0.002  0.00  0.00    -0.269 N 
ATOM      2  C   UNL     1      -0.839  -2.221  -0.004  0.00  0.00    +0.310 C 
ATOM      3  O   UNL     1       0.301  -2.642  -0.025  0.00  0.00    -0.252 OA
ATOM      4  N   UNL     1      -1.067  -0.892   0.013  0.00  0.00    -0.248 N 
ATOM      5  C   UNL     1       0.002  -0.004   0.006  0.00  0.00    +0.166 A 
ATOM      6  N   UNL     1       1.293  -0.262  -0.016  0.00  0.00    -0.229 NA
ATOM      7  C   UNL     1       2.211   0.703  -0.019  0.00  0.00    +0.056 A 
ATOM      8  C   UNL     1       1.733   1.974  -0.001  0.00  0.00    +0.030 A 
ATOM      9  S   UNL     1      -0.022   1.734   0.024  0.00  0.00    -0.055 S 
ATOM     10  C   UNL     1       2.520   3.242  -0.005  0.00  0.00    +0.153 C 
ATOM     11  N   UNL     1       3.937   2.872   0.200  0.00  0.00    -0.171 NA
ATOM     12  C   UNL     1       4.439   1.693  -0.521  0.00  0.00    +0.116 C 
ATOM     13  C   UNL     1       3.711   0.438  -0.035  0.00  0.00    +0.073 C 
ATOM     14  H   UNL     1      -2.783  -2.749   0.086  0.00  0.00    +0.156 HD
ATOM     15  H   UNL     1      -1.977  -0.557   0.029  0.00  0.00    +0.158 HD
ENDROOT
BRANCH   1  20
ATOM     16  C   UNL     1      -0.937  -8.659  -0.467  0.00  0.00    +0.047 C 
ATOM     17  C   UNL     1      -1.186  -7.178  -0.342  0.00  0.00    -0.015 A 
ATOM     18  C   UNL     1      -2.310  -6.616  -0.918  0.00  0.00    +0.008 A 
ATOM     19  C   UNL     1      -2.544  -5.260  -0.801  0.00  0.00    +0.024 A 
ATOM     20  C   UNL     1      -1.643  -4.457  -0.113  0.00  0.00    +0.038 A 
ATOM     21  C   UNL     1      -0.515  -5.022   0.465  0.00  0.00    +0.062 A 
ATOM     22  C   UNL     1      -0.288  -6.382   0.350  0.00  0.00    +0.128 A 
ATOM     23  F   UNL     1       0.810  -6.934   0.912  0.00  0.00    -0.205 F 
ENDBRANCH   1  20
BRANCH  11  24
ATOM     24  S   UNL     1       4.920   3.752   1.201  0.00  0.00    +0.061 S 
ATOM     25  O   UNL     1       6.253   3.521   0.766  0.00  0.00    -0.153 OA
ATOM     26  O   UNL     1       4.358   5.055   1.279  0.00  0.00    -0.153 OA
BRANCH  24  27
ATOM     27  C   UNL     1       4.786   3.049   2.811  0.00  0.00    +0.106 A 
ATOM     28  C   UNL     1       3.826   3.515   3.690  0.00  0.00    +0.032 A 
ATOM     29  C   UNL     1       3.715   2.962   4.951  0.00  0.00    +0.047 A 
ATOM     30  C   UNL     1       4.576   1.945   5.339  0.00  0.00    +0.120 A 
ATOM     31  C   UNL     1       5.542   1.483   4.457  0.00  0.00    +0.047 A 
ATOM     32  C   UNL     1       5.645   2.035   3.195  0.00  0.00    +0.032 A 
BRANCH  30  33
ATOM     33  O   UNL     1       4.473   1.403   6.581  0.00  0.00    -0.495 OA
ATOM     34  C   UNL     1       3.455   1.928   7.436  0.00  0.00    +0.277 C 
ENDBRANCH  30  33
ENDBRANCH  24  27
ENDBRANCH  11  24
TORSDOF 4
