REMARK  Name = ZINC36148154
REMARK  7 active torsions:
REMARK  status: ('A' for Active; 'I' for Inactive)
REMARK    1  A    between atoms: C_1  and  C_2
REMARK    2  A    between atoms: C_5  and  N_8
REMARK    3  A    between atoms: C_14  and  C_17
REMARK    4  A    between atoms: C_17  and  C_19
REMARK    5  A    between atoms: C_17  and  N_28
REMARK    6  A    between atoms: N_21  and  C_22
REMARK    7  A    between atoms: C_29  and  C_31
REMARK                            x       y       z     vdW  Elec       q    Type
REMARK                         _______ _______ _______ _____ _____    ______ ____
ROOT
ATOM      1  C   UNL     1      -1.613 -10.063   0.949  0.00  0.00    +0.163 C 
ENDROOT
BRANCH   1   8
ATOM      2  N   UNL     1       0.111  -4.362  -0.507  0.00  0.00    -0.269 N 
ATOM      3  C   UNL     1       0.303  -4.967   0.682  0.00  0.00    +0.306 C 
ATOM      4  O   UNL     1       0.405  -4.300   1.694  0.00  0.00    -0.252 OA
ATOM      5  N   UNL     1       0.383  -6.310   0.750  0.00  0.00    -0.285 N 
ATOM      6  C   UNL     1       0.422  -7.121  -0.475  0.00  0.00    +0.109 C 
ATOM      7  C   UNL     1      -0.684  -8.178  -0.402  0.00  0.00    +0.025 C 
ATOM      8  C   UNL     1      -0.530  -8.983   0.890  0.00  0.00    +0.021 C 
ATOM      9  C   UNL     1      -0.674  -8.051   2.095  0.00  0.00    +0.025 C 
ATOM     10  C   UNL     1       0.438  -6.992   2.050  0.00  0.00    +0.109 C 
ATOM     11  H   UNL     1      -0.096  -4.892  -1.293  0.00  0.00    +0.156 HD
BRANCH   2  16
ATOM     12  C   UNL     1       0.507   1.282  -0.918  0.00  0.00    +0.044 C 
ATOM     13  C   UNL     1       0.402  -0.217  -0.809  0.00  0.00    -0.050 A 
ATOM     14  C   UNL     1       0.581  -1.005  -1.931  0.00  0.00    +0.005 A 
ATOM     15  C   UNL     1       0.485  -2.379  -1.834  0.00  0.00    +0.023 A 
ATOM     16  C   UNL     1       0.209  -2.970  -0.608  0.00  0.00    +0.035 A 
ATOM     17  C   UNL     1       0.030  -2.176   0.517  0.00  0.00    +0.023 A 
ATOM     18  C   UNL     1       0.133  -0.802   0.415  0.00  0.00    +0.005 A 
ENDBRANCH   2  16
ENDBRANCH   1   8
BRANCH   1  19
ATOM     19  C   UNL     1      -1.462 -10.857   2.221  0.00  0.00    +0.238 C 
ATOM     20  O   UNL     1      -2.369 -10.891   3.026  0.00  0.00    -0.273 OA
ATOM     21  N   UNL     1      -0.319 -11.528   2.465  0.00  0.00    -0.284 N 
ATOM     22  H   UNL     1       0.402 -11.510   1.816  0.00  0.00    +0.155 HD
BRANCH  21  23
ATOM     23  C   UNL     1      -0.173 -12.252   3.654  0.00  0.00    +0.033 A 
ATOM     24  C   UNL     1       1.060 -12.301   4.291  0.00  0.00    +0.023 A 
ATOM     25  C   UNL     1       1.201 -13.017   5.464  0.00  0.00    +0.002 A 
ATOM     26  C   UNL     1       0.117 -13.682   6.004  0.00  0.00    +0.000 A 
ATOM     27  C   UNL     1      -1.112 -13.635   5.372  0.00  0.00    +0.002 A 
ATOM     28  C   UNL     1      -1.262 -12.917   4.202  0.00  0.00    +0.023 A 
ENDBRANCH  21  23
ENDBRANCH   1  19
BRANCH   1  29
ATOM     29  N   UNL     1      -2.934  -9.431   0.921  0.00  0.00    -0.300 N 
ATOM     30  C   UNL     1      -4.001 -10.119   0.467  0.00  0.00    +0.245 C 
ATOM     31  O   UNL     1      -3.866 -11.263   0.079  0.00  0.00    -0.270 OA
ATOM     32  H   UNL     1      -3.042  -8.518   1.230  0.00  0.00    +0.150 HD
BRANCH  30  33
ATOM     33  C   UNL     1      -5.333  -9.482   0.439  0.00  0.00    +0.037 A 
ATOM     34  C   UNL     1      -5.490  -8.165   0.878  0.00  0.00    +0.016 A 
ATOM     35  C   UNL     1      -6.736  -7.576   0.850  0.00  0.00    +0.039 A 
ATOM     36  C   UNL     1      -7.832  -8.287   0.387  0.00  0.00    +0.123 A 
ATOM     37  C   UNL     1      -7.682  -9.595  -0.050  0.00  0.00    +0.039 A 
ATOM     38  C   UNL     1      -6.440 -10.192  -0.032  0.00  0.00    +0.016 A 
ATOM     39  F   UNL     1      -9.051  -7.705   0.362  0.00  0.00    -0.205 F 
ENDBRANCH  30  33
ENDBRANCH   1  29
TORSDOF 6
