REMARK  Name = ZINC35744269
REMARK  10 active torsions:
REMARK  status: ('A' for Active; 'I' for Inactive)
REMARK    1  A    between atoms: C_1  and  C_2
REMARK    2  A    between atoms: C_2  and  C_3
REMARK    3  A    between atoms: C_3  and  C_5
REMARK    4  A    between atoms: C_3  and  N_6
REMARK    5  A    between atoms: C_7  and  C_9
REMARK    6  A    between atoms: C_9  and  N_10
REMARK    7  A    between atoms: N_12  and  C_32
REMARK    8  A    between atoms: N_23  and  C_24
REMARK    9  A    between atoms: C_27  and  S_30
REMARK   10  A    between atoms: S_30  and  C_31
REMARK                            x       y       z     vdW  Elec       q    Type
REMARK                         _______ _______ _______ _____ _____    ______ ____
ROOT
ATOM      1  N   UNL     1      -5.590   0.412  -2.331  0.00  0.00    -0.275 N 
ATOM      2  C   UNL     1      -6.500  -0.716  -2.521  0.00  0.00    +0.217 C 
ATOM      3  N   UNL     1      -7.857  -0.269  -2.179  0.00  0.00    -0.300 N 
ATOM      4  C   UNL     1      -7.728   1.139  -1.784  0.00  0.00    +0.115 C 
ATOM      5  C   UNL     1      -6.268   1.490  -1.902  0.00  0.00    +0.241 C 
ATOM      6  O   UNL     1      -5.782   2.573  -1.652  0.00  0.00    -0.273 OA
ATOM      7  C   UNL     1      -8.561   2.019  -2.717  0.00  0.00    +0.054 C 
ATOM      8  C   UNL     1     -10.034   1.609  -2.619  0.00  0.00    +0.112 C 
ATOM      9  N   UNL     1     -10.445   1.654  -1.210  0.00  0.00    -0.285 N 
ATOM     10  C   UNL     1      -9.660   0.903  -0.220  0.00  0.00    +0.112 C 
ATOM     11  C   UNL     1      -8.190   1.319  -0.339  0.00  0.00    +0.054 C 
ATOM     12  C   UNL     1     -11.521   2.372  -0.831  0.00  0.00    +0.306 C 
ATOM     13  O   UNL     1     -11.799   2.475   0.348  0.00  0.00    -0.252 OA
ATOM     14  N   UNL     1     -12.291   2.974  -1.760  0.00  0.00    -0.269 N 
ATOM     15  H   UNL     1     -12.113   2.832  -2.703  0.00  0.00    +0.156 HD
ENDROOT
BRANCH  14  16
ATOM     16  C   UNL     1     -13.348   3.805  -1.363  0.00  0.00    +0.035 A 
ATOM     17  C   UNL     1     -13.664   3.930  -0.016  0.00  0.00    +0.024 A 
ATOM     18  C   UNL     1     -14.704   4.749   0.375  0.00  0.00    +0.016 A 
ATOM     19  C   UNL     1     -15.434   5.448  -0.578  0.00  0.00    +0.008 A 
ATOM     20  C   UNL     1     -15.118   5.322  -1.925  0.00  0.00    +0.016 A 
ATOM     21  C   UNL     1     -14.074   4.507  -2.315  0.00  0.00    +0.024 A 
BRANCH  19  22
ATOM     22  S   UNL     1     -16.763   6.492  -0.079  0.00  0.00    -0.129 S 
ATOM     23  C   UNL     1     -17.396   7.172  -1.637  0.00  0.00    +0.090 C 
ENDBRANCH  19  22
ENDBRANCH  14  16
BRANCH   3  24
ATOM     24  C   UNL     1      -9.028  -1.028  -2.219  0.00  0.00    +0.032 A 
ATOM     25  C   UNL     1      -8.995  -2.335  -2.688  0.00  0.00    +0.023 A 
ATOM     26  C   UNL     1     -10.156  -3.083  -2.727  0.00  0.00    +0.002 A 
ATOM     27  C   UNL     1     -11.350  -2.532  -2.300  0.00  0.00    +0.000 A 
ATOM     28  C   UNL     1     -11.386  -1.231  -1.833  0.00  0.00    +0.002 A 
ATOM     29  C   UNL     1     -10.229  -0.479  -1.786  0.00  0.00    +0.023 A 
ENDBRANCH   3  24
BRANCH   1  30
ATOM     30  C   UNL     1      -4.145   0.371  -2.568  0.00  0.00    +0.205 C 
BRANCH  30  32
ATOM     31  N   UNL     1      -2.096  -0.152  -1.284  0.00  0.00    -0.311 N 
ATOM     32  C   UNL     1      -3.440  -0.046  -1.303  0.00  0.00    +0.231 C 
ATOM     33  O   UNL     1      -4.082  -0.285  -0.302  0.00  0.00    -0.274 OA
ATOM     34  H   UNL     1      -1.583   0.039  -2.084  0.00  0.00    +0.149 HD
BRANCH  31  35
ATOM     35  C   UNL     1      -1.411  -0.558  -0.054  0.00  0.00    +0.070 C 
ATOM     36  C   UNL     1      -1.387  -2.085   0.037  0.00  0.00    +0.028 C 
BRANCH  35  38
ATOM     37  C   UNL     1      -0.000   1.504  -0.035  0.00  0.00    +0.005 C 
ATOM     38  C   UNL     1       0.023  -0.025  -0.070  0.00  0.00    +0.018 C 
ENDBRANCH  35  38
ENDBRANCH  31  35
ENDBRANCH  30  32
ENDBRANCH   1  30
TORSDOF 7
