REMARK  Name = ZINC59474834
REMARK  8 active torsions:
REMARK  status: ('A' for Active; 'I' for Inactive)
REMARK    1  A    between atoms: C_6  and  N_7
REMARK    2  A    between atoms: C_8  and  C_9
REMARK    3  A    between atoms: C_14  and  O_15
REMARK    4  A    between atoms: C_18  and  S_20
REMARK    5  A    between atoms: S_20  and  C_21
REMARK    6  A    between atoms: C_21  and  C_22
REMARK    7  A    between atoms: N_24  and  C_25
REMARK    8  A    between atoms: C_25  and  C_26
REMARK                            x       y       z     vdW  Elec       q    Type
REMARK                         _______ _______ _______ _____ _____    ______ ____
ROOT
ATOM      1  C   UNL     1      -0.017   1.397   0.010  0.00  0.00    +0.030 A 
ATOM      2  C   UNL     1       1.131   2.121   0.003  0.00  0.00    +0.031 A 
ATOM      3  C   UNL     1       2.396   1.485  -0.013  0.00  0.00    +0.080 A 
ATOM      4  C   UNL     1       2.389   0.070  -0.021  0.00  0.00    +0.042 A 
ATOM      5  C   UNL     1       1.235  -0.665  -0.013  0.00  0.00    +0.045 A 
ATOM      6  C   UNL     1       0.002  -0.004   0.002  0.00  0.00    +0.065 A 
ATOM      7  S   UNL     1       4.123  -0.318  -0.040  0.00  0.00    -0.061 S 
ATOM      8  C   UNL     1       4.729   1.364  -0.036  0.00  0.00    +0.136 A 
ATOM      9  N   UNL     1       3.616   2.063  -0.022  0.00  0.00    -0.233 NA
ENDROOT
BRANCH   6  10
ATOM     10  N   UNL     1      -1.167  -0.714   0.009  0.00  0.00    -0.255 NA
ATOM     11  C   UNL     1      -2.131  -0.375   0.819  0.00  0.00    +0.123 C 
BRANCH  11  12
ATOM     12  C   UNL     1      -3.387  -1.139   0.827  0.00  0.00    +0.036 A 
ATOM     13  C   UNL     1      -4.426  -0.774   1.690  0.00  0.00    +0.028 A 
ATOM     14  C   UNL     1      -5.602  -1.495   1.691  0.00  0.00    +0.019 A 
ATOM     15  C   UNL     1      -5.758  -2.579   0.842  0.00  0.00    +0.019 A 
ATOM     16  C   UNL     1      -4.740  -2.949  -0.015  0.00  0.00    +0.047 A 
ATOM     17  C   UNL     1      -3.553  -2.233  -0.035  0.00  0.00    +0.125 A 
ATOM     18 BR   UNL     1      -7.006  -1.003   2.858  0.00  0.00    -0.050 Br
BRANCH  17  19
ATOM     19  O   UNL     1      -2.554  -2.592  -0.881  0.00  0.00    -0.506 OA
ATOM     20  H   UNL     1      -1.934  -3.234  -0.508  0.00  0.00    +0.292 HD
ENDBRANCH  17  19
ENDBRANCH  11  12
ENDBRANCH   6  10
BRANCH   8  21
ATOM     21  S   UNL     1       6.395   1.938  -0.049  0.00  0.00    -0.089 S 
BRANCH  21  22
ATOM     22  C   UNL     1       6.236   3.745  -0.038  0.00  0.00    +0.172 C 
BRANCH  22  23
ATOM     23  C   UNL     1       7.607   4.370  -0.048  0.00  0.00    +0.223 C 
ATOM     24  O   UNL     1       8.595   3.666  -0.061  0.00  0.00    -0.275 OA
ATOM     25  N   UNL     1       7.737   5.712  -0.042  0.00  0.00    -0.312 N 
ATOM     26  H   UNL     1       6.947   6.275  -0.031  0.00  0.00    +0.149 HD
BRANCH  25  27
ATOM     27  C   UNL     1       9.070   6.319  -0.051  0.00  0.00    +0.135 C 
BRANCH  27  28
ATOM     28  C   UNL     1       8.936   7.843  -0.042  0.00  0.00    +0.135 C 
ATOM     29  C   UNL     1      10.335   8.506  -0.087  0.00  0.00    +0.035 C 
ATOM     30  C   UNL     1       9.988   9.887  -0.707  0.00  0.00    +0.031 C 
ATOM     31  C   UNL     1       8.836   9.532  -1.672  0.00  0.00    +0.160 C 
ATOM     32  O   UNL     1       8.267   8.292  -1.231  0.00  0.00    -0.375 OA
ENDBRANCH  27  28
ENDBRANCH  25  27
ENDBRANCH  22  23
ENDBRANCH  21  22
ENDBRANCH   8  21
TORSDOF 8
