REMARK  Name = ZINC12642276
REMARK  11 active torsions:
REMARK  status: ('A' for Active; 'I' for Inactive)
REMARK    1  A    between atoms: C_1  and  C_2
REMARK    2  A    between atoms: C_2  and  C_4
REMARK    3  A    between atoms: C_8  and  N_10
REMARK    4  A    between atoms: C_11  and  C_34
REMARK    5  A    between atoms: C_16  and  C_33
REMARK    6  A    between atoms: C_18  and  C_24
REMARK    7  A    between atoms: N_26  and  C_27
REMARK    8  A    between atoms: N_36  and  C_37
REMARK    9  A    between atoms: C_37  and  C_38
REMARK   10  A    between atoms: C_37  and  C_39
REMARK   11  A    between atoms: C_37  and  C_40
REMARK                            x       y       z     vdW  Elec       q    Type
REMARK                         _______ _______ _______ _____ _____    ______ ____
ROOT
ATOM      1  N   UNL     1       0.023  -4.205  -2.507  0.00  0.00    -0.256 N 
ATOM      2  C   UNL     1       0.019  -5.030  -3.739  0.00  0.00    +0.203 C 
ATOM      3  C   UNL     1      -0.416  -6.383  -3.268  0.00  0.00    +0.128 C 
ATOM      4  C   UNL     1      -0.059  -7.664  -3.932  0.00  0.00    +0.009 C 
ATOM      5  C   UNL     1      -0.853  -8.562  -3.335  0.00  0.00    +0.007 C 
ATOM      6  C   UNL     1      -1.725  -7.803  -2.329  0.00  0.00    +0.098 C 
ATOM      7  O   UNL     1      -1.841  -6.501  -3.010  0.00  0.00    -0.355 OA
ATOM      8  C   UNL     1      -0.797  -7.401  -1.137  0.00  0.00    +0.126 C 
ATOM      9  C   UNL     1       0.184  -6.428  -1.814  0.00  0.00    +0.128 C 
ATOM     10  C   UNL     1       0.042  -4.991  -1.400  0.00  0.00    +0.228 C 
ATOM     11  O   UNL     1      -0.043  -4.596  -0.257  0.00  0.00    -0.275 OA
ATOM     12  C   UNL     1      -3.043  -8.483  -1.955  0.00  0.00    +0.047 C 
ENDROOT
BRANCH   1  17
ATOM     13  C   UNL     1       0.015  -0.733  -1.264  0.00  0.00    +0.019 A 
ATOM     14  C   UNL     1      -0.005  -0.027  -2.472  0.00  0.00    +0.011 A 
ATOM     15  C   UNL     1      -0.014  -0.712  -3.669  0.00  0.00    +0.002 A 
ATOM     16  C   UNL     1      -0.005  -2.095  -3.681  0.00  0.00    +0.023 A 
ATOM     17  C   UNL     1       0.014  -2.806  -2.487  0.00  0.00    +0.038 A 
ATOM     18  C   UNL     1       0.030  -2.130  -1.278  0.00  0.00    +0.035 A 
BRANCH  13  20
ATOM     19  C   UNL     1       0.009   1.501   0.027  0.00  0.00    +0.091 C 
ATOM     20  C   UNL     1       0.025  -0.006   0.016  0.00  0.00    +0.160 C 
ATOM     21  O   UNL     1       0.047  -0.620   1.061  0.00  0.00    -0.292 OA
ENDBRANCH  13  20
ENDBRANCH   1  17
BRANCH   8  22
ATOM     22  C   UNL     1      -0.073  -8.604  -0.588  0.00  0.00    +0.224 C 
ATOM     23  O   UNL     1       1.139  -8.647  -0.618  0.00  0.00    -0.275 OA
ATOM     24  N   UNL     1      -0.772  -9.631  -0.066  0.00  0.00    -0.285 N 
ATOM     25  H   UNL     1      -1.736  -9.568   0.020  0.00  0.00    +0.155 HD
BRANCH  24  26
ATOM     26  C   UNL     1      -0.107 -10.789   0.353  0.00  0.00    +0.033 A 
ATOM     27  C   UNL     1      -0.706 -12.031   0.195  0.00  0.00    +0.023 A 
ATOM     28  C   UNL     1      -0.047 -13.172   0.609  0.00  0.00    +0.002 A 
ATOM     29  C   UNL     1       1.209 -13.078   1.180  0.00  0.00    +0.000 A 
ATOM     30  C   UNL     1       1.808 -11.842   1.339  0.00  0.00    +0.002 A 
ATOM     31  C   UNL     1       1.157 -10.698   0.921  0.00  0.00    +0.023 A 
ENDBRANCH  24  26
ENDBRANCH   8  22
BRANCH   2  32
ATOM     32  C   UNL     1       1.401  -5.094  -4.337  0.00  0.00    +0.238 C 
ATOM     33  O   UNL     1       2.368  -4.817  -3.659  0.00  0.00    -0.274 OA
ATOM     34  N   UNL     1       1.562  -5.460  -5.624  0.00  0.00    -0.309 N 
ATOM     35  H   UNL     1       0.789  -5.682  -6.165  0.00  0.00    +0.149 HD
BRANCH  34  36
ATOM     36  C   UNL     1       2.905  -5.522  -6.205  0.00  0.00    +0.026 C 
ATOM     37  C   UNL     1       3.752  -6.531  -5.425  0.00  0.00    +0.031 C 
ATOM     38  C   UNL     1       2.809  -5.961  -7.667  0.00  0.00    +0.031 C 
ATOM     39  C   UNL     1       3.559  -4.141  -6.128  0.00  0.00    +0.031 C 
ENDBRANCH  34  36
ENDBRANCH   2  32
TORSDOF 6
