REMARK  Name = ZINC59437518
REMARK  6 active torsions:
REMARK  status: ('A' for Active; 'I' for Inactive)
REMARK    1  A    between atoms: C_1  and  C_2
REMARK    2  A    between atoms: C_7  and  N_8
REMARK    3  A    between atoms: N_8  and  C_9
REMARK    4  A    between atoms: C_9  and  N_11
REMARK    5  A    between atoms: C_12  and  C_14
REMARK    6  A    between atoms: N_22  and  C_24
REMARK                            x       y       z     vdW  Elec       q    Type
REMARK                         _______ _______ _______ _____ _____    ______ ____
ROOT
ATOM      1  C   UNL     1      -0.593   1.417   0.038  0.00  0.00    +0.046 C 
ATOM      2  C   UNL     1      -0.265  -0.054   0.021  0.00  0.00    -0.027 A 
ATOM      3  C   UNL     1      -0.262  -0.717  -1.164  0.00  0.00    +0.037 A 
ATOM      4  C   UNL     1       0.043  -2.090  -1.190  0.00  0.00    +0.114 A 
ATOM      5  C   UNL     1       0.354  -2.773   0.074  0.00  0.00    +0.115 A 
ATOM      6  C   UNL     1       0.335  -2.032   1.268  0.00  0.00    +0.055 A 
ATOM      7  C   UNL     1       0.036  -0.701   1.226  0.00  0.00    +0.038 A 
ATOM      8  N   UNL     1       0.593  -4.029  -0.271  0.00  0.00    -0.147 NA
ATOM      9  N   UNL     1       0.460  -4.142  -1.547  0.00  0.00    -0.149 N 
ATOM     10  N   UNL     1       0.140  -3.032  -2.115  0.00  0.00    -0.147 NA
ENDROOT
BRANCH   9  11
ATOM     11  C   UNL     1       0.644  -5.344  -2.242  0.00  0.00    +0.086 A 
ATOM     12  C   UNL     1       0.487  -5.381  -3.621  0.00  0.00    +0.029 A 
ATOM     13  C   UNL     1       0.669  -6.568  -4.303  0.00  0.00    +0.002 A 
ATOM     14  C   UNL     1       1.006  -7.719  -3.615  0.00  0.00    +0.000 A 
ATOM     15  C   UNL     1       1.162  -7.685  -2.241  0.00  0.00    +0.002 A 
ATOM     16  C   UNL     1       0.988  -6.500  -1.553  0.00  0.00    +0.029 A 
ENDBRANCH   9  11
BRANCH   7  17
ATOM     17  N   UNL     1       0.024   0.033   2.417  0.00  0.00    -0.296 N 
ATOM     18  H   UNL     1       0.489   0.883   2.467  0.00  0.00    +0.154 HD
BRANCH  17  19
ATOM     19  C   UNL     1      -0.633  -0.440   3.494  0.00  0.00    +0.141 C 
ATOM     20  S   UNL     1      -1.361  -1.988   3.440  0.00  0.00    -0.018 S 
BRANCH  19  21
ATOM     21  N   UNL     1      -0.717   0.306   4.614  0.00  0.00    -0.264 N 
ATOM     22  C   UNL     1      -1.374  -0.168   5.691  0.00  0.00    +0.250 C 
ATOM     23  O   UNL     1      -1.891  -1.267   5.653  0.00  0.00    -0.270 OA
ATOM     24  H   UNL     1      -0.304   1.183   4.644  0.00  0.00    +0.157 HD
BRANCH  22  25
ATOM     25  C   UNL     1      -1.466   0.650   6.918  0.00  0.00    +0.037 A 
ATOM     26  C   UNL     1      -0.878   1.916   6.963  0.00  0.00    +0.014 A 
ATOM     27  C   UNL     1      -0.967   2.674   8.112  0.00  0.00    +0.015 A 
ATOM     28  C   UNL     1      -1.638   2.182   9.219  0.00  0.00    +0.013 A 
ATOM     29  C   UNL     1      -2.224   0.928   9.181  0.00  0.00    +0.015 A 
ATOM     30  C   UNL     1      -2.147   0.163   8.036  0.00  0.00    +0.014 A 
ATOM     31  I   UNL     1      -1.767   3.341  10.960  0.00  0.00    -0.044 I 
ENDBRANCH  22  25
ENDBRANCH  19  21
ENDBRANCH  17  19
ENDBRANCH   7  17
TORSDOF 5
