REMARK  Name = ZINC39425997
REMARK  9 active torsions:
REMARK  status: ('A' for Active; 'I' for Inactive)
REMARK    1  A    between atoms: C_1  and  C_2
REMARK    2  A    between atoms: C_2  and  C_3
REMARK    3  A    between atoms: C_2  and  S_4
REMARK    4  A    between atoms: S_4  and  C_5
REMARK    5  A    between atoms: C_13  and  C_20
REMARK    6  A    between atoms: C_15  and  C_18
REMARK    7  A    between atoms: C_16  and  N_17
REMARK    8  A    between atoms: C_30  and  C_32
REMARK    9  A    between atoms: C_30  and  C_33
REMARK                            x       y       z     vdW  Elec       q    Type
REMARK                         _______ _______ _______ _____ _____    ______ ____
ROOT
ATOM      1  C   UNL     1      -0.295   0.352   2.671  0.00  0.00    +0.160 A 
ATOM      2  N   UNL     1      -1.138  -0.574   3.104  0.00  0.00    -0.133 NA
ATOM      3  N   UNL     1      -1.685  -0.499   4.239  0.00  0.00    -0.124 NA
ATOM      4  C   UNL     1      -1.450   0.507   5.065  0.00  0.00    +0.194 A 
ATOM      5  S   UNL     1      -0.293   1.455   4.081  0.00  0.00    -0.024 S 
ATOM      6  N   UNL     1      -1.954   0.755   6.340  0.00  0.00    -0.237 N 
ATOM      7  C   UNL     1      -3.084   1.517   6.487  0.00  0.00    +0.027 C 
ATOM      8  C   UNL     1      -3.370   2.101   7.671  0.00  0.00    +0.025 C 
ATOM      9  C   UNL     1      -2.457   1.933   8.859  0.00  0.00    +0.097 C 
ATOM     10  C   UNL     1      -1.532   0.767   8.671  0.00  0.00    +0.077 C 
ATOM     11  C   UNL     1      -1.318   0.229   7.441  0.00  0.00    +0.108 C 
ATOM     12  C   UNL     1      -4.525   2.887   7.830  0.00  0.00    +0.162 C 
ATOM     13  O   UNL     1      -4.762   3.384   8.913  0.00  0.00    -0.292 OA
ATOM     14  C   UNL     1      -5.472   3.123   6.686  0.00  0.00    +0.086 C 
ATOM     15  C   UNL     1      -4.692   3.044   5.369  0.00  0.00    -0.023 C 
ATOM     16  C   UNL     1      -3.998   1.682   5.298  0.00  0.00    +0.058 C 
ATOM     17  C   UNL     1      -3.644   4.158   5.324  0.00  0.00    +0.011 C 
ATOM     18  C   UNL     1      -5.657   3.192   4.191  0.00  0.00    +0.011 C 
ENDROOT
BRANCH   9  19
ATOM     19  C   UNL     1      -1.639   3.187   9.034  0.00  0.00    -0.033 A 
ATOM     20  C   UNL     1      -0.806   3.617   8.018  0.00  0.00    +0.004 A 
ATOM     21  C   UNL     1      -0.056   4.767   8.179  0.00  0.00    +0.002 A 
ATOM     22  C   UNL     1      -0.138   5.487   9.355  0.00  0.00    +0.020 A 
ATOM     23  C   UNL     1      -0.972   5.058  10.373  0.00  0.00    +0.041 A 
ATOM     24  C   UNL     1      -1.727   3.910  10.209  0.00  0.00    +0.024 A 
ATOM     25 CL   UNL     1      -1.075   5.962  11.851  0.00  0.00    -0.084 Cl
ENDBRANCH   9  19
BRANCH  11  26
ATOM     26  N   UNL     1      -0.463  -0.838   7.295  0.00  0.00    -0.345 N 
ATOM     27  H   UNL     1      -0.240  -1.163   6.409  0.00  0.00    +0.144 HD
ATOM     28  H   UNL     1      -0.083  -1.265   8.079  0.00  0.00    +0.144 HD
ENDBRANCH  11  26
BRANCH  10  29
ATOM     29  C   UNL     1      -0.866   0.207   9.809  0.00  0.00    +0.099 C 
ATOM     30  N   UNL     1      -0.338  -0.237  10.711  0.00  0.00    -0.191 NA
ENDBRANCH  10  29
BRANCH   1  31
ATOM     31  S   UNL     1       0.581   0.461   1.145  0.00  0.00    -0.094 S 
BRANCH  31  33
ATOM     32  C   UNL     1      -1.433  -0.930  -0.076  0.00  0.00    +0.019 C 
ATOM     33  C   UNL     1       0.062  -1.020   0.235  0.00  0.00    +0.047 C 
ATOM     34  C   UNL     1       0.851  -1.116  -1.073  0.00  0.00    +0.019 C 
ENDBRANCH  31  33
ENDBRANCH   1  31
TORSDOF 5
