REMARK  Name = ZINC39696127
REMARK  10 active torsions:
REMARK  status: ('A' for Active; 'I' for Inactive)
REMARK    1  A    between atoms: C_1  and  C_2
REMARK    2  A    between atoms: C_2  and  C_3
REMARK    3  A    between atoms: C_6  and  C_9
REMARK    4  A    between atoms: C_9  and  C_11
REMARK    5  A    between atoms: C_9  and  N_12
REMARK    6  A    between atoms: C_13  and  C_15
REMARK    7  A    between atoms: C_26  and  C_28
REMARK    8  A    between atoms: C_32  and  N_34
REMARK    9  A    between atoms: N_34  and  C_35
REMARK   10  A    between atoms: N_34  and  C_36
REMARK                            x       y       z     vdW  Elec       q    Type
REMARK                         _______ _______ _______ _____ _____    ______ ____
ROOT
ATOM      1  C   UNL     1       2.965  -0.151   7.826  0.00  0.00    +0.100 C 
ATOM      2  C   UNL     1       2.412   1.290   7.760  0.00  0.00    +0.121 C 
ATOM      3  N   UNL     1       2.762   1.886   9.071  0.00  0.00    -0.296 N 
ATOM      4  C   UNL     1       4.120   1.367   9.361  0.00  0.00    +0.115 C 
ATOM      5  C   UNL     1       4.086  -0.096   8.877  0.00  0.00    -0.004 C 
ATOM      6  C   UNL     1       5.422  -0.473   8.244  0.00  0.00    -0.010 C 
ATOM      7  C   UNL     1       6.511  -0.468   9.321  0.00  0.00    -0.082 C 
ATOM      8  N   UNL     1       6.161  -1.424  10.378  0.00  0.00    +0.379 N 
ATOM      9  C   UNL     1       4.922  -1.002  11.044  0.00  0.00    -0.082 C 
ATOM     10  C   UNL     1       3.766  -1.030  10.040  0.00  0.00    -0.010 C 
ATOM     11  C   UNL     1       2.014   2.712   9.829  0.00  0.00    +0.247 C 
ATOM     12  O   UNL     1       0.863   2.947   9.518  0.00  0.00    -0.270 OA
ATOM     13  H   UNL     1       6.029  -2.339   9.973  0.00  0.00    -0.086 HD
ATOM     14  H   UNL     1       6.908  -1.464  11.055  0.00  0.00    -0.086 HD
ENDROOT
BRANCH  11  15
ATOM     15  C   UNL     1       2.594   3.333  11.039  0.00  0.00    +0.039 A 
ATOM     16  C   UNL     1       3.980   3.425  11.183  0.00  0.00    +0.013 A 
ATOM     17  C   UNL     1       4.519   4.005  12.313  0.00  0.00    +0.003 A 
ATOM     18  C   UNL     1       3.692   4.497  13.305  0.00  0.00    +0.023 A 
ATOM     19  C   UNL     1       2.311   4.410  13.171  0.00  0.00    +0.030 A 
ATOM     20  C   UNL     1       1.760   3.835  12.037  0.00  0.00    +0.036 A 
BRANCH  19  21
ATOM     21  N   UNL     1       1.479   4.908  14.178  0.00  0.00    -0.336 N 
ATOM     22  C   UNL     1       2.058   5.392  15.434  0.00  0.00    +0.129 C 
ATOM     23  C   UNL     1       0.029   4.947  13.976  0.00  0.00    +0.129 C 
ENDBRANCH  19  21
ENDBRANCH  11  15
BRANCH   1  25
ATOM     24  N   UNL     1       3.631  -1.868   6.175  0.00  0.00    -0.308 N 
ATOM     25  C   UNL     1       3.520  -0.562   6.487  0.00  0.00    +0.219 C 
ATOM     26  O   UNL     1       3.868   0.284   5.689  0.00  0.00    -0.275 OA
ATOM     27  H   UNL     1       3.353  -2.544   6.813  0.00  0.00    +0.149 HD
BRANCH  24  28
ATOM     28  C   UNL     1       4.171  -2.267   4.873  0.00  0.00    +0.100 C 
ATOM     29  C   UNL     1       5.699  -2.305   4.945  0.00  0.00    +0.033 C 
BRANCH  28  33
ATOM     30  C   UNL     1       2.699  -6.144   3.847  0.00  0.00    -0.048 A 
ATOM     31  C   UNL     1       2.802  -5.165   2.877  0.00  0.00    +0.004 A 
ATOM     32  C   UNL     1       3.278  -3.910   3.209  0.00  0.00    +0.006 A 
ATOM     33  C   UNL     1       3.651  -3.635   4.511  0.00  0.00    -0.027 A 
ATOM     34  C   UNL     1       3.547  -4.614   5.482  0.00  0.00    +0.006 A 
ATOM     35  C   UNL     1       3.067  -5.867   5.151  0.00  0.00    +0.004 A 
BRANCH  30  37
ATOM     36  C   UNL     1       0.658  -7.540   3.650  0.00  0.00    +0.009 C 
ATOM     37  C   UNL     1       2.179  -7.511   3.485  0.00  0.00    +0.032 C 
ENDBRANCH  30  37
ENDBRANCH  28  33
ENDBRANCH  24  28
ENDBRANCH   1  25
TORSDOF 6
