REMARK  Name = ZINC23377508
REMARK  6 active torsions:
REMARK  status: ('A' for Active; 'I' for Inactive)
REMARK    1  A    between atoms: C_3  and  C_26
REMARK    2  A    between atoms: C_6  and  C_7
REMARK    3  A    between atoms: C_7  and  N_8
REMARK    4  A    between atoms: N_11  and  C_14
REMARK    5  A    between atoms: C_14  and  C_15
REMARK    6  A    between atoms: N_20  and  C_21
REMARK                            x       y       z     vdW  Elec       q    Type
REMARK                         _______ _______ _______ _____ _____    ______ ____
ROOT
ATOM      1  N   UNL     1      -1.209   1.116   1.003  0.00  0.00    -0.302 NA
ATOM      2  C   UNL     1      -0.564   0.649  -0.232  0.00  0.00    +0.066 C 
ATOM      3  C   UNL     1      -1.156   1.397  -1.429  0.00  0.00    -0.063 C 
ATOM      4  N   UNL     1      -0.956   2.842  -1.248  0.00  0.00    +0.387 N 
ATOM      5  C   UNL     1      -1.602   3.309  -0.013  0.00  0.00    -0.063 C 
ATOM      6  C   UNL     1      -1.010   2.561   1.184  0.00  0.00    +0.066 C 
ATOM      7  H   UNL     1       0.124   3.027  -1.157  0.00  0.00    -0.081 HD
ENDROOT
BRANCH   1   8
ATOM      8  C   UNL     1      -0.721   0.367   2.168  0.00  0.00    +0.119 C 
BRANCH   8  14
ATOM      9  C   UNL     1      -0.448   2.007   4.039  0.00  0.00    +0.005 A 
ATOM     10  C   UNL     1      -0.899   2.615   5.195  0.00  0.00    +0.012 A 
ATOM     11  C   UNL     1      -2.108   2.237   5.749  0.00  0.00    +0.055 A 
ATOM     12  C   UNL     1      -2.868   1.254   5.144  0.00  0.00    +0.012 A 
ATOM     13  C   UNL     1      -2.419   0.648   3.985  0.00  0.00    +0.005 A 
ATOM     14  C   UNL     1      -1.210   1.027   3.431  0.00  0.00    -0.033 A 
BRANCH  11  15
ATOM     15  C   UNL     1      -2.597   2.897   7.012  0.00  0.00    +0.417 C 
ATOM     16  F   UNL     1      -2.132   2.183   8.122  0.00  0.00    -0.166 F 
ATOM     17  F   UNL     1      -2.117   4.210   7.069  0.00  0.00    -0.166 F 
ATOM     18  F   UNL     1      -3.996   2.911   7.019  0.00  0.00    -0.166 F 
ENDBRANCH  11  15
ENDBRANCH   8  14
ENDBRANCH   1   8
BRANCH   4  19
ATOM     19  C   UNL     1      -1.445   3.591  -2.413  0.00  0.00    +0.019 C 
BRANCH  19  20
ATOM     20  C   UNL     1      -0.592   3.266  -3.612  0.00  0.00    +0.204 C 
ATOM     21  O   UNL     1       0.397   2.576  -3.484  0.00  0.00    -0.277 OA
ATOM     22  N   UNL     1      -0.930   3.741  -4.828  0.00  0.00    -0.242 N 
ATOM     23  C   UNL     1      -0.167   3.450  -5.900  0.00  0.00    +0.306 C 
ATOM     24  O   UNL     1       0.824   2.759  -5.772  0.00  0.00    -0.252 OA
ATOM     25  N   UNL     1      -0.505   3.926  -7.116  0.00  0.00    -0.296 N 
ATOM     26  H   UNL     1      -1.827   4.367  -4.944  0.00  0.00    +0.159 HD
ATOM     27  H   UNL     1      -1.402   4.551  -7.232  0.00  0.00    +0.151 HD
BRANCH  25  28
ATOM     28  C   UNL     1       0.324   3.609  -8.282  0.00  0.00    +0.074 C 
ATOM     29  C   UNL     1       1.452   4.652  -8.427  0.00  0.00    +0.022 C 
ATOM     30  C   UNL     1       1.593   4.848  -9.957  0.00  0.00    +0.002 C 
ATOM     31  C   UNL     1       0.125   4.783 -10.447  0.00  0.00    +0.002 C 
ATOM     32  C   UNL     1      -0.520   3.692  -9.566  0.00  0.00    +0.022 C 
ENDBRANCH  25  28
ENDBRANCH  19  20
ENDBRANCH   4  19
TORSDOF 6
