REMARK  Name = ZINC08861256
REMARK  7 active torsions:
REMARK  status: ('A' for Active; 'I' for Inactive)
REMARK    1  A    between atoms: C_4  and  C_7
REMARK    2  A    between atoms: C_7  and  C_9
REMARK    3  A    between atoms: C_7  and  S_15
REMARK    4  A    between atoms: S_15  and  C_16
REMARK    5  A    between atoms: C_19  and  C_27
REMARK    6  A    between atoms: N_20  and  C_21
REMARK    7  A    between atoms: C_27  and  C_28
REMARK                            x       y       z     vdW  Elec       q    Type
REMARK                         _______ _______ _______ _____ _____    ______ ____
ROOT
ATOM      1  S   UNL     1      -3.606   2.609  -4.749  0.00  0.00    -0.068 S 
ENDROOT
BRANCH   1   2
ATOM      2  C   UNL     1      -2.705   3.099  -3.317  0.00  0.00    +0.193 A 
ATOM      3  N   UNL     1      -1.871   4.110  -3.227  0.00  0.00    -0.122 NA
ATOM      4  N   UNL     1      -1.397   4.180  -2.035  0.00  0.00    -0.133 NA
ATOM      5  C   UNL     1      -1.887   3.221  -1.302  0.00  0.00    +0.139 A 
ATOM      6  N   UNL     1      -2.740   2.500  -2.091  0.00  0.00    -0.303 N 
BRANCH   6   7
ATOM      7  C   UNL     1      -3.529   1.328  -1.701  0.00  0.00    +0.091 C 
ATOM      8  C   UNL     1      -3.131   0.134  -2.571  0.00  0.00    +0.025 C 
ATOM      9  C   UNL     1      -3.954  -1.090  -2.164  0.00  0.00    +0.002 C 
ATOM     10  C   UNL     1      -5.442  -0.790  -2.358  0.00  0.00    +0.000 C 
ATOM     11  C   UNL     1      -5.840   0.404  -1.488  0.00  0.00    +0.002 C 
ATOM     12  C   UNL     1      -5.016   1.627  -1.895  0.00  0.00    +0.025 C 
ENDBRANCH   6   7
BRANCH   5  13
ATOM     13  C   UNL     1      -1.575   2.958   0.149  0.00  0.00    +0.118 C 
BRANCH  13  14
ATOM     14  C   UNL     1      -0.399   2.021   0.249  0.00  0.00    -0.003 A 
ATOM     15  C   UNL     1       0.923   2.313   0.308  0.00  0.00    +0.011 A 
ATOM     16  C   UNL     1       1.835   1.278   0.392  0.00  0.00    +0.008 A 
ATOM     17  C   UNL     1       1.381   0.002   0.412  0.00  0.00    +0.045 A 
ATOM     18  S   UNL     1      -0.386   0.236   0.311  0.00  0.00    -0.101 S 
ENDBRANCH  13  14
ENDBRANCH   5  13
ENDBRANCH   1   2
BRANCH   1  19
ATOM     19  C   UNL     1      -3.035   3.861  -5.925  0.00  0.00    +0.170 C 
BRANCH  19  20
ATOM     20  C   UNL     1      -3.502   5.221  -5.476  0.00  0.00    +0.238 C 
ATOM     21  O   UNL     1      -2.840   6.205  -5.731  0.00  0.00    -0.274 OA
ATOM     22  N   UNL     1      -4.657   5.345  -4.791  0.00  0.00    -0.239 N 
ATOM     23  C   UNL     1      -5.131   6.569  -4.486  0.00  0.00    +0.303 C 
ATOM     24  O   UNL     1      -4.518   7.561  -4.828  0.00  0.00    -0.253 OA
ATOM     25  N   UNL     1      -6.285   6.693  -3.801  0.00  0.00    -0.313 N 
ATOM     26  H   UNL     1      -5.146   4.554  -4.518  0.00  0.00    +0.159 HD
ATOM     27  H   UNL     1      -6.774   5.901  -3.528  0.00  0.00    +0.146 HD
ATOM     28  H   UNL     1      -6.626   7.574  -3.581  0.00  0.00    +0.146 HD
ENDBRANCH  19  20
BRANCH  19  32
ATOM     29  C   UNL     1      -4.628   3.012  -9.796  0.00  0.00    +0.000 A 
ATOM     30  C   UNL     1      -3.261   2.987  -9.590  0.00  0.00    +0.000 A 
ATOM     31  C   UNL     1      -2.746   3.261  -8.338  0.00  0.00    +0.005 A 
ATOM     32  C   UNL     1      -3.597   3.562  -7.291  0.00  0.00    -0.025 A 
ATOM     33  C   UNL     1      -4.964   3.582  -7.495  0.00  0.00    +0.005 A 
ATOM     34  C   UNL     1      -5.479   3.312  -8.749  0.00  0.00    +0.000 A 
ENDBRANCH  19  32
ENDBRANCH   1  19
TORSDOF 7
