REMARK  Name = ZINC21558505
REMARK  5 active torsions:
REMARK  status: ('A' for Active; 'I' for Inactive)
REMARK    1  A    between atoms: C_4  and  C_7
REMARK    2  A    between atoms: C_7  and  C_9
REMARK    3  A    between atoms: C_7  and  N_12
REMARK    4  A    between atoms: C_13  and  C_15
REMARK    5  A    between atoms: C_15  and  N_16
REMARK                            x       y       z     vdW  Elec       q    Type
REMARK                         _______ _______ _______ _____ _____    ______ ____
ROOT
ATOM      1  N   UNL     1       6.012  -3.944   2.758  0.00  0.00    -0.215 N 
ATOM      2  C   UNL     1       6.830  -4.801   2.112  0.00  0.00    +0.252 C 
ATOM      3  O   UNL     1       6.602  -5.397   1.082  0.00  0.00    -0.272 OA
ATOM      4  C   UNL     1       8.090  -4.860   2.945  0.00  0.00    +0.144 C 
ATOM      5  C   UNL     1       8.326  -6.280   3.451  0.00  0.00    +0.081 C 
ATOM      6  C   UNL     1       9.736  -6.351   4.052  0.00  0.00    +0.232 C 
ATOM      7  O   UNL     1      10.684  -6.105   3.012  0.00  0.00    -0.492 OA
ATOM      8  C   UNL     1      10.495  -5.017   2.221  0.00  0.00    +0.126 A 
ATOM      9  C   UNL     1       9.268  -4.378   2.146  0.00  0.00    +0.027 A 
ATOM     10  C   UNL     1       9.117  -3.274   1.323  0.00  0.00    +0.010 A 
ATOM     11  C   UNL     1      10.184  -2.807   0.580  0.00  0.00    +0.001 A 
ATOM     12  C   UNL     1      11.410  -3.441   0.656  0.00  0.00    +0.004 A 
ATOM     13  C   UNL     1      11.567  -4.542   1.473  0.00  0.00    +0.046 A 
ATOM     14  N   UNL     1       7.821  -3.951   4.066  0.00  0.00    -0.281 N 
ATOM     15  C   UNL     1       6.583  -3.458   3.867  0.00  0.00    +0.310 C 
ATOM     16  O   UNL     1       6.044  -2.664   4.613  0.00  0.00    -0.252 OA
ATOM     17  H   UNL     1       8.418  -3.744   4.802  0.00  0.00    +0.152 HD
ENDROOT
BRANCH   1  18
ATOM     18  C   UNL     1       4.668  -3.585   2.299  0.00  0.00    +0.213 C 
BRANCH  18  20
ATOM     19  N   UNL     1       3.630  -1.873   0.845  0.00  0.00    -0.307 N 
ATOM     20  C   UNL     1       4.751  -2.385   1.391  0.00  0.00    +0.231 C 
ATOM     21  O   UNL     1       5.828  -1.880   1.151  0.00  0.00    -0.274 OA
ATOM     22  H   UNL     1       2.769  -2.277   1.038  0.00  0.00    +0.149 HD
BRANCH  19  23
ATOM     23  C   UNL     1       3.711  -0.707  -0.038  0.00  0.00    +0.106 C 
BRANCH  23  27
ATOM     24  C   UNL     1      -0.017   1.378   0.010  0.00  0.00    +0.000 A 
ATOM     25  C   UNL     1       1.171   2.086   0.002  0.00  0.00    +0.000 A 
ATOM     26  C   UNL     1       2.377   1.411  -0.013  0.00  0.00    +0.005 A 
ATOM     27  C   UNL     1       2.396   0.029  -0.020  0.00  0.00    -0.027 A 
ATOM     28  C   UNL     1       1.208  -0.679  -0.012  0.00  0.00    +0.005 A 
ATOM     29  C   UNL     1       0.002  -0.004   0.002  0.00  0.00    +0.000 A 
ENDBRANCH  23  27
BRANCH  23  30
ATOM     30  C   UNL     1       4.019  -1.168  -1.464  0.00  0.00    +0.014 C 
ATOM     31  C   UNL     1       3.979  -2.671  -1.745  0.00  0.00    +0.006 C 
ATOM     32  C   UNL     1       5.321  -1.938  -1.692  0.00  0.00    +0.006 C 
ENDBRANCH  23  30
ENDBRANCH  19  23
ENDBRANCH  18  20
ENDBRANCH   1  18
TORSDOF 5
