REMARK  Name = ZINC36213584
REMARK  7 active torsions:
REMARK  status: ('A' for Active; 'I' for Inactive)
REMARK    1  A    between atoms: C_1  and  C_2
REMARK    2  A    between atoms: C_2  and  N_3
REMARK    3  A    between atoms: C_9  and  C_12
REMARK    4  A    between atoms: C_12  and  C_14
REMARK    5  A    between atoms: C_12  and  N_24
REMARK    6  A    between atoms: C_21  and  C_23
REMARK    7  A    between atoms: C_25  and  C_27
REMARK                            x       y       z     vdW  Elec       q    Type
REMARK                         _______ _______ _______ _____ _____    ______ ____
ROOT
ATOM      1  C   UNL     1       5.497  -3.253   4.040  0.00  0.00    +0.162 C 
ENDROOT
BRANCH   1   8
ATOM      2  N   UNL     1       1.329  -0.126   0.780  0.00  0.00    -0.300 N 
ATOM      3  C   UNL     1       1.472  -1.465   0.829  0.00  0.00    +0.302 C 
ATOM      4  O   UNL     1       1.113  -2.150  -0.110  0.00  0.00    -0.253 OA
ATOM      5  N   UNL     1       2.012  -2.046   1.919  0.00  0.00    -0.286 N 
ATOM      6  C   UNL     1       2.348  -1.245   3.104  0.00  0.00    +0.109 C 
ATOM      7  C   UNL     1       3.814  -1.497   3.470  0.00  0.00    +0.025 C 
ATOM      8  C   UNL     1       4.042  -3.001   3.641  0.00  0.00    +0.021 C 
ATOM      9  C   UNL     1       3.744  -3.717   2.322  0.00  0.00    +0.025 C 
ATOM     10  C   UNL     1       2.272  -3.491   1.946  0.00  0.00    +0.109 C 
ATOM     11  H   UNL     1       1.552   0.414   1.554  0.00  0.00    +0.150 HD
BRANCH   2  13
ATOM     12  C   UNL     1       0.769   2.028  -0.234  0.00  0.00    +0.024 C 
ATOM     13  C   UNL     1       0.838   0.514  -0.443  0.00  0.00    +0.102 C 
ENDBRANCH   2  13
ENDBRANCH   1   8
BRANCH   1  14
ATOM     14  C   UNL     1       5.719  -4.732   4.222  0.00  0.00    +0.236 C 
ATOM     15  O   UNL     1       6.322  -5.363   3.380  0.00  0.00    -0.274 OA
ATOM     16  N   UNL     1       5.247  -5.354   5.321  0.00  0.00    -0.297 N 
ATOM     17  C   UNL     1       4.409  -4.633   6.288  0.00  0.00    +0.108 C 
ATOM     18  C   UNL     1       3.113  -5.421   6.502  0.00  0.00    +0.019 C 
ATOM     19  C   UNL     1       3.455  -6.855   6.914  0.00  0.00    +0.003 C 
ATOM     20  C   UNL     1       4.253  -7.531   5.797  0.00  0.00    +0.022 C 
ATOM     21  C   UNL     1       5.557  -6.769   5.572  0.00  0.00    +0.073 C 
ATOM     22  C   UNL     1       6.290  -7.355   4.364  0.00  0.00    +0.028 C 
ENDBRANCH   1  14
BRANCH   1  23
ATOM     23  N   UNL     1       6.386  -2.752   2.989  0.00  0.00    -0.300 N 
ATOM     24  C   UNL     1       7.651  -2.394   3.289  0.00  0.00    +0.245 C 
ATOM     25  O   UNL     1       8.054  -2.488   4.432  0.00  0.00    -0.270 OA
ATOM     26  H   UNL     1       6.065  -2.677   2.077  0.00  0.00    +0.150 HD
BRANCH  24  27
ATOM     27  C   UNL     1       8.547  -1.889   2.228  0.00  0.00    +0.037 A 
ATOM     28  C   UNL     1       8.086  -1.774   0.916  0.00  0.00    +0.013 A 
ATOM     29  C   UNL     1       8.928  -1.301  -0.069  0.00  0.00    +0.001 A 
ATOM     30  C   UNL     1      10.227  -0.941   0.241  0.00  0.00    +0.000 A 
ATOM     31  C   UNL     1      10.691  -1.052   1.540  0.00  0.00    +0.001 A 
ATOM     32  C   UNL     1       9.857  -1.518   2.536  0.00  0.00    +0.013 A 
ENDBRANCH  24  27
ENDBRANCH   1  23
TORSDOF 5
