REMARK  Name = ZINC04028997
REMARK  5 active torsions:
REMARK  status: ('A' for Active; 'I' for Inactive)
REMARK    1  A    between atoms: C_1  and  C_2
REMARK    2  A    between atoms: C_5  and  O_31
REMARK    3  A    between atoms: C_18  and  C_30
REMARK    4  A    between atoms: C_23  and  N_25
REMARK    5  A    between atoms: C_26  and  C_28
REMARK                            x       y       z     vdW  Elec       q    Type
REMARK                         _______ _______ _______ _____ _____    ______ ____
ROOT
ATOM      1  C   UNL     1       1.365   3.518  -0.547  0.00  0.00    +0.012 C 
ATOM      2  C   UNL     1       0.254   3.670  -1.571  0.00  0.00    -0.026 C 
ATOM      3  C   UNL     1       0.826   3.162  -2.981  0.00  0.00    +0.010 C 
ATOM      4  C   UNL     1       1.954   4.040  -3.374  0.00  0.00    +0.032 C 
ATOM      5  C   UNL     1       1.500   5.537  -3.503  0.00  0.00    +0.115 C 
ATOM      6  C   UNL     1       0.970   5.957  -2.167  0.00  0.00    +0.035 C 
ATOM      7  C   UNL     1      -0.216   5.130  -1.760  0.00  0.00    -0.002 C 
ATOM      8  C   UNL     1      -0.838   5.574  -0.477  0.00  0.00    +0.004 C 
ATOM      9  C   UNL     1      -2.118   4.759  -0.209  0.00  0.00    +0.004 C 
ATOM     10  C   UNL     1      -1.784   3.272  -0.041  0.00  0.00    -0.004 C 
ATOM     11  C   UNL     1      -0.927   2.769  -1.271  0.00  0.00    -0.001 C 
ATOM     12  C   UNL     1      -0.590   1.308  -1.145  0.00  0.00    +0.005 C 
ATOM     13  C   UNL     1      -0.117   0.937   0.279  0.00  0.00    +0.009 C 
ATOM     14  C   UNL     1      -0.786   1.501   1.408  0.00  0.00    -0.011 C 
ATOM     15  C   UNL     1      -1.065   2.954   1.286  0.00  0.00    +0.000 C 
ATOM     16  C   UNL     1      -2.146   3.179   2.337  0.00  0.00    +0.006 C 
ATOM     17  C   UNL     1      -2.988   1.913   2.419  0.00  0.00    +0.023 C 
ATOM     18  C   UNL     1      -1.986   0.757   1.884  0.00  0.00    +0.079 C 
ATOM     19  C   UNL     1       0.212   1.389   2.628  0.00  0.00    +0.013 C 
ENDROOT
BRANCH  18  20
ATOM     20  N   UNL     1      -2.615   0.127   0.763  0.00  0.00    -0.311 N 
ATOM     21  C   UNL     1      -2.768  -1.212   0.742  0.00  0.00    +0.228 C 
ATOM     22  O   UNL     1      -2.375  -1.882   1.672  0.00  0.00    -0.275 OA
ATOM     23  H   UNL     1      -2.929   0.664   0.019  0.00  0.00    +0.149 HD
BRANCH  21  24
ATOM     24  C   UNL     1      -3.430  -1.875  -0.439  0.00  0.00    +0.204 C 
ATOM     25 CL   UNL     1      -3.487  -3.657  -0.172  0.00  0.00    -0.116 Cl
ENDBRANCH  21  24
ENDBRANCH  18  20
BRANCH   5  26
ATOM     26  O   UNL     1       2.714   6.335  -3.881  0.00  0.00    -0.392 OA
ATOM     27  H   UNL     1       3.090   6.096  -4.739  0.00  0.00    +0.210 HD
ENDBRANCH   5  26
TORSDOF 3
