REMARK  Name = ZINC12789683
REMARK  6 active torsions:
REMARK  status: ('A' for Active; 'I' for Inactive)
REMARK    1  A    between atoms: C_1  and  C_2
REMARK    2  A    between atoms: C_7  and  S_25
REMARK    3  A    between atoms: N_11  and  C_12
REMARK    4  A    between atoms: C_12  and  C_13
REMARK    5  A    between atoms: C_15  and  C_18
REMARK    6  A    between atoms: S_25  and  N_28
REMARK                            x       y       z     vdW  Elec       q    Type
REMARK                         _______ _______ _______ _____ _____    ______ ____
ROOT
ATOM      1  C   UNL     1       2.065  -0.437  -1.862  0.00  0.00    +0.028 C 
ATOM      2  C   UNL     1       3.508  -0.120  -2.258  0.00  0.00    +0.075 C 
ATOM      3  C   UNL     1       3.558   0.578  -3.637  0.00  0.00    +0.059 C 
ATOM      4  C   UNL     1       3.532   2.049  -3.271  0.00  0.00    -0.023 A 
ATOM      5  C   UNL     1       3.263   3.173  -4.023  0.00  0.00    +0.034 A 
ATOM      6  C   UNL     1       3.293   4.424  -3.434  0.00  0.00    +0.105 A 
ATOM      7  C   UNL     1       3.592   4.545  -2.089  0.00  0.00    +0.030 A 
ATOM      8  C   UNL     1       3.864   3.424  -1.333  0.00  0.00    +0.025 A 
ATOM      9  C   UNL     1       3.840   2.160  -1.921  0.00  0.00    +0.034 A 
ATOM     10  N   UNL     1       4.086   0.902  -1.358  0.00  0.00    -0.318 N 
ENDROOT
BRANCH   6  11
ATOM     11  S   UNL     1       2.949   5.861  -4.394  0.00  0.00    +0.056 S 
ATOM     12  O   UNL     1       2.165   5.432  -5.499  0.00  0.00    -0.153 OA
ATOM     13  O   UNL     1       2.506   6.860  -3.487  0.00  0.00    -0.153 OA
BRANCH  11  14
ATOM     14  N   UNL     1       4.390   6.391  -5.015  0.00  0.00    -0.204 NA
ATOM     15  H   UNL     1       5.210   5.912  -4.814  0.00  0.00    +0.144 HD
ATOM     16  H   UNL     1       4.415   7.180  -5.579  0.00  0.00    +0.144 HD
ENDBRANCH  11  14
ENDBRANCH   6  11
BRANCH  10  17
ATOM     17  C   UNL     1       3.508   0.805  -0.011  0.00  0.00    +0.204 C 
BRANCH  17  18
ATOM     18  C   UNL     1       3.800  -0.556   0.565  0.00  0.00    +0.245 A 
ATOM     19  N   UNL     1       4.904  -0.926   1.166  0.00  0.00    -0.190 NA
ATOM     20  C   UNL     1       4.714  -2.219   1.510  0.00  0.00    +0.202 A 
ATOM     21  N   UNL     1       3.518  -2.556   1.102  0.00  0.00    -0.056 NA
ATOM     22  O   UNL     1       2.983  -1.614   0.558  0.00  0.00    -0.336 OA
BRANCH  20  23
ATOM     23  C   UNL     1       5.682  -3.094   2.219  0.00  0.00    +0.023 A 
ATOM     24  C   UNL     1       6.930  -2.598   2.591  0.00  0.00    +0.012 A 
ATOM     25  C   UNL     1       7.824  -3.413   3.254  0.00  0.00    +0.002 A 
ATOM     26  C   UNL     1       7.488  -4.724   3.541  0.00  0.00    +0.015 A 
ATOM     27  C   UNL     1       6.253  -5.224   3.169  0.00  0.00    +0.019 A 
ATOM     28  C   UNL     1       5.348  -4.415   2.509  0.00  0.00    +0.027 A 
ATOM     29 BR   UNL     1       5.802  -7.017   3.563  0.00  0.00    -0.050 Br
ENDBRANCH  20  23
ENDBRANCH  17  18
ENDBRANCH  10  17
TORSDOF 5
