REMARK  Name = ZINC22809938
REMARK  7 active torsions:
REMARK  status: ('A' for Active; 'I' for Inactive)
REMARK    1  A    between atoms: C_3  and  C_6
REMARK    2  A    between atoms: C_6  and  C_8
REMARK    3  A    between atoms: C_6  and  N_15
REMARK    4  A    between atoms: C_16  and  C_18
REMARK    5  A    between atoms: C_18  and  N_19
REMARK    6  A    between atoms: N_22  and  C_25
REMARK    7  A    between atoms: C_25  and  C_26
REMARK                            x       y       z     vdW  Elec       q    Type
REMARK                         _______ _______ _______ _____ _____    ______ ____
ROOT
ATOM      1  C   UNL     1       5.220   0.821  -3.105  0.00  0.00    +0.180 C 
ENDROOT
BRANCH   1   2
ATOM      2  N   UNL     1       5.150   1.219  -4.518  0.00  0.00    -0.292 NA
ATOM      3  C   UNL     1       3.788   1.057  -5.044  0.00  0.00    +0.100 C 
ATOM      4  C   UNL     1       3.740   1.556  -6.490  0.00  0.00    +0.100 C 
ATOM      5  N   UNL     1       4.707   0.800  -7.298  0.00  0.00    -0.294 NA
ATOM      6  C   UNL     1       6.069   0.962  -6.772  0.00  0.00    +0.100 C 
ATOM      7  C   UNL     1       6.117   0.463  -5.326  0.00  0.00    +0.100 C 
BRANCH   5   8
ATOM      8  C   UNL     1       4.637   1.198  -8.711  0.00  0.00    +0.137 C 
BRANCH   8   9
ATOM      9  C   UNL     1       3.409   0.595  -9.343  0.00  0.00    +0.037 A 
ATOM     10  C   UNL     1       2.389   1.400  -9.803  0.00  0.00    +0.093 A 
ATOM     11  C   UNL     1       1.260   0.824 -10.385  0.00  0.00    +0.259 A 
ATOM     12  O   UNL     1       0.354   1.532 -10.795  0.00  0.00    -0.267 OA
ATOM     13  N   UNL     1       1.170  -0.535 -10.498  0.00  0.00    -0.264 N 
ATOM     14  C   UNL     1       0.130  -1.248 -11.044  0.00  0.00    +0.104 A 
ATOM     15  C   UNL     1       0.160  -2.579 -11.096  0.00  0.00    +0.067 A 
ATOM     16  S   UNL     1       1.738  -2.939 -10.340  0.00  0.00    -0.059 S 
ATOM     17  C   UNL     1       2.228  -1.259 -10.015  0.00  0.00    +0.158 A 
ATOM     18  N   UNL     1       3.293  -0.724  -9.472  0.00  0.00    -0.338 N 
ATOM     19  H   UNL     1       4.007  -1.299  -9.155  0.00  0.00    +0.168 HD
ENDBRANCH   8   9
ENDBRANCH   5   8
ENDBRANCH   1   2
BRANCH   1  21
ATOM     20  N   UNL     1       4.319   1.605  -0.939  0.00  0.00    -0.303 N 
ATOM     21  C   UNL     1       4.402   1.775  -2.273  0.00  0.00    +0.228 C 
ATOM     22  O   UNL     1       3.819   2.696  -2.805  0.00  0.00    -0.274 OA
ATOM     23  H   UNL     1       4.786   0.869  -0.514  0.00  0.00    +0.150 HD
BRANCH  20  24
ATOM     24  C   UNL     1       3.524   2.533  -0.131  0.00  0.00    +0.140 C 
BRANCH  24  25
ATOM     25  C   UNL     1       4.046   2.542   1.283  0.00  0.00    -0.022 A 
ATOM     26  C   UNL     1       4.449   1.360   1.878  0.00  0.00    +0.008 A 
ATOM     27  C   UNL     1       4.928   1.367   3.174  0.00  0.00    +0.038 A 
ATOM     28  C   UNL     1       5.005   2.558   3.877  0.00  0.00    +0.123 A 
ATOM     29  C   UNL     1       4.602   3.740   3.280  0.00  0.00    +0.038 A 
ATOM     30  C   UNL     1       4.128   3.732   1.982  0.00  0.00    +0.008 A 
ATOM     31  F   UNL     1       5.473   2.565   5.144  0.00  0.00    -0.205 F 
ENDBRANCH  24  25
BRANCH  24  34
ATOM     32  C   UNL     1      -0.272   2.219  -0.191  0.00  0.00    +0.008 A 
ATOM     33  C   UNL     1       0.960   2.846  -0.208  0.00  0.00    +0.013 A 
ATOM     34  C   UNL     1       2.083   2.092  -0.131  0.00  0.00    +0.014 A 
ATOM     35  S   UNL     1       1.413   0.440  -0.032  0.00  0.00    -0.099 S 
ATOM     36  C   UNL     1      -0.319   0.867  -0.099  0.00  0.00    +0.045 A 
ENDBRANCH  24  34
ENDBRANCH  20  24
ENDBRANCH   1  21
TORSDOF 7
