REMARK  Name = ZINC09105146
REMARK  11 active torsions:
REMARK  status: ('A' for Active; 'I' for Inactive)
REMARK    1  A    between atoms: C_1  and  C_2
REMARK    2  A    between atoms: C_2  and  C_3
REMARK    3  A    between atoms: C_2  and  C_4
REMARK    4  A    between atoms: C_7  and  S_10
REMARK    5  A    between atoms: S_10  and  C_13
REMARK    6  A    between atoms: C_13  and  C_15
REMARK    7  A    between atoms: C_13  and  C_30
REMARK    8  A    between atoms: C_15  and  N_16
REMARK    9  A    between atoms: C_17  and  C_19
REMARK   10  A    between atoms: N_21  and  N_22
REMARK   11  A    between atoms: C_23  and  C_25
REMARK                            x       y       z     vdW  Elec       q    Type
REMARK                         _______ _______ _______ _____ _____    ______ ____
ROOT
ATOM      1  C   UNL     1       0.918   5.160   0.020  0.00  0.00    +0.189 C 
ENDROOT
BRANCH   1   2
ATOM      2  C   UNL     1       0.421   3.738   0.017  0.00  0.00    +0.016 A 
ATOM      3  C   UNL     1      -0.855   3.279   0.027  0.00  0.00    +0.013 A 
ATOM      4  C   UNL     1      -1.077   1.915   0.017  0.00  0.00    +0.008 A 
ATOM      5  C   UNL     1      -0.013   1.076   0.008  0.00  0.00    +0.045 A 
ATOM      6  S   UNL     1       1.359   2.219   0.001  0.00  0.00    -0.100 S 
ENDBRANCH   1   2
BRANCH   1   7
ATOM      7  S   UNL     1       1.911   5.456  -1.469  0.00  0.00    +0.006 S 
ATOM      8  O   UNL     1       2.238   6.835  -1.574  0.00  0.00    -0.169 OA
ATOM      9  O   UNL     1       2.918   4.461  -1.591  0.00  0.00    -0.169 OA
BRANCH   7  13
ATOM     10  C   UNL     1      -0.908   4.673  -4.923  0.00  0.00    -0.045 A 
ATOM     11  C   UNL     1      -0.808   5.943  -4.387  0.00  0.00    +0.006 A 
ATOM     12  C   UNL     1       0.053   6.183  -3.332  0.00  0.00    +0.027 A 
ATOM     13  C   UNL     1       0.813   5.151  -2.814  0.00  0.00    +0.089 A 
ATOM     14  C   UNL     1       0.717   3.882  -3.353  0.00  0.00    +0.027 A 
ATOM     15  C   UNL     1      -0.147   3.642  -4.405  0.00  0.00    +0.006 A 
BRANCH  10  17
ATOM     16  C   UNL     1      -1.053   3.900  -7.275  0.00  0.00    +0.012 C 
ATOM     17  C   UNL     1      -1.848   4.412  -6.072  0.00  0.00    +0.013 C 
ATOM     18  C   UNL     1      -2.881   3.362  -5.658  0.00  0.00    +0.012 C 
ENDBRANCH  10  17
ENDBRANCH   7  13
ENDBRANCH   1   7
BRANCH   1  19
ATOM     19  C   UNL     1       1.779   5.398   1.262  0.00  0.00    +0.136 C 
BRANCH  19  20
ATOM     20  N   UNL     1       2.262   6.781   1.264  0.00  0.00    -0.305 N 
ATOM     21  C   UNL     1       3.045   7.220   2.270  0.00  0.00    +0.301 C 
ATOM     22  O   UNL     1       3.349   6.469   3.174  0.00  0.00    -0.265 OA
ATOM     23  H   UNL     1       2.019   7.381   0.542  0.00  0.00    +0.149 HD
BRANCH  21  24
ATOM     24  C   UNL     1       3.538   8.630   2.272  0.00  0.00    +0.315 C 
ATOM     25  O   UNL     1       3.233   9.381   1.368  0.00  0.00    -0.264 OA
ATOM     26  N   UNL     1       4.320   9.069   3.278  0.00  0.00    -0.226 N 
ATOM     27  H   UNL     1       4.563   8.469   4.000  0.00  0.00    +0.173 HD
BRANCH  26  28
ATOM     28  N   UNL     1       4.782  10.392   3.280  0.00  0.00    -0.230 N 
ATOM     29  C   UNL     1       5.565  10.831   4.286  0.00  0.00    +0.267 C 
ATOM     30  O   UNL     1       5.870  10.078   5.192  0.00  0.00    -0.268 OA
ATOM     31  H   UNL     1       4.539  10.992   2.558  0.00  0.00    +0.173 HD
BRANCH  29  32
ATOM     32  C   UNL     1       6.049  12.214   4.288  0.00  0.00    +0.075 A 
ATOM     33  C   UNL     1       6.849  12.859   5.218  0.00  0.00    +0.021 A 
ATOM     34  C   UNL     1       7.159  14.173   4.972  0.00  0.00    +0.008 A 
ATOM     35  C   UNL     1       6.669  14.773   3.856  0.00  0.00    +0.046 A 
ATOM     36  S   UNL     1       5.755  13.510   3.097  0.00  0.00    -0.092 S 
ENDBRANCH  29  32
ENDBRANCH  26  28
ENDBRANCH  21  24
ENDBRANCH  19  20
ENDBRANCH   1  19
TORSDOF 9
