REMARK  Name = ZINC41949126
REMARK  6 active torsions:
REMARK  status: ('A' for Active; 'I' for Inactive)
REMARK    1  A    between atoms: C_1  and  C_2
REMARK    2  A    between atoms: C_6  and  C_7
REMARK    3  A    between atoms: C_7  and  N_8
REMARK    4  A    between atoms: C_9  and  C_11
REMARK    5  A    between atoms: N_13  and  C_14
REMARK    6  A    between atoms: C_17  and  C_20
REMARK                            x       y       z     vdW  Elec       q    Type
REMARK                         _______ _______ _______ _____ _____    ______ ____
ROOT
ATOM      1  C   UNL     1      -2.995   0.581   4.779  0.00  0.00    +0.303 C 
ATOM      2  O   UNL     1      -3.921   0.306   4.045  0.00  0.00    -0.265 OA
ATOM      3  N   UNL     1      -3.235   1.032   6.026  0.00  0.00    -0.278 N 
ATOM      4  H   UNL     1      -2.497   1.188   6.636  0.00  0.00    +0.155 HD
ENDROOT
BRANCH   3   5
ATOM      5  C   UNL     1      -4.543   1.274   6.440  0.00  0.00    +0.034 A 
ATOM      6  C   UNL     1      -5.575   0.455   5.992  0.00  0.00    +0.024 A 
ATOM      7  C   UNL     1      -6.869   0.691   6.399  0.00  0.00    +0.015 A 
ATOM      8  C   UNL     1      -7.145   1.755   7.262  0.00  0.00    +0.037 A 
ATOM      9  C   UNL     1      -6.106   2.575   7.710  0.00  0.00    +0.015 A 
ATOM     10  C   UNL     1      -4.814   2.331   7.304  0.00  0.00    +0.024 A 
BRANCH   8  11
ATOM     11  C   UNL     1      -8.531   2.012   7.700  0.00  0.00    +0.242 C 
ATOM     12  O   UNL     1      -9.434   1.297   7.309  0.00  0.00    -0.270 OA
ATOM     13  N   UNL     1      -8.796   3.038   8.532  0.00  0.00    -0.325 N 
ATOM     14  H   UNL     1      -8.075   3.608   8.844  0.00  0.00    +0.145 HD
ATOM     15  H   UNL     1      -9.707   3.207   8.820  0.00  0.00    +0.145 HD
ENDBRANCH   8  11
ENDBRANCH   3   5
BRANCH   1  17
ATOM     16  N   UNL     1      -1.349  -0.032   3.054  0.00  0.00    -0.303 N 
ATOM     17  C   UNL     1      -1.589   0.419   4.301  0.00  0.00    +0.300 C 
ATOM     18  O   UNL     1      -0.663   0.694   5.036  0.00  0.00    -0.265 OA
ATOM     19  H   UNL     1      -2.089  -0.252   2.467  0.00  0.00    +0.149 HD
BRANCH  16  20
ATOM     20  C   UNL     1       0.030  -0.190   2.586  0.00  0.00    +0.147 C 
BRANCH  20  26
ATOM     21  C   UNL     1       0.001   1.500   0.021  0.00  0.00    +0.044 C 
ATOM     22  C   UNL     1       0.011  -0.007   0.007  0.00  0.00    -0.039 A 
ATOM     23  C   UNL     1       0.013  -0.698  -1.190  0.00  0.00    +0.011 A 
ATOM     24  C   UNL     1       0.022  -2.053  -1.167  0.00  0.00    +0.046 A 
ATOM     25  S   UNL     1       0.028  -2.393   0.586  0.00  0.00    -0.100 S 
ATOM     26  C   UNL     1       0.024  -0.705   1.169  0.00  0.00    +0.010 A 
ENDBRANCH  20  26
ENDBRANCH  16  20
ENDBRANCH   1  17
TORSDOF 5
