REMARK  Name = ZINC22539596
REMARK  15 active torsions:
REMARK  status: ('A' for Active; 'I' for Inactive)
REMARK    1  A    between atoms: C_1  and  C_2
REMARK    2  A    between atoms: C_4  and  C_37
REMARK    3  A    between atoms: C_5  and  S_9
REMARK    4  A    between atoms: C_6  and  C_8
REMARK    5  A    between atoms: S_9  and  N_12
REMARK    6  A    between atoms: N_12  and  C_13
REMARK    7  A    between atoms: C_13  and  C_15
REMARK    8  A    between atoms: C_13  and  C_22
REMARK    9  A    between atoms: C_15  and  C_16
REMARK   10  A    between atoms: N_24  and  C_25
REMARK   11  A    between atoms: C_25  and  C_27
REMARK   12  A    between atoms: C_25  and  C_28
REMARK   13  A    between atoms: C_30  and  C_36
REMARK   14  A    between atoms: C_31  and  C_35
REMARK   15  A    between atoms: C_33  and  C_34
REMARK                            x       y       z     vdW  Elec       q    Type
REMARK                         _______ _______ _______ _____ _____    ______ ____
ROOT
ATOM      1  C   UNL     1       5.116   0.004  -2.486  0.00  0.00    +0.166 C 
ENDROOT
BRANCH   1   2
ATOM      2  C   UNL     1       6.047  -0.803  -3.353  0.00  0.00    +0.232 C 
ATOM      3  O   UNL     1       6.224  -1.980  -3.122  0.00  0.00    -0.274 OA
ATOM      4  N   UNL     1       6.685  -0.216  -4.385  0.00  0.00    -0.307 N 
ATOM      5  H   UNL     1       6.525   0.852  -4.595  0.00  0.00    +0.149 HD
BRANCH   4   6
ATOM      6  C   UNL     1       7.590  -1.000  -5.228  0.00  0.00    +0.100 C 
ATOM      7  C   UNL     1       8.978  -1.041  -4.586  0.00  0.00    +0.033 C 
BRANCH   6   8
ATOM      8  C   UNL     1       7.686  -0.363  -6.591  0.00  0.00    -0.024 A 
ATOM      9  C   UNL     1       7.428   0.986  -6.743  0.00  0.00    +0.009 A 
ATOM     10  C   UNL     1       7.521   1.571  -7.991  0.00  0.00    -0.047 A 
ATOM     11  C   UNL     1       7.862   0.805  -9.090  0.00  0.00    -0.047 A 
ATOM     12  C   UNL     1       8.115  -0.545  -8.939  0.00  0.00    +0.007 A 
ATOM     13  C   UNL     1       8.027  -1.130  -7.689  0.00  0.00    -0.045 A 
ATOM     14  C   UNL     1       8.303  -2.602  -7.525  0.00  0.00    +0.044 C 
ATOM     15  C   UNL     1       7.958   1.442 -10.453  0.00  0.00    +0.044 C 
ATOM     16  C   UNL     1       7.246   3.044  -8.156  0.00  0.00    +0.044 C 
ENDBRANCH   6   8
ENDBRANCH   4   6
ENDBRANCH   1   2
BRANCH   1  17
ATOM     17  N   UNL     1       4.553  -0.856  -1.442  0.00  0.00    -0.178 NA
ATOM     18  H   UNL     1       3.563  -1.316  -1.582  0.00  0.00    +0.149 HD
BRANCH  17  19
ATOM     19  S   UNL     1       5.281  -0.941   0.043  0.00  0.00    +0.060 S 
ATOM     20  O   UNL     1       6.661  -1.180  -0.195  0.00  0.00    -0.153 OA
ATOM     21  O   UNL     1       4.483  -1.808   0.838  0.00  0.00    -0.153 OA
BRANCH  19  26
ATOM     22  C   UNL     1       4.886   4.536   2.544  0.00  0.00    +0.044 C 
ATOM     23  C   UNL     1       4.983   3.170   1.915  0.00  0.00    -0.050 A 
ATOM     24  C   UNL     1       3.941   2.272   2.050  0.00  0.00    +0.008 A 
ATOM     25  C   UNL     1       4.032   1.016   1.479  0.00  0.00    -0.024 A 
ATOM     26  C   UNL     1       5.165   0.659   0.772  0.00  0.00    +0.111 A 
ATOM     27  C   UNL     1       6.207   1.557   0.637  0.00  0.00    -0.024 A 
ATOM     28  C   UNL     1       6.116   2.812   1.209  0.00  0.00    +0.008 A 
ATOM     29  C   UNL     1       7.443   1.167  -0.133  0.00  0.00    +0.046 C 
ATOM     30  C   UNL     1       2.895   0.038   1.625  0.00  0.00    +0.046 C 
ENDBRANCH  19  26
ENDBRANCH  17  19
ENDBRANCH   1  17
BRANCH   1  31
ATOM     31  C   UNL     1       3.984   0.572  -3.344  0.00  0.00    +0.065 C 
BRANCH  31  32
ATOM     32  C   UNL     1       3.087   1.430  -2.489  0.00  0.00    -0.045 A 
ATOM     33  C   UNL     1       2.036   0.856  -1.798  0.00  0.00    +0.004 A 
ATOM     34  C   UNL     1       1.216   1.642  -1.010  0.00  0.00    +0.000 A 
ATOM     35  C   UNL     1       1.441   3.003  -0.921  0.00  0.00    +0.000 A 
ATOM     36  C   UNL     1       2.489   3.578  -1.617  0.00  0.00    +0.000 A 
ATOM     37  C   UNL     1       3.311   2.791  -2.401  0.00  0.00    +0.004 A 
ENDBRANCH  31  32
ENDBRANCH   1  31
TORSDOF 8
