REMARK  Name = ZINC35752367
REMARK  10 active torsions:
REMARK  status: ('A' for Active; 'I' for Inactive)
REMARK    1  A    between atoms: C_1  and  C_2
REMARK    2  A    between atoms: C_6  and  C_8
REMARK    3  A    between atoms: C_8  and  N_9
REMARK    4  A    between atoms: C_10  and  C_29
REMARK    5  A    between atoms: C_12  and  C_17
REMARK    6  A    between atoms: C_20  and  N_23
REMARK    7  A    between atoms: C_24  and  C_26
REMARK    8  A    between atoms: C_26  and  C_27
REMARK    9  A    between atoms: C_26  and  C_28
REMARK   10  A    between atoms: N_31  and  C_32
REMARK                            x       y       z     vdW  Elec       q    Type
REMARK                         _______ _______ _______ _____ _____    ______ ____
ROOT
ATOM      1  N   UNL     1       1.153  -3.476   2.972  0.00  0.00    -0.248 N 
ATOM      2  C   UNL     1       2.150  -4.537   2.733  0.00  0.00    +0.211 C 
ATOM      3  C   UNL     1       3.463  -3.863   3.198  0.00  0.00    +0.238 C 
ATOM      4  O   UNL     1       2.979  -2.866   4.119  0.00  0.00    -0.440 OA
ATOM      5  C   UNL     1       1.725  -2.545   3.759  0.00  0.00    +0.405 C 
ATOM      6  O   UNL     1       1.166  -1.524   4.108  0.00  0.00    -0.226 OA
ENDROOT
BRANCH   3   7
ATOM      7  C   UNL     1       4.179  -3.223   2.037  0.00  0.00    -0.005 A 
ATOM      8  C   UNL     1       3.843  -1.941   1.641  0.00  0.00    +0.009 A 
ATOM      9  C   UNL     1       4.497  -1.351   0.578  0.00  0.00    +0.024 A 
ATOM     10  C   UNL     1       5.494  -2.046  -0.094  0.00  0.00    +0.033 A 
ATOM     11  C   UNL     1       5.830  -3.333   0.306  0.00  0.00    +0.024 A 
ATOM     12  C   UNL     1       5.175  -3.915   1.373  0.00  0.00    +0.009 A 
BRANCH  10  13
ATOM     13  N   UNL     1       6.159  -1.451  -1.173  0.00  0.00    -0.285 N 
ATOM     14  C   UNL     1       6.378  -0.121  -1.178  0.00  0.00    +0.220 C 
ATOM     15  O   UNL     1       6.083   0.546  -0.210  0.00  0.00    -0.275 OA
ATOM     16  H   UNL     1       6.461  -1.996  -1.916  0.00  0.00    +0.155 HD
BRANCH  14  17
ATOM     17  C   UNL     1       6.989   0.536  -2.389  0.00  0.00    +0.069 C 
ATOM     18  C   UNL     1       6.090   0.305  -3.604  0.00  0.00    +0.017 C 
ATOM     19  C   UNL     1       7.129   2.039  -2.136  0.00  0.00    +0.017 C 
ENDBRANCH  14  17
ENDBRANCH  10  13
ENDBRANCH   3   7
BRANCH   2  20
ATOM     20  C   UNL     1       1.845  -5.757   3.564  0.00  0.00    +0.242 C 
ATOM     21  O   UNL     1       1.114  -5.667   4.528  0.00  0.00    -0.273 OA
ATOM     22  N   UNL     1       2.385  -6.948   3.236  0.00  0.00    -0.284 N 
ATOM     23  H   UNL     1       3.021  -7.008   2.507  0.00  0.00    +0.155 HD
BRANCH  22  24
ATOM     24  C   UNL     1       2.027  -8.098   3.948  0.00  0.00    +0.036 A 
ATOM     25  C   UNL     1       1.929  -9.319   3.294  0.00  0.00    +0.023 A 
ATOM     26  C   UNL     1       1.576 -10.453   3.998  0.00  0.00    +0.005 A 
ATOM     27  C   UNL     1       1.319 -10.375   5.354  0.00  0.00    +0.038 A 
ATOM     28  C   UNL     1       1.415  -9.160   6.011  0.00  0.00    +0.125 A 
ATOM     29  C   UNL     1       1.774  -8.021   5.311  0.00  0.00    +0.061 A 
ATOM     30  F   UNL     1       1.164  -9.086   7.336  0.00  0.00    -0.205 F 
ENDBRANCH  22  24
ENDBRANCH   2  20
BRANCH   1  31
ATOM     31  C   UNL     1      -0.213  -3.439   2.443  0.00  0.00    +0.147 C 
BRANCH  31  37
ATOM     32  C   UNL     1      -0.612   0.765  -0.242  0.00  0.00    +0.044 C 
ATOM     33  C   UNL     1      -0.408  -0.727  -0.176  0.00  0.00    -0.050 A 
ATOM     34  C   UNL     1      -0.224  -1.452  -1.338  0.00  0.00    +0.003 A 
ATOM     35  C   UNL     1      -0.036  -2.820  -1.277  0.00  0.00    +0.001 A 
ATOM     36  C   UNL     1      -0.033  -3.463  -0.053  0.00  0.00    +0.005 A 
ATOM     37  C   UNL     1      -0.216  -2.738   1.109  0.00  0.00    -0.030 A 
ATOM     38  C   UNL     1      -0.399  -1.369   1.048  0.00  0.00    +0.008 A 
ENDBRANCH  31  37
ENDBRANCH   1  31
TORSDOF 7
