REMARK  Name = ZINC13137740
REMARK  7 active torsions:
REMARK  status: ('A' for Active; 'I' for Inactive)
REMARK    1  A    between atoms: C_1  and  O_2
REMARK    2  A    between atoms: O_2  and  C_3
REMARK    3  A    between atoms: C_6  and  S_23
REMARK    4  A    between atoms: C_8  and  C_9
REMARK    5  A    between atoms: N_11  and  C_12
REMARK    6  A    between atoms: C_13  and  C_20
REMARK    7  A    between atoms: S_23  and  N_26
REMARK                            x       y       z     vdW  Elec       q    Type
REMARK                         _______ _______ _______ _____ _____    ______ ____
ROOT
ATOM      1  C   UNL     1      -2.508   1.219   0.021  0.00  0.00    +0.132 A 
ATOM      2  C   UNL     1      -3.713   1.906   0.030  0.00  0.00    +0.048 A 
ATOM      3  C   UNL     1      -3.722   3.287   0.038  0.00  0.00    +0.032 A 
ATOM      4  C   UNL     1      -2.531   3.995   0.037  0.00  0.00    +0.106 A 
ATOM      5  C   UNL     1      -1.325   3.329   0.032  0.00  0.00    +0.045 A 
ATOM      6  C   UNL     1      -1.302   1.932   0.019  0.00  0.00    +0.080 A 
ENDROOT
BRANCH   6   7
ATOM      7  C   UNL     1      -0.014   1.212   0.009  0.00  0.00    +0.252 C 
ATOM      8  O   UNL     1       0.002  -0.004   0.002  0.00  0.00    -0.270 OA
ATOM      9  N   UNL     1       1.143   1.901   0.001  0.00  0.00    -0.275 N 
ATOM     10  H   UNL     1       1.130   2.871   0.007  0.00  0.00    +0.156 HD
BRANCH   9  11
ATOM     11  C   UNL     1       2.353   1.225  -0.014  0.00  0.00    +0.085 A 
ATOM     12  C   UNL     1       3.633   1.752  -0.029  0.00  0.00    +0.068 A 
ATOM     13  C   UNL     1       4.752   0.810  -0.039  0.00  0.00    -0.023 A 
ATOM     14  C   UNL     1       4.405  -0.489  -0.043  0.00  0.00    -0.004 A 
ATOM     15  S   UNL     1       2.629  -0.483  -0.026  0.00  0.00    -0.077 S 
ATOM     16  C   UNL     1       5.608  -1.394  -0.056  0.00  0.00    +0.043 C 
ATOM     17  C   UNL     1       6.782  -0.488   0.376  0.00  0.00    +0.010 C 
ATOM     18  C   UNL     1       6.279   0.904  -0.055  0.00  0.00    +0.037 C 
BRANCH  12  19
ATOM     19  C   UNL     1       3.859   3.200  -0.030  0.00  0.00    +0.244 C 
ATOM     20  O   UNL     1       3.966   3.801   1.023  0.00  0.00    -0.270 OA
ATOM     21  N   UNL     1       3.948   3.867  -1.198  0.00  0.00    -0.325 N 
ATOM     22  H   UNL     1       3.863   3.389  -2.038  0.00  0.00    +0.145 HD
ATOM     23  H   UNL     1       4.097   4.826  -1.199  0.00  0.00    +0.145 HD
ENDBRANCH  12  19
ENDBRANCH   9  11
ENDBRANCH   6   7
BRANCH   4  24
ATOM     24  S   UNL     1      -2.559   5.757   0.046  0.00  0.00    +0.061 S 
ATOM     25  O   UNL     1      -1.323   6.186  -0.508  0.00  0.00    -0.153 OA
ATOM     26  O   UNL     1      -3.813   6.146  -0.496  0.00  0.00    -0.153 OA
BRANCH  24  27
ATOM     27  N   UNL     1      -2.559   6.238   1.631  0.00  0.00    -0.177 NA
ATOM     28  C   UNL     1      -3.828   6.425   2.299  0.00  0.00    +0.109 C 
ATOM     29  C   UNL     1      -4.317   7.875   2.102  0.00  0.00    +0.017 C 
ATOM     30  C   UNL     1      -3.490   8.803   2.887  0.00  0.00    +0.001 C 
ATOM     31  C   UNL     1      -2.021   8.839   2.476  0.00  0.00    +0.001 C 
ATOM     32  C   UNL     1      -1.278   7.730   3.179  0.00  0.00    +0.017 C 
ATOM     33  C   UNL     1      -1.264   6.464   2.302  0.00  0.00    +0.109 C 
ENDBRANCH  24  27
ENDBRANCH   4  24
BRANCH   1  35
ATOM     34  C   UNL     1      -3.766  -0.796   0.016  0.00  0.00    +0.277 C 
ATOM     35  O   UNL     1      -2.498  -0.138   0.013  0.00  0.00    -0.494 OA
ENDBRANCH   1  35
TORSDOF 6
