REMARK  Name = ZINC36637435
REMARK  11 active torsions:
REMARK  status: ('A' for Active; 'I' for Inactive)
REMARK    1  A    between atoms: C_1  and  C_2
REMARK    2  A    between atoms: N_8  and  S_9
REMARK    3  A    between atoms: S_9  and  C_12
REMARK    4  A    between atoms: C_15  and  C_18
REMARK    5  A    between atoms: N_20  and  C_21
REMARK    6  A    between atoms: C_21  and  C_22
REMARK    7  A    between atoms: C_22  and  N_23
REMARK    8  A    between atoms: N_23  and  C_24
REMARK    9  A    between atoms: N_23  and  C_25
REMARK   10  A    between atoms: C_29  and  O_35
REMARK   11  A    between atoms: O_35  and  C_36
REMARK                            x       y       z     vdW  Elec       q    Type
REMARK                         _______ _______ _______ _____ _____    ______ ____
ROOT
ATOM      1  C   UNL     1      -3.842   0.661   5.400  0.00  0.00    +0.252 C 
ATOM      2  O   UNL     1      -4.746   1.423   5.114  0.00  0.00    -0.270 OA
ATOM      3  N   UNL     1      -3.828   0.055   6.604  0.00  0.00    -0.248 N 
ATOM      4  C   UNL     1      -4.813   0.339   7.534  0.00  0.00    +0.168 A 
ATOM      5  N   UNL     1      -5.835   1.155   7.428  0.00  0.00    -0.221 NA
ATOM      6  C   UNL     1      -6.727   1.336   8.427  0.00  0.00    +0.122 A 
ATOM      7  C   UNL     1      -7.866   2.182   8.442  0.00  0.00    +0.146 A 
ATOM      8  C   UNL     1      -8.675   2.248   9.551  0.00  0.00    +0.048 A 
ATOM      9  C   UNL     1      -8.409   1.495  10.686  0.00  0.00    +0.005 A 
ATOM     10  C   UNL     1      -7.307   0.661  10.704  0.00  0.00    +0.017 A 
ATOM     11  C   UNL     1      -6.492   0.588   9.601  0.00  0.00    +0.044 A 
ATOM     12  S   UNL     1      -5.022  -0.319   9.183  0.00  0.00    -0.052 S 
ENDROOT
BRANCH   1  16
ATOM     13  C   UNL     1      -0.734  -0.091   2.606  0.00  0.00    +0.106 A 
ATOM     14  C   UNL     1      -0.430   0.078   3.945  0.00  0.00    +0.029 A 
ATOM     15  C   UNL     1      -1.435   0.323   4.858  0.00  0.00    +0.015 A 
ATOM     16  C   UNL     1      -2.760   0.400   4.428  0.00  0.00    +0.037 A 
ATOM     17  C   UNL     1      -3.060   0.229   3.075  0.00  0.00    +0.015 A 
ATOM     18  C   UNL     1      -2.045  -0.010   2.172  0.00  0.00    +0.029 A 
BRANCH  13  19
ATOM     19  S   UNL     1       0.556  -0.404   1.447  0.00  0.00    +0.061 S 
ATOM     20  O   UNL     1      -0.044  -1.061   0.339  0.00  0.00    -0.153 OA
ATOM     21  O   UNL     1       1.631  -0.975   2.180  0.00  0.00    -0.153 OA
BRANCH  19  28
ATOM     22  C   UNL     1       2.586   1.000   2.833  0.00  0.00    +0.026 C 
ATOM     23  C   UNL     1       2.078   1.837   1.657  0.00  0.00    +0.077 C 
ATOM     24  C   UNL     1       3.248   2.189   0.734  0.00  0.00    +0.020 C 
ATOM     25  C   UNL     1       2.715   2.905  -0.509  0.00  0.00    +0.003 C 
ATOM     26  C   UNL     1       1.764   1.975  -1.267  0.00  0.00    +0.017 C 
ATOM     27  C   UNL     1       0.577   1.620  -0.366  0.00  0.00    +0.110 C 
ATOM     28  N   UNL     1       1.086   1.065   0.896  0.00  0.00    -0.174 NA
ENDBRANCH  19  28
ENDBRANCH  13  19
ENDBRANCH   1  16
BRANCH   7  29
ATOM     29  O   UNL     1      -8.159   2.934   7.348  0.00  0.00    -0.493 OA
ATOM     30  C   UNL     1      -9.319   3.765   7.426  0.00  0.00    +0.277 C 
ENDBRANCH   7  29
BRANCH   3  31
ATOM     31  C   UNL     1      -2.769  -0.904   6.928  0.00  0.00    +0.097 C 
BRANCH  31  32
ATOM     32  C   UNL     1      -1.787  -0.267   7.912  0.00  0.00    -0.060 C 
BRANCH  32  33
ATOM     33  N   UNL     1      -0.681  -1.198   8.174  0.00  0.00    +0.377 N 
ATOM     34  C   UNL     1       0.321  -0.542   9.024  0.00  0.00    -0.097 C 
ATOM     35  C   UNL     1      -1.198  -2.391   8.858  0.00  0.00    -0.097 C 
ATOM     36  H   UNL     1      -0.256  -1.470   7.301  0.00  0.00    -0.083 HD
ENDBRANCH  32  33
ENDBRANCH  31  32
ENDBRANCH   3  31
TORSDOF 7
