REMARK  Name = ZINC06292397
REMARK  8 active torsions:
REMARK  status: ('A' for Active; 'I' for Inactive)
REMARK    1  A    between atoms: C_1  and  O_2
REMARK    2  A    between atoms: O_2  and  C_3
REMARK    3  A    between atoms: C_8  and  C_9
REMARK    4  A    between atoms: N_10  and  N_11
REMARK    5  A    between atoms: C_12  and  C_14
REMARK    6  A    between atoms: C_19  and  N_20
REMARK    7  A    between atoms: N_20  and  S_21
REMARK    8  A    between atoms: S_21  and  C_24
REMARK                            x       y       z     vdW  Elec       q    Type
REMARK                         _______ _______ _______ _____ _____    ______ ____
ROOT
ATOM      1  C   UNL     1      -1.235   3.334  -0.244  0.00  0.00    +0.061 A 
ATOM      2  C   UNL     1       0.005   3.954  -0.418  0.00  0.00    +0.015 A 
ATOM      3  C   UNL     1       0.084   5.327  -0.481  0.00  0.00    +0.001 A 
ATOM      4  C   UNL     1      -1.062   6.100  -0.373  0.00  0.00    +0.002 A 
ATOM      5  C   UNL     1      -2.294   5.503  -0.201  0.00  0.00    +0.025 A 
ATOM      6  C   UNL     1      -2.394   4.119  -0.141  0.00  0.00    +0.060 A 
ENDROOT
BRANCH   1   8
ATOM      7  N   UNL     1      -0.212   1.114  -0.281  0.00  0.00    -0.203 N 
ATOM      8  C   UNL     1      -1.327   1.864  -0.176  0.00  0.00    +0.265 C 
ATOM      9  O   UNL     1      -2.408   1.329  -0.024  0.00  0.00    -0.268 OA
ATOM     10  H   UNL     1       0.650   1.541  -0.406  0.00  0.00    +0.178 HD
BRANCH   7  12
ATOM     11  C   UNL     1       0.774  -1.006  -0.323  0.00  0.00    +0.142 C 
ATOM     12  N   UNL     1      -0.299  -0.283  -0.216  0.00  0.00    -0.187 NA
BRANCH  11  18
ATOM     13  C   UNL     1      -0.560  -3.095  -0.069  0.00  0.00    +0.129 A 
ATOM     14  C   UNL     1      -0.636  -4.478  -0.012  0.00  0.00    +0.047 A 
ATOM     15  C   UNL     1       0.511  -5.240  -0.127  0.00  0.00    +0.019 A 
ATOM     16  C   UNL     1       1.742  -4.631  -0.304  0.00  0.00    +0.019 A 
ATOM     17  C   UNL     1       1.835  -3.256  -0.369  0.00  0.00    +0.028 A 
ATOM     18  C   UNL     1       0.683  -2.475  -0.255  0.00  0.00    +0.037 A 
ATOM     19 BR   UNL     1       3.302  -5.689  -0.459  0.00  0.00    -0.050 Br
BRANCH  13  21
ATOM     20  C   UNL     1      -2.917  -3.047   0.237  0.00  0.00    +0.277 C 
ATOM     21  O   UNL     1      -1.686  -2.345   0.050  0.00  0.00    -0.494 OA
ENDBRANCH  13  21
ENDBRANCH  11  18
ENDBRANCH   7  12
ENDBRANCH   1   8
BRANCH   6  22
ATOM     22  N   UNL     1      -3.634   3.515   0.026  0.00  0.00    -0.215 N 
ATOM     23  H   UNL     1      -3.712   2.708   0.558  0.00  0.00    +0.174 HD
BRANCH  22  24
ATOM     24  S   UNL     1      -4.978   4.175  -0.682  0.00  0.00    +0.079 S 
ATOM     25  O   UNL     1      -6.047   3.269  -0.446  0.00  0.00    -0.149 OA
ATOM     26  O   UNL     1      -5.027   5.535  -0.274  0.00  0.00    -0.149 OA
BRANCH  24  27
ATOM     27  C   UNL     1      -4.699   4.181  -2.422  0.00  0.00    +0.146 A 
ATOM     28  C   UNL     1      -4.995   3.227  -3.338  0.00  0.00    +0.036 A 
ATOM     29  C   UNL     1      -4.682   3.451  -4.665  0.00  0.00    +0.010 A 
ATOM     30  C   UNL     1      -4.088   4.619  -5.012  0.00  0.00    +0.047 A 
ATOM     31  S   UNL     1      -3.960   5.450  -3.438  0.00  0.00    -0.077 S 
ENDBRANCH  24  27
ENDBRANCH  22  24
ENDBRANCH   6  22
TORSDOF 7
