REMARK  Name = ZINC08310536
REMARK  6 active torsions:
REMARK  status: ('A' for Active; 'I' for Inactive)
REMARK    1  A    between atoms: C_6  and  C_7
REMARK    2  A    between atoms: C_12  and  C_13
REMARK    3  A    between atoms: C_12  and  N_64
REMARK    4  A    between atoms: N_18  and  C_19
REMARK    5  A    between atoms: C_19  and  C_20
REMARK    6  A    between atoms: C_20  and  C_21
REMARK                            x       y       z     vdW  Elec       q    Type
REMARK                         _______ _______ _______ _____ _____    ______ ____
ROOT
ATOM      1  C   UNL     1      -4.816   0.821   0.029  0.00  0.00    +0.020 C 
ENDROOT
BRANCH   1   2
ATOM      2  C   UNL     1      -3.522   1.592   0.027  0.00  0.00    +0.204 C 
ATOM      3  O   UNL     1      -3.538   2.804   0.034  0.00  0.00    -0.277 OA
ATOM      4  N   UNL     1      -2.345   0.934   0.018  0.00  0.00    -0.242 N 
ATOM      5  C   UNL     1      -1.187   1.624   0.017  0.00  0.00    +0.306 C 
ATOM      6  O   UNL     1      -1.204   2.839   0.023  0.00  0.00    -0.252 OA
ATOM      7  N   UNL     1      -0.011   0.966   0.007  0.00  0.00    -0.299 N 
ATOM      8  H   UNL     1      -2.332  -0.036   0.013  0.00  0.00    +0.159 HD
ATOM      9  H   UNL     1       0.002  -0.004   0.002  0.00  0.00    +0.150 HD
BRANCH   7  10
ATOM     10  C   UNL     1       1.248   1.716  -0.001  0.00  0.00    +0.110 C 
BRANCH  10  11
ATOM     11  C   UNL     1       2.424   0.737  -0.017  0.00  0.00    +0.049 C 
BRANCH  11  12
ATOM     12  C   UNL     1       3.719   1.508  -0.025  0.00  0.00    -0.072 C 
ATOM     13  C   UNL     1       4.299   1.732   1.110  0.00  0.00    -0.028 C 
ATOM     14  C   UNL     1       5.587   2.487   1.261  0.00  0.00    +0.027 C 
ATOM     15  C   UNL     1       6.305   2.584  -0.087  0.00  0.00    +0.004 C 
ATOM     16  C   UNL     1       5.299   3.070  -1.138  0.00  0.00    +0.005 C 
ATOM     17  C   UNL     1       4.251   1.975  -1.348  0.00  0.00    +0.030 C 
ENDBRANCH  11  12
ENDBRANCH  10  11
ENDBRANCH   7  10
ENDBRANCH   1   2
BRANCH   1  22
ATOM     18  C   UNL     1      -7.219   1.055   0.299  0.00  0.00    -0.037 C 
ATOM     19  C   UNL     1      -8.277   1.834  -0.522  0.00  0.00    -0.013 C 
ATOM     20  C   UNL     1      -7.474   2.206  -1.796  0.00  0.00    -0.020 C 
ATOM     21  C   UNL     1      -6.055   2.469  -1.248  0.00  0.00    -0.077 C 
ATOM     22  N   UNL     1      -5.955   1.776   0.046  0.00  0.00    +0.390 N 
ATOM     23  H   UNL     1      -5.803   2.466   0.791  0.00  0.00    -0.080 HD
BRANCH  18  29
ATOM     24  C   UNL     1      -7.328   2.257   2.490  0.00  0.00    +0.006 A 
ATOM     25  C   UNL     1      -7.634   2.307   3.838  0.00  0.00    +0.049 A 
ATOM     26  C   UNL     1      -8.169   1.193   4.462  0.00  0.00    +0.162 A 
ATOM     27  C   UNL     1      -8.398   0.033   3.736  0.00  0.00    +0.162 A 
ATOM     28  C   UNL     1      -8.096  -0.012   2.386  0.00  0.00    +0.051 A 
ATOM     29  C   UNL     1      -7.555   1.101   1.767  0.00  0.00    -0.057 A 
ATOM     30  O   UNL     1      -8.925  -1.060   4.360  0.00  0.00    -0.488 OA
ATOM     31  C   UNL     1     -10.282  -0.939   4.793  0.00  0.00    +0.232 C 
ATOM     32  C   UNL     1     -10.356  -0.264   6.154  0.00  0.00    +0.082 C 
ATOM     33  C   UNL     1      -9.866   1.175   6.114  0.00  0.00    +0.232 C 
ATOM     34  O   UNL     1      -8.475   1.228   5.792  0.00  0.00    -0.488 OA
ENDBRANCH  18  29
ENDBRANCH   1  22
TORSDOF 6
