REMARK  Name = ZINC00919797
REMARK  6 active torsions:
REMARK  status: ('A' for Active; 'I' for Inactive)
REMARK    1  A    between atoms: C_1  and  C_2
REMARK    2  A    between atoms: C_3  and  N_8
REMARK    3  A    between atoms: N_5  and  C_7
REMARK    4  A    between atoms: C_9  and  C_11
REMARK    5  A    between atoms: C_16  and  C_27
REMARK    6  A    between atoms: C_19  and  C_22
REMARK                            x       y       z     vdW  Elec       q    Type
REMARK                         _______ _______ _______ _____ _____    ______ ____
ROOT
ATOM      1  C   UNL     1      -0.010  -0.803  -4.884  0.00  0.00    +0.149 A 
ATOM      2  C   UNL     1      -0.010  -1.628  -6.032  0.00  0.00    +0.078 A 
ATOM      3  C   UNL     1      -0.025  -0.822  -7.112  0.00  0.00    +0.119 A 
ATOM      4  N   UNL     1      -0.033   0.473  -6.676  0.00  0.00    -0.238 N 
ATOM      5  N   UNL     1      -0.030   0.457  -5.282  0.00  0.00    -0.164 NA
ATOM      6  C   UNL     1      -0.045   1.633  -7.573  0.00  0.00    +0.215 C 
ATOM      7  C   UNL     1       0.431   1.192  -8.961  0.00  0.00    +0.066 C 
ATOM      8  C   UNL     1      -0.340  -0.056  -9.406  0.00  0.00    +0.140 C 
ATOM      9  N   UNL     1      -0.034  -1.155  -8.469  0.00  0.00    -0.319 N 
ATOM     10  H   UNL     1       0.150  -2.057  -8.778  0.00  0.00    +0.148 HD
ENDROOT
BRANCH   8  11
ATOM     11  C   UNL     1      -1.819   0.231  -9.390  0.00  0.00    +0.125 A 
ATOM     12  C   UNL     1      -2.574   0.530 -10.462  0.00  0.00    +0.046 A 
ATOM     13  C   UNL     1      -3.894   0.722  -9.993  0.00  0.00    +0.041 A 
ATOM     14  C   UNL     1      -3.867   0.529  -8.662  0.00  0.00    +0.195 A 
ATOM     15  O   UNL     1      -2.608   0.226  -8.303  0.00  0.00    -0.466 OA
ENDBRANCH   8  11
BRANCH   1  17
ATOM     16  N   UNL     1      -0.004  -0.375  -2.475  0.00  0.00    -0.277 N 
ATOM     17  C   UNL     1       0.003  -1.270  -3.483  0.00  0.00    +0.268 C 
ATOM     18  O   UNL     1       0.021  -2.461  -3.238  0.00  0.00    -0.268 OA
ATOM     19  H   UNL     1      -0.019   0.575  -2.670  0.00  0.00    +0.155 HD
BRANCH  16  22
ATOM     20  C   UNL     1      -0.018   1.503   0.010  0.00  0.00    +0.069 C 
ATOM     21  C   UNL     1       0.002  -0.004   0.002  0.00  0.00    +0.081 A 
ATOM     22  C   UNL     1       0.008  -0.819  -1.140  0.00  0.00    +0.075 A 
ATOM     23  C   UNL     1       0.027  -2.112  -0.727  0.00  0.00    +0.131 A 
ATOM     24  N   UNL     1       0.034  -2.109   0.631  0.00  0.00    -0.272 N 
ATOM     25  N   UNL     1       0.023  -0.776   1.058  0.00  0.00    -0.175 NA
ATOM     26  C   UNL     1       0.053  -3.292   1.496  0.00  0.00    +0.172 C 
ENDBRANCH  16  22
ENDBRANCH   1  17
BRANCH   6  27
ATOM     27  C   UNL     1       0.890   2.713  -7.026  0.00  0.00    +0.412 C 
ATOM     28  F   UNL     1       2.191   2.204  -6.942  0.00  0.00    -0.168 F 
ATOM     29  F   UNL     1       0.877   3.819  -7.883  0.00  0.00    -0.168 F 
ATOM     30  F   UNL     1       0.459   3.104  -5.754  0.00  0.00    -0.168 F 
ENDBRANCH   6  27
TORSDOF 4
