REMARK  Name = ZINC39733515
REMARK  9 active torsions:
REMARK  status: ('A' for Active; 'I' for Inactive)
REMARK    1  A    between atoms: C_1  and  C_2
REMARK    2  A    between atoms: C_2  and  O_3
REMARK    3  A    between atoms: O_3  and  C_4
REMARK    4  A    between atoms: C_4  and  C_6
REMARK    5  A    between atoms: C_8  and  N_18
REMARK    6  A    between atoms: C_19  and  C_21
REMARK    7  A    between atoms: C_21  and  C_23
REMARK    8  A    between atoms: C_21  and  S_24
REMARK    9  A    between atoms: S_24  and  C_25
REMARK                            x       y       z     vdW  Elec       q    Type
REMARK                         _______ _______ _______ _____ _____    ______ ____
ROOT
ATOM      1  N   UNL     1       1.748  -1.726   4.894  0.00  0.00    -0.301 N 
ATOM      2  C   UNL     1       1.673  -0.627   5.670  0.00  0.00    +0.227 C 
ATOM      3  O   UNL     1       0.822   0.209   5.456  0.00  0.00    -0.275 OA
ATOM      4  H   UNL     1       2.429  -2.395   5.065  0.00  0.00    +0.150 HD
ENDROOT
BRANCH   1   6
ATOM      5  C   UNL     1       1.516  -2.381   2.500  0.00  0.00    +0.155 C 
ATOM      6  C   UNL     1       0.801  -1.911   3.791  0.00  0.00    +0.153 C 
ATOM      7  S   UNL     1      -0.278  -3.380   4.063  0.00  0.00    -0.106 S 
ATOM      8  C   UNL     1       0.654  -4.554   3.111  0.00  0.00    -0.013 C 
ATOM      9  C   UNL     1       1.526  -3.888   2.395  0.00  0.00    -0.044 C 
ATOM     10  C   UNL     1       2.550  -4.604   1.505  0.00  0.00    +0.032 C 
ATOM     11  C   UNL     1       3.452  -5.440   2.412  0.00  0.00    +0.004 C 
ATOM     12  C   UNL     1       2.819  -6.761   2.777  0.00  0.00    +0.001 C 
ATOM     13  C   UNL     1       1.677  -6.693   3.766  0.00  0.00    +0.005 C 
ATOM     14  C   UNL     1       0.447  -6.055   3.110  0.00  0.00    +0.042 C 
BRANCH   5  15
ATOM     15  C   UNL     1       0.801  -1.808   1.304  0.00  0.00    +0.317 C 
ATOM     16  O   UNL     1       0.324  -2.546   0.475  0.00  0.00    -0.250 OA
BRANCH  15  17
ATOM     17  O   UNL     1       0.693  -0.477   1.160  0.00  0.00    -0.464 OA
BRANCH  17  19
ATOM     18  C   UNL     1      -0.019   1.526   0.010  0.00  0.00    +0.048 C 
ATOM     19  C   UNL     1       0.002  -0.004   0.002  0.00  0.00    +0.229 C 
ENDBRANCH  17  19
ENDBRANCH  15  17
ENDBRANCH   5  15
ENDBRANCH   1   6
BRANCH   2  20
ATOM     20  C   UNL     1       2.647  -0.437   6.804  0.00  0.00    +0.137 C 
ATOM     21  C   UNL     1       3.930   0.205   6.272  0.00  0.00    +0.029 C 
BRANCH  20  22
ATOM     22  S   UNL     1       1.908   0.640   8.062  0.00  0.00    -0.073 S 
BRANCH  22  23
ATOM     23  C   UNL     1       3.091   0.644   9.368  0.00  0.00    +0.198 A 
ATOM     24  N   UNL     1       4.237   0.005   9.384  0.00  0.00    -0.120 NA
ATOM     25  N   UNL     1       4.856   0.225  10.489  0.00  0.00    -0.107 NA
ATOM     26  C   UNL     1       4.137   1.026  11.253  0.00  0.00    +0.260 A 
ATOM     27  N   UNL     1       2.990   1.318  10.552  0.00  0.00    -0.258 N 
ATOM     28  C   UNL     1       2.032   2.145  11.088  0.00  0.00    +0.037 A 
ATOM     29  C   UNL     1       2.233   2.659  12.313  0.00  0.00    +0.039 A 
ATOM     30  C   UNL     1       3.429   2.345  13.007  0.00  0.00    +0.278 A 
ATOM     31  O   UNL     1       3.644   2.865  14.238  0.00  0.00    -0.265 OA
ATOM     32  N   UNL     1       4.329   1.549  12.473  0.00  0.00    -0.171 NA
ATOM     33  C   UNL     1       1.237   3.555  12.998  0.00  0.00    +0.042 C 
ATOM     34  C   UNL     1       0.251   4.138  11.987  0.00  0.00    +0.005 C 
ATOM     35  C   UNL     1      -0.315   2.986  11.148  0.00  0.00    +0.006 C 
ATOM     36  C   UNL     1       0.806   2.439  10.267  0.00  0.00    +0.054 C 
ENDBRANCH  22  23
ENDBRANCH  20  22
ENDBRANCH   2  20
TORSDOF 7
