REMARK  Name = ZINC11323729
REMARK  10 active torsions:
REMARK  status: ('A' for Active; 'I' for Inactive)
REMARK    1  A    between atoms: C_1  and  C_2
REMARK    2  A    between atoms: C_2  and  N_73
REMARK    3  A    between atoms: N_5  and  C_8
REMARK    4  A    between atoms: C_11  and  N_15
REMARK    5  A    between atoms: C_13  and  C_14
REMARK    6  A    between atoms: C_16  and  C_18
REMARK    7  A    between atoms: N_21  and  S_24
REMARK    8  A    between atoms: S_24  and  C_27
REMARK    9  A    between atoms: C_30  and  C_34
REMARK   10  A    between atoms: C_31  and  C_33
REMARK                            x       y       z     vdW  Elec       q    Type
REMARK                         _______ _______ _______ _____ _____    ______ ____
ROOT
ATOM      1  N   UNL     1      -5.165  -2.069  -0.249  0.00  0.00    -0.285 N 
ATOM      2  C   UNL     1      -6.021  -1.867   0.771  0.00  0.00    +0.220 C 
ATOM      3  O   UNL     1      -5.699  -1.160   1.703  0.00  0.00    -0.275 OA
ATOM      4  H   UNL     1      -5.449  -2.570  -1.029  0.00  0.00    +0.155 HD
ENDROOT
BRANCH   1   8
ATOM      5  C   UNL     1      -1.290  -0.537  -0.054  0.00  0.00    +0.033 A 
ATOM      6  C   UNL     1      -1.927  -0.965   1.104  0.00  0.00    +0.025 A 
ATOM      7  C   UNL     1      -3.210  -1.471   1.039  0.00  0.00    +0.025 A 
ATOM      8  C   UNL     1      -3.863  -1.554  -0.184  0.00  0.00    +0.034 A 
ATOM      9  C   UNL     1      -3.227  -1.126  -1.341  0.00  0.00    +0.028 A 
ATOM     10  C   UNL     1      -1.946  -0.615  -1.276  0.00  0.00    -0.028 A 
ATOM     11  C   UNL     1      -1.257  -0.146  -2.531  0.00  0.00    +0.046 C 
BRANCH   5  14
ATOM     12  C   UNL     1       1.481   1.741   0.858  0.00  0.00    -0.060 C 
ATOM     13  C   UNL     1       0.063   1.164   0.876  0.00  0.00    +0.086 C 
ATOM     14  N   UNL     1       0.009  -0.023   0.011  0.00  0.00    -0.333 N 
ATOM     15  C   UNL     1       0.958  -1.048   0.469  0.00  0.00    +0.086 C 
ATOM     16  C   UNL     1       2.376  -0.471   0.451  0.00  0.00    -0.060 C 
ATOM     17  N   UNL     1       2.421   0.708   1.341  0.00  0.00    +0.382 N 
ATOM     18  H   UNL     1       2.146   0.423   2.288  0.00  0.00    -0.082 HD
BRANCH  17  20
ATOM     19  C   UNL     1       3.865   2.326   2.475  0.00  0.00    -0.017 C 
ATOM     20  C   UNL     1       3.794   1.256   1.384  0.00  0.00    -0.082 C 
ENDBRANCH  17  20
ENDBRANCH   5  14
ENDBRANCH   1   8
BRANCH   2  21
ATOM     21  C   UNL     1      -7.380  -2.519   0.755  0.00  0.00    +0.078 C 
ATOM     22  C   UNL     1      -8.155  -2.051  -0.478  0.00  0.00    +0.030 C 
ATOM     23  C   UNL     1      -9.522  -2.742  -0.510  0.00  0.00    +0.110 C 
ATOM     24  N   UNL     1     -10.208  -2.492   0.765  0.00  0.00    -0.177 NA
ATOM     25  C   UNL     1      -9.514  -2.822   2.017  0.00  0.00    +0.110 C 
ATOM     26  C   UNL     1      -8.148  -2.130   2.021  0.00  0.00    +0.030 C 
BRANCH  24  27
ATOM     27  S   UNL     1     -11.735  -1.850   0.790  0.00  0.00    +0.061 S 
ATOM     28  O   UNL     1     -12.327  -2.161  -0.464  0.00  0.00    -0.153 OA
ATOM     29  O   UNL     1     -12.319  -2.239   2.026  0.00  0.00    -0.153 OA
BRANCH  27  30
ATOM     30  C   UNL     1     -11.562  -0.098   0.844  0.00  0.00    +0.106 A 
ATOM     31  C   UNL     1     -11.496   0.553   2.062  0.00  0.00    +0.029 A 
ATOM     32  C   UNL     1     -11.355   1.927   2.105  0.00  0.00    +0.005 A 
ATOM     33  C   UNL     1     -11.291   2.653   0.929  0.00  0.00    -0.047 A 
ATOM     34  C   UNL     1     -11.363   2.003  -0.288  0.00  0.00    -0.046 A 
ATOM     35  C   UNL     1     -11.498   0.627  -0.331  0.00  0.00    +0.032 A 
ATOM     36  C   UNL     1     -11.293   2.793  -1.569  0.00  0.00    +0.044 C 
ATOM     37  C   UNL     1     -11.143   4.152   0.976  0.00  0.00    +0.044 C 
ENDBRANCH  27  30
ENDBRANCH  24  27
ENDBRANCH   2  21
TORSDOF 6
