REMARK  Name = ZINC58948814
REMARK  9 active torsions:
REMARK  status: ('A' for Active; 'I' for Inactive)
REMARK    1  A    between atoms: C_1  and  C_2
REMARK    2  A    between atoms: C_5  and  S_8
REMARK    3  A    between atoms: S_8  and  N_11
REMARK    4  A    between atoms: C_14  and  C_17
REMARK    5  A    between atoms: N_19  and  C_20
REMARK    6  A    between atoms: C_20  and  C_21
REMARK    7  A    between atoms: C_24  and  C_27
REMARK    8  A    between atoms: C_27  and  N_28
REMARK    9  A    between atoms: C_32  and  C_35
REMARK                            x       y       z     vdW  Elec       q    Type
REMARK                         _______ _______ _______ _____ _____    ______ ____
ROOT
ATOM      1  C   UNL     1       4.498  -8.132  -0.077  0.00  0.00    +0.216 C 
ATOM      2  O   UNL     1       4.276  -8.895  -0.994  0.00  0.00    -0.276 OA
ATOM      3  N   UNL     1       5.316  -8.505   0.927  0.00  0.00    -0.311 N 
ATOM      4  H   UNL     1       5.493  -7.895   1.660  0.00  0.00    +0.149 HD
ENDROOT
BRANCH   1   8
ATOM      5  N   UNL     1       1.651  -4.999  -0.034  0.00  0.00    -0.177 NA
ATOM      6  C   UNL     1       2.364  -5.199  -1.304  0.00  0.00    +0.110 C 
ATOM      7  C   UNL     1       2.984  -6.599  -1.306  0.00  0.00    +0.030 C 
ATOM      8  C   UNL     1       3.858  -6.767  -0.061  0.00  0.00    +0.077 C 
ATOM      9  C   UNL     1       2.995  -6.624   1.194  0.00  0.00    +0.030 C 
ATOM     10  C   UNL     1       2.376  -5.218   1.225  0.00  0.00    +0.110 C 
BRANCH   5  11
ATOM     11  S   UNL     1       0.063  -4.530  -0.023  0.00  0.00    +0.061 S 
ATOM     12  O   UNL     1      -0.476  -4.950   1.223  0.00  0.00    -0.153 OA
ATOM     13  O   UNL     1      -0.490  -4.937  -1.267  0.00  0.00    -0.153 OA
BRANCH  11  18
ATOM     14  C   UNL     1      -0.018   1.503   0.010  0.00  0.00    +0.044 C 
ATOM     15  C   UNL     1       0.002  -0.004   0.002  0.00  0.00    -0.050 A 
ATOM     16  C   UNL     1       0.006  -0.689  -1.199  0.00  0.00    +0.005 A 
ATOM     17  C   UNL     1       0.025  -2.071  -1.206  0.00  0.00    +0.029 A 
ATOM     18  C   UNL     1       0.040  -2.768  -0.013  0.00  0.00    +0.105 A 
ATOM     19  C   UNL     1       0.037  -2.084   1.188  0.00  0.00    +0.029 A 
ATOM     20  C   UNL     1       0.023  -0.702   1.195  0.00  0.00    +0.005 A 
ENDBRANCH  11  18
ENDBRANCH   5  11
ENDBRANCH   1   8
BRANCH   3  21
ATOM     21  C   UNL     1       5.938  -9.831   0.911  0.00  0.00    +0.139 C 
BRANCH  21  22
ATOM     22  C   UNL     1       6.799  -9.997   2.137  0.00  0.00    -0.030 A 
ATOM     23  C   UNL     1       8.129  -9.622   2.103  0.00  0.00    +0.005 A 
ATOM     24  C   UNL     1       8.918  -9.774   3.227  0.00  0.00    +0.002 A 
ATOM     25  C   UNL     1       8.378 -10.301   4.385  0.00  0.00    -0.064 A 
ATOM     26  C   UNL     1       7.048 -10.675   4.419  0.00  0.00    +0.002 A 
ATOM     27  C   UNL     1       6.257 -10.519   3.296  0.00  0.00    +0.005 A 
BRANCH  25  28
ATOM     28  C   UNL     1       9.239 -10.468   5.611  0.00  0.00    -0.043 C 
BRANCH  28  29
ATOM     29  N   UNL     1       9.172  -9.248   6.426  0.00  0.00    +0.383 N 
ATOM     30  C   UNL     1       7.803  -9.070   6.925  0.00  0.00    -0.078 C 
ATOM     31  C   UNL     1       7.708  -7.759   7.708  0.00  0.00    -0.018 C 
ATOM     32  C   UNL     1       8.681  -7.804   8.889  0.00  0.00    -0.001 C 
ATOM     33  C   UNL     1      10.095  -8.065   8.363  0.00  0.00    -0.031 C 
ATOM     34  C   UNL     1      10.102  -9.364   7.556  0.00  0.00    -0.075 C 
ATOM     35  C   UNL     1      11.064  -8.188   9.541  0.00  0.00    +0.005 C 
ATOM     36  H   UNL     1       9.428  -8.452   5.862  0.00  0.00    -0.081 HD
ENDBRANCH  28  29
ENDBRANCH  25  28
ENDBRANCH  21  22
ENDBRANCH   3  21
TORSDOF 7
