REMARK  Name = ZINC13466333
REMARK  6 active torsions:
REMARK  status: ('A' for Active; 'I' for Inactive)
REMARK    1  A    between atoms: C_1  and  S_2
REMARK    2  A    between atoms: S_2  and  C_22
REMARK    3  A    between atoms: N_3  and  S_4
REMARK    4  A    between atoms: S_4  and  N_7
REMARK    5  A    between atoms: N_10  and  C_11
REMARK    6  A    between atoms: C_15  and  C_17
REMARK                            x       y       z     vdW  Elec       q    Type
REMARK                         _______ _______ _______ _____ _____    ______ ____
ROOT
ATOM      1  N   UNL     1       2.103  -0.229   3.494  0.00  0.00    -0.153 N 
ATOM      2  C   UNL     1       3.203  -0.953   3.206  0.00  0.00    +0.324 C 
ATOM      3  O   UNL     1       3.634  -0.978   2.070  0.00  0.00    -0.251 OA
ATOM      4  N   UNL     1       3.824  -1.649   4.179  0.00  0.00    -0.268 N 
ATOM      5  H   UNL     1       1.759  -0.209   4.400  0.00  0.00    +0.180 HD
ATOM      6  H   UNL     1       3.521  -1.576   5.097  0.00  0.00    +0.156 HD
ENDROOT
BRANCH   4   7
ATOM      7  C   UNL     1       4.907  -2.477   3.863  0.00  0.00    +0.035 A 
ATOM      8  C   UNL     1       5.094  -3.671   4.549  0.00  0.00    +0.023 A 
ATOM      9  C   UNL     1       6.163  -4.486   4.235  0.00  0.00    +0.002 A 
ATOM     10  C   UNL     1       7.049  -4.114   3.239  0.00  0.00    +0.012 A 
ATOM     11  C   UNL     1       6.866  -2.927   2.556  0.00  0.00    +0.057 A 
ATOM     12  C   UNL     1       5.795  -2.110   2.861  0.00  0.00    +0.035 A 
BRANCH  11  13
ATOM     13  C   UNL     1       7.834  -2.526   1.472  0.00  0.00    +0.417 C 
ATOM     14  F   UNL     1       8.823  -3.507   1.344  0.00  0.00    -0.166 F 
ATOM     15  F   UNL     1       7.149  -2.393   0.260  0.00  0.00    -0.166 F 
ATOM     16  F   UNL     1       8.430  -1.305   1.808  0.00  0.00    -0.166 F 
ENDBRANCH  11  13
ENDBRANCH   4   7
BRANCH   1  17
ATOM     17  S   UNL     1       1.339   0.626   2.299  0.00  0.00    +0.162 S 
ATOM     18  O   UNL     1       2.346   1.361   1.618  0.00  0.00    -0.131 OA
ATOM     19  O   UNL     1       0.216   1.253   2.903  0.00  0.00    -0.131 OA
BRANCH  17  22
ATOM     20  C   UNL     1      -0.025   1.809   0.014  0.00  0.00    +0.140 C 
ATOM     21  S   UNL     1      -0.009  -0.005   0.012  0.00  0.00    +0.098 S 
ATOM     22  N   UNL     1       0.741  -0.474   1.215  0.00  0.00    -0.058 NA
ATOM     23  O   UNL     1      -1.303  -0.592   0.029  0.00  0.00    -0.241 OA
BRANCH  21  24
ATOM     24  C   UNL     1       0.836  -0.555  -1.434  0.00  0.00    +0.049 A 
ATOM     25  C   UNL     1       0.133  -0.774  -2.604  0.00  0.00    +0.018 A 
ATOM     26  C   UNL     1       0.796  -1.205  -3.737  0.00  0.00    +0.001 A 
ATOM     27  C   UNL     1       2.161  -1.417  -3.701  0.00  0.00    +0.000 A 
ATOM     28  C   UNL     1       2.864  -1.198  -2.531  0.00  0.00    +0.001 A 
ATOM     29  C   UNL     1       2.202  -0.762  -1.399  0.00  0.00    +0.018 A 
ENDBRANCH  21  24
ENDBRANCH  17  22
ENDBRANCH   1  17
TORSDOF 5
