REMARK  Name = ZINC39673277
REMARK  6 active torsions:
REMARK  status: ('A' for Active; 'I' for Inactive)
REMARK    1  A    between atoms: C_3  and  C_8
REMARK    2  A    between atoms: C_12  and  C_21
REMARK    3  A    between atoms: N_23  and  C_24
REMARK    4  A    between atoms: C_24  and  C_25
REMARK    5  A    between atoms: C_28  and  O_31
REMARK    6  A    between atoms: O_31  and  C_32
REMARK                            x       y       z     vdW  Elec       q    Type
REMARK                         _______ _______ _______ _____ _____    ______ ____
ROOT
ATOM      1  C   UNL     1       3.661   2.168  -0.024  0.00  0.00    +0.247 C 
ATOM      2  O   UNL     1       3.651   3.379  -0.128  0.00  0.00    -0.270 OA
ATOM      3  N   UNL     1       4.833   1.508   0.064  0.00  0.00    -0.296 N 
ATOM      4  C   UNL     1       5.053   0.043   0.066  0.00  0.00    +0.121 C 
ATOM      5  C   UNL     1       6.328  -0.162  -0.783  0.00  0.00    +0.100 C 
ATOM      6  C   UNL     1       7.073   1.181  -0.703  0.00  0.00    -0.004 C 
ATOM      7  C   UNL     1       6.194   2.086   0.173  0.00  0.00    +0.115 C 
ATOM      8  C   UNL     1       7.220   1.787  -2.095  0.00  0.00    -0.010 C 
ATOM      9  C   UNL     1       8.013   3.094  -1.997  0.00  0.00    -0.082 C 
ATOM     10  N   UNL     1       9.334   2.823  -1.417  0.00  0.00    +0.379 N 
ATOM     11  C   UNL     1       9.186   2.327  -0.044  0.00  0.00    -0.082 C 
ATOM     12  C   UNL     1       8.442   0.989  -0.059  0.00  0.00    -0.010 C 
ATOM     13  H   UNL     1       9.809   2.129  -1.975  0.00  0.00    -0.086 HD
ATOM     14  H   UNL     1       9.877   3.673  -1.410  0.00  0.00    -0.086 HD
ENDROOT
BRANCH   1  17
ATOM     15  C   UNL     1       0.055   1.256  -0.545  0.00  0.00    +0.002 A 
ATOM     16  C   UNL     1       1.241   1.961  -0.576  0.00  0.00    +0.013 A 
ATOM     17  C   UNL     1       2.387   1.418   0.005  0.00  0.00    +0.038 A 
ATOM     18  C   UNL     1       2.326   0.163   0.614  0.00  0.00    +0.028 A 
ATOM     19  C   UNL     1       1.134  -0.532   0.638  0.00  0.00    +0.019 A 
ATOM     20  C   UNL     1       0.001   0.013   0.059  0.00  0.00    +0.015 A 
ATOM     21 BR   UNL     1       1.049  -2.232   1.462  0.00  0.00    -0.050 Br
ENDBRANCH   1  17
BRANCH   5  22
ATOM     22  C   UNL     1       5.962  -0.478  -2.210  0.00  0.00    +0.218 C 
ATOM     23  O   UNL     1       4.986   0.036  -2.714  0.00  0.00    -0.275 OA
ATOM     24  N   UNL     1       6.720  -1.331  -2.927  0.00  0.00    -0.311 N 
ATOM     25  H   UNL     1       7.500  -1.742  -2.525  0.00  0.00    +0.149 HD
BRANCH  24  26
ATOM     26  C   UNL     1       6.364  -1.638  -4.315  0.00  0.00    +0.139 C 
BRANCH  26  27
ATOM     27  C   UNL     1       7.364  -2.610  -4.886  0.00  0.00    -0.030 A 
ATOM     28  C   UNL     1       8.500  -2.140  -5.519  0.00  0.00    +0.009 A 
ATOM     29  C   UNL     1       9.417  -3.029  -6.044  0.00  0.00    +0.046 A 
ATOM     30  C   UNL     1       9.198  -4.395  -5.936  0.00  0.00    +0.127 A 
ATOM     31  C   UNL     1       8.058  -4.864  -5.301  0.00  0.00    +0.046 A 
ATOM     32  C   UNL     1       7.146  -3.971  -4.773  0.00  0.00    +0.009 A 
BRANCH  30  33
ATOM     33  O   UNL     1      10.099  -5.271  -6.452  0.00  0.00    -0.434 OA
BRANCH  33  34
ATOM     34  C   UNL     1       9.809  -6.663  -6.304  0.00  0.00    +0.541 C 
ATOM     35  F   UNL     1       9.715  -6.978  -4.945  0.00  0.00    -0.166 F 
ATOM     36  F   UNL     1       8.595  -6.955  -6.936  0.00  0.00    -0.166 F 
ENDBRANCH  33  34
ENDBRANCH  30  33
ENDBRANCH  26  27
ENDBRANCH  24  26
ENDBRANCH   5  22
TORSDOF 6
