REMARK  Name = ZINC61122208
REMARK  5 active torsions:
REMARK  status: ('A' for Active; 'I' for Inactive)
REMARK    1  A    between atoms: C_1  and  C_2
REMARK    2  A    between atoms: C_4  and  N_9
REMARK    3  A    between atoms: C_10  and  C_14
REMARK    4  A    between atoms: C_16  and  N_21
REMARK    5  A    between atoms: C_18  and  N_20
REMARK                            x       y       z     vdW  Elec       q    Type
REMARK                         _______ _______ _______ _____ _____    ______ ____
ROOT
ATOM      1  N   UNL     1       0.191  -2.666  -2.505  0.00  0.00    -0.193 N 
ATOM      2  C   UNL     1       0.733  -3.897  -2.733  0.00  0.00    +0.187 A 
ATOM      3  N   UNL     1       0.278  -4.306  -3.899  0.00  0.00    -0.108 NA
ATOM      4  N   UNL     1      -0.504  -3.425  -4.410  0.00  0.00    -0.022 NA
ATOM      5  N   UNL     1      -0.614  -2.407  -3.628  0.00  0.00    -0.039 NA
ENDROOT
BRANCH   1   9
ATOM      6  C   UNL     1      -1.667   0.326   0.928  0.00  0.00    +0.047 C 
ATOM      7  C   UNL     1      -0.496  -0.380   0.295  0.00  0.00    -0.013 A 
ATOM      8  C   UNL     1      -0.692  -1.192  -0.805  0.00  0.00    +0.034 A 
ATOM      9  C   UNL     1       0.388  -1.841  -1.388  0.00  0.00    +0.070 A 
ATOM     10  C   UNL     1       1.663  -1.673  -0.865  0.00  0.00    +0.031 A 
ATOM     11  C   UNL     1       1.855  -0.861   0.235  0.00  0.00    +0.041 A 
ATOM     12  C   UNL     1       0.777  -0.209   0.812  0.00  0.00    +0.126 A 
ATOM     13  F   UNL     1       0.968   0.591   1.885  0.00  0.00    -0.205 F 
ENDBRANCH   1   9
BRANCH   2  14
ATOM     14  C   UNL     1       1.658  -4.631  -1.841  0.00  0.00    +0.025 A 
ATOM     15  C   UNL     1       1.572  -4.469  -0.459  0.00  0.00    +0.034 A 
ATOM     16  C   UNL     1       2.440  -5.159   0.375  0.00  0.00    +0.027 A 
ATOM     17  C   UNL     1       3.393  -6.011  -0.166  0.00  0.00    +0.045 A 
ATOM     18  C   UNL     1       3.481  -6.175  -1.542  0.00  0.00    +0.027 A 
ATOM     19  C   UNL     1       2.612  -5.492  -2.381  0.00  0.00    +0.034 A 
BRANCH  18  20
ATOM     20  N   UNL     1       4.442  -7.033  -2.082  0.00  0.00    -0.358 N 
ATOM     21  H   UNL     1       5.048  -7.514  -1.496  0.00  0.00    +0.142 HD
ATOM     22  H   UNL     1       4.504  -7.148  -3.043  0.00  0.00    +0.142 HD
ENDBRANCH  18  20
BRANCH  16  23
ATOM     23  N   UNL     1       2.354  -4.996   1.760  0.00  0.00    -0.358 N 
ATOM     24  H   UNL     1       1.689  -4.401   2.138  0.00  0.00    +0.142 HD
ATOM     25  H   UNL     1       2.961  -5.478   2.343  0.00  0.00    +0.142 HD
ENDBRANCH  16  23
ENDBRANCH   2  14
TORSDOF 4
