REMARK  Name = ZINC14949000
REMARK  7 active torsions:
REMARK  status: ('A' for Active; 'I' for Inactive)
REMARK    1  A    between atoms: C_3  and  C_30
REMARK    2  A    between atoms: C_6  and  C_7
REMARK    3  A    between atoms: C_16  and  C_18
REMARK    4  A    between atoms: C_18  and  C_19
REMARK    5  A    between atoms: C_19  and  C_21
REMARK    6  A    between atoms: C_19  and  N_53
REMARK    7  A    between atoms: C_21  and  C_22
REMARK                            x       y       z     vdW  Elec       q    Type
REMARK                         _______ _______ _______ _____ _____    ______ ____
ROOT
ATOM      1  C   UNL     1      10.762  -0.890  -2.602  0.00  0.00    +0.109 A 
ATOM      2  N   UNL     1       9.986  -0.502  -3.601  0.00  0.00    -0.244 NA
ATOM      3  C   UNL     1       8.663  -0.592  -3.554  0.00  0.00    +0.055 A 
ATOM      4  C   UNL     1       8.119  -1.117  -2.419  0.00  0.00    +0.030 A 
ATOM      5  S   UNL     1       9.544  -1.466  -1.423  0.00  0.00    -0.070 S 
ATOM      6  C   UNL     1       6.674  -1.333  -2.115  0.00  0.00    +0.152 C 
ATOM      7  N   UNL     1       5.902  -0.664  -3.183  0.00  0.00    -0.296 N 
ATOM      8  C   UNL     1       6.391  -0.810  -4.562  0.00  0.00    +0.114 C 
ATOM      9  C   UNL     1       7.761  -0.134  -4.696  0.00  0.00    +0.075 C 
ATOM     10  C   UNL     1       4.792   0.047  -2.904  0.00  0.00    +0.214 C 
ATOM     11  O   UNL     1       4.177   0.587  -3.799  0.00  0.00    -0.276 OA
ENDROOT
BRANCH   1  17
ATOM     12  C   UNL     1      13.008  -0.368  -3.544  0.00  0.00    +0.011 A 
ATOM     13  C   UNL     1      14.383  -0.336  -3.432  0.00  0.00    +0.013 A 
ATOM     14  C   UNL     1      14.996  -0.799  -2.282  0.00  0.00    +0.055 A 
ATOM     15  C   UNL     1      14.237  -1.292  -1.235  0.00  0.00    +0.013 A 
ATOM     16  C   UNL     1      12.861  -1.324  -1.333  0.00  0.00    +0.011 A 
ATOM     17  C   UNL     1      12.236  -0.858  -2.490  0.00  0.00    +0.007 A 
BRANCH  14  18
ATOM     18  C   UNL     1      16.499  -0.767  -2.168  0.00  0.00    +0.417 C 
ATOM     19  F   UNL     1      17.029  -1.967  -2.655  0.00  0.00    -0.166 F 
ATOM     20  F   UNL     1      17.000   0.302  -2.917  0.00  0.00    -0.166 F 
ATOM     21  F   UNL     1      16.862  -0.608  -0.827  0.00  0.00    -0.166 F 
ENDBRANCH  14  18
ENDBRANCH   1  17
BRANCH  10  22
ATOM     22  C   UNL     1       4.314   0.172  -1.480  0.00  0.00    +0.080 C 
BRANCH  22  23
ATOM     23  C   UNL     1       3.044   1.024  -1.441  0.00  0.00    -0.062 C 
BRANCH  23  26
ATOM     24  H   UNL     1       4.049   2.811  -1.258  0.00  0.00    -0.090 HD
ATOM     25  H   UNL     1       3.668   2.412  -2.827  0.00  0.00    -0.090 HD
ATOM     26  N   UNL     1       3.338   2.405  -1.863  0.00  0.00    +0.381 N 
ATOM     27  H   UNL     1       2.481   2.967  -1.798  0.00  0.00    -0.090 HD
ENDBRANCH  23  26
BRANCH  23  28
ATOM     28  C   UNL     1       2.490   1.047  -0.015  0.00  0.00    +0.022 C 
BRANCH  28  29
ATOM     29  C   UNL     1       1.175   1.783   0.000  0.00  0.00    -0.011 A 
ATOM     30  C   UNL     1      -0.013   1.076   0.008  0.00  0.00    +0.044 A 
ATOM     31  C   UNL     1      -1.221   1.752   0.017  0.00  0.00    +0.124 A 
ATOM     32  C   UNL     1      -1.239   3.136   0.029  0.00  0.00    +0.041 A 
ATOM     33  C   UNL     1      -0.052   3.843   0.022  0.00  0.00    +0.041 A 
ATOM     34  C   UNL     1       1.156   3.167   0.007  0.00  0.00    +0.127 A 
ATOM     35  F   UNL     1       2.317   3.859   0.001  0.00  0.00    -0.205 F 
ATOM     36  F   UNL     1      -2.381   1.060   0.020  0.00  0.00    -0.205 F 
ENDBRANCH  28  29
ENDBRANCH  23  28
ENDBRANCH  22  23
ENDBRANCH  10  22
TORSDOF 7
