REMARK  Name = ZINC19641226
REMARK  7 active torsions:
REMARK  status: ('A' for Active; 'I' for Inactive)
REMARK    1  A    between atoms: C_1  and  C_2
REMARK    2  A    between atoms: C_9  and  N_20
REMARK    3  A    between atoms: C_10  and  C_11
REMARK    4  A    between atoms: N_13  and  C_14
REMARK    5  A    between atoms: C_14  and  C_15
REMARK    6  A    between atoms: C_21  and  C_23
REMARK    7  A    between atoms: C_29  and  C_31
REMARK                            x       y       z     vdW  Elec       q    Type
REMARK                         _______ _______ _______ _____ _____    ______ ____
ROOT
ATOM      1  C   UNL     1      -6.875   0.802  -6.077  0.00  0.00    +0.008 C 
ATOM      2  C   UNL     1      -6.131  -0.124  -5.112  0.00  0.00    -0.009 C 
ATOM      3  C   UNL     1      -5.232   0.709  -4.193  0.00  0.00    +0.008 C 
ATOM      4  C   UNL     1      -4.677  -0.171  -3.071  0.00  0.00    +0.037 C 
ATOM      5  C   UNL     1      -4.032  -1.405  -3.690  0.00  0.00    -0.023 A 
ATOM      6  C   UNL     1      -4.319  -1.779  -4.956  0.00  0.00    -0.004 A 
ATOM      7  S   UNL     1      -3.350  -3.236  -5.227  0.00  0.00    -0.077 S 
ATOM      8  C   UNL     1      -2.571  -3.346  -3.683  0.00  0.00    +0.084 A 
ATOM      9  C   UNL     1      -3.084  -2.257  -2.993  0.00  0.00    +0.069 A 
ATOM     10  C   UNL     1      -5.253  -1.100  -5.909  0.00  0.00    +0.046 C 
ENDROOT
BRANCH   9  11
ATOM     11  C   UNL     1      -2.679  -1.974  -1.612  0.00  0.00    +0.247 C 
ATOM     12  O   UNL     1      -3.306  -2.450  -0.684  0.00  0.00    -0.270 OA
ATOM     13  N   UNL     1      -1.613  -1.185  -1.371  0.00  0.00    -0.304 N 
ATOM     14  H   UNL     1      -1.046  -0.755  -2.210  0.00  0.00    +0.149 HD
BRANCH  13  15
ATOM     15  C   UNL     1      -1.208  -0.902   0.008  0.00  0.00    +0.179 C 
BRANCH  15  16
ATOM     16  C   UNL     1       0.002  -0.004   0.002  0.00  0.00    +0.122 A 
ATOM     17  C   UNL     1      -0.016   1.341   0.009  0.00  0.00    +0.046 A 
ATOM     18  C   UNL     1       1.331   1.769  -0.001  0.00  0.00    +0.041 A 
ATOM     19  C   UNL     1       2.092   0.660  -0.014  0.00  0.00    +0.195 A 
ATOM     20  O   UNL     1       1.282  -0.411  -0.012  0.00  0.00    -0.466 OA
ENDBRANCH  15  16
ENDBRANCH  13  15
ENDBRANCH   9  11
BRANCH   8  21
ATOM     21  N   UNL     1      -1.659  -4.293  -3.244  0.00  0.00    -0.279 N 
ATOM     22  C   UNL     1      -1.274  -5.290  -4.066  0.00  0.00    +0.221 C 
ATOM     23  O   UNL     1      -1.726  -5.359  -5.189  0.00  0.00    -0.275 OA
ATOM     24  H   UNL     1      -1.249  -4.231  -2.225  0.00  0.00    +0.155 HD
BRANCH  22  25
ATOM     25  C   UNL     1      -0.283  -6.320  -3.588  0.00  0.00    +0.089 C 
ATOM     26  C   UNL     1       1.028  -5.628  -3.208  0.00  0.00    +0.013 C 
ATOM     27  C   UNL     1       1.594  -4.902  -4.430  0.00  0.00    +0.001 C 
ATOM     28  C   UNL     1       1.857  -5.913  -5.548  0.00  0.00    +0.001 C 
ATOM     29  C   UNL     1       0.547  -6.606  -5.928  0.00  0.00    +0.015 C 
ATOM     30  C   UNL     1      -0.020  -7.331  -4.705  0.00  0.00    +0.114 C 
BRANCH  30  31
ATOM     31  C   UNL     1      -1.311  -8.013  -5.080  0.00  0.00    +0.360 C 
ATOM     32  O   UNL     1      -2.336  -7.720  -4.511  0.00  0.00    -0.246 OA
ATOM     33  O   UNL     1      -1.322  -8.946  -6.045  0.00  0.00    -0.246 OA
ENDBRANCH  30  31
ENDBRANCH  22  25
ENDBRANCH   8  21
TORSDOF 6
