REMARK  Name = ZINC18709984
REMARK  8 active torsions:
REMARK  status: ('A' for Active; 'I' for Inactive)
REMARK    1  A    between atoms: C_1  and  C_2
REMARK    2  A    between atoms: C_2  and  C_4
REMARK    3  A    between atoms: C_2  and  N_53
REMARK    4  A    between atoms: N_6  and  C_7
REMARK    5  A    between atoms: C_10  and  O_13
REMARK    6  A    between atoms: O_13  and  C_14
REMARK    7  A    between atoms: N_20  and  S_23
REMARK    8  A    between atoms: S_23  and  C_26
REMARK                            x       y       z     vdW  Elec       q    Type
REMARK                         _______ _______ _______ _____ _____    ______ ____
ROOT
ATOM      1  C   UNL     1      -1.142  -2.054   0.251  0.00  0.00    -0.060 C 
ATOM      2  C   UNL     1      -2.501  -2.733   0.448  0.00  0.00    +0.091 C 
ATOM      3  N   UNL     1      -3.368  -2.382  -0.686  0.00  0.00    -0.180 NA
ATOM      4  C   UNL     1      -3.511  -0.961  -1.039  0.00  0.00    +0.091 C 
ATOM      5  C   UNL     1      -2.112  -0.351  -1.178  0.00  0.00    -0.060 C 
ATOM      6  N   UNL     1      -1.358  -0.602   0.070  0.00  0.00    +0.389 N 
ATOM      7  H   UNL     1      -1.902  -0.245   0.864  0.00  0.00    -0.081 HD
ENDROOT
BRANCH   3   8
ATOM      8  S   UNL     1      -4.164  -3.554  -1.543  0.00  0.00    +0.061 S 
ATOM      9  O   UNL     1      -4.291  -4.674  -0.678  0.00  0.00    -0.153 OA
ATOM     10  O   UNL     1      -5.288  -2.925  -2.145  0.00  0.00    -0.153 OA
BRANCH   8  11
ATOM     11  C   UNL     1      -3.101  -4.051  -2.857  0.00  0.00    +0.108 A 
ATOM     12  C   UNL     1      -3.168  -3.408  -4.080  0.00  0.00    +0.031 A 
ATOM     13  C   UNL     1      -2.331  -3.792  -5.111  0.00  0.00    +0.043 A 
ATOM     14  C   UNL     1      -1.433  -4.829  -4.923  0.00  0.00    +0.159 A 
ATOM     15  C   UNL     1      -1.370  -5.477  -3.699  0.00  0.00    +0.160 A 
ATOM     16  C   UNL     1      -2.205  -5.086  -2.667  0.00  0.00    +0.069 A 
ATOM     17  F   UNL     1      -0.494  -6.488  -3.514  0.00  0.00    -0.202 F 
ATOM     18  F   UNL     1      -0.618  -5.208  -5.932  0.00  0.00    -0.202 F 
ENDBRANCH   8  11
ENDBRANCH   3   8
BRANCH   6  20
ATOM     19  C   UNL     1       0.642  -0.153  -1.312  0.00  0.00    -0.004 C 
ATOM     20  C   UNL     1      -0.059   0.100   0.024  0.00  0.00    +0.017 C 
BRANCH  20  21
ATOM     21  C   UNL     1      -0.302   1.577   0.192  0.00  0.00    +0.203 C 
ATOM     22  O   UNL     1      -1.435   2.009   0.197  0.00  0.00    -0.277 OA
ATOM     23  N   UNL     1       0.740   2.419   0.338  0.00  0.00    -0.287 N 
ATOM     24  H   UNL     1       1.648   2.085   0.266  0.00  0.00    +0.155 HD
BRANCH  23  25
ATOM     25  C   UNL     1       0.513   3.778   0.594  0.00  0.00    +0.034 A 
ATOM     26  C   UNL     1      -0.573   4.421   0.016  0.00  0.00    +0.027 A 
ATOM     27  C   UNL     1      -0.800   5.759   0.273  0.00  0.00    +0.048 A 
ATOM     28  C   UNL     1       0.064   6.463   1.099  0.00  0.00    +0.130 A 
ATOM     29  C   UNL     1       1.152   5.822   1.673  0.00  0.00    +0.048 A 
ATOM     30  C   UNL     1       1.377   4.483   1.421  0.00  0.00    +0.027 A 
BRANCH  28  31
ATOM     31  O   UNL     1      -0.157   7.782   1.347  0.00  0.00    -0.406 OA
BRANCH  31  32
ATOM     32  C   UNL     1      -1.296   8.377   0.724  0.00  0.00    +0.575 C 
ATOM     33  F   UNL     1      -2.456   7.717   1.143  0.00  0.00    -0.133 F 
ATOM     34  F   UNL     1      -1.372   9.727   1.083  0.00  0.00    -0.133 F 
ATOM     35  F   UNL     1      -1.176   8.271  -0.666  0.00  0.00    -0.133 F 
ENDBRANCH  31  32
ENDBRANCH  28  31
ENDBRANCH  23  25
ENDBRANCH  20  21
ENDBRANCH   6  20
TORSDOF 7
