REMARK  Name = ZINC00846314
REMARK  11 active torsions:
REMARK  status: ('A' for Active; 'I' for Inactive)
REMARK    1  A    between atoms: C_1  and  O_2
REMARK    2  A    between atoms: O_2  and  C_3
REMARK    3  A    between atoms: C_5  and  C_13
REMARK    4  A    between atoms: C_7  and  O_11
REMARK    5  A    between atoms: C_8  and  O_9
REMARK    6  A    between atoms: O_9  and  C_10
REMARK    7  A    between atoms: O_11  and  C_12
REMARK    8  A    between atoms: C_20  and  N_38
REMARK    9  A    between atoms: C_21  and  C_36
REMARK   10  A    between atoms: C_22  and  C_24
REMARK   11  A    between atoms: C_27  and  C_30
REMARK                            x       y       z     vdW  Elec       q    Type
REMARK                         _______ _______ _______ _____ _____    ______ ____
ROOT
ATOM      1  C   UNL     1       2.549  -0.206   4.403  0.00  0.00    +0.101 A 
ATOM      2  C   UNL     1       2.583  -0.648   5.729  0.00  0.00    +0.054 A 
ATOM      3  C   UNL     1       3.272   0.273   6.464  0.00  0.00    +0.223 A 
ATOM      4  N   UNL     1       3.658   1.259   5.628  0.00  0.00    -0.246 N 
ATOM      5  H   UNL     1       4.166   2.048   5.874  0.00  0.00    +0.192 HD
ATOM      6  N   UNL     1       3.201   0.940   4.340  0.00  0.00    -0.171 NA
ATOM      7  O   UNL     1       3.480   0.138   7.798  0.00  0.00    -0.423 OA
ATOM      8  C   UNL     1       2.758  -0.794   8.451  0.00  0.00    +0.200 C 
ATOM      9  C   UNL     1       2.046  -1.764   7.834  0.00  0.00    +0.098 C 
ATOM     10  C   UNL     1       1.997  -1.898   6.332  0.00  0.00    +0.102 C 
ENDROOT
BRANCH   1  13
ATOM     11  C   UNL     1       0.043  -2.142   2.370  0.00  0.00    +0.166 A 
ATOM     12  C   UNL     1       0.647  -1.491   3.432  0.00  0.00    +0.059 A 
ATOM     13  C   UNL     1       1.900  -0.904   3.266  0.00  0.00    +0.010 A 
ATOM     14  C   UNL     1       2.542  -0.974   2.032  0.00  0.00    +0.059 A 
ATOM     15  C   UNL     1       1.935  -1.625   0.972  0.00  0.00    +0.166 A 
ATOM     16  C   UNL     1       0.687  -2.216   1.140  0.00  0.00    +0.204 A 
BRANCH  11  18
ATOM     17  C   UNL     1      -1.785  -2.601   3.821  0.00  0.00    +0.277 C 
ATOM     18  O   UNL     1      -1.180  -2.715   2.531  0.00  0.00    -0.491 OA
ENDBRANCH  11  18
BRANCH  16  19
ATOM     19  O   UNL     1       0.094  -2.860   0.099  0.00  0.00    -0.488 OA
ATOM     20  C   UNL     1      -0.745  -2.080  -0.754  0.00  0.00    +0.277 C 
ENDBRANCH  16  19
BRANCH  15  21
ATOM     21  O   UNL     1       2.562  -1.693  -0.234  0.00  0.00    -0.491 OA
ATOM     22  C   UNL     1       3.893  -1.177  -0.302  0.00  0.00    +0.277 C 
ENDBRANCH  15  21
ENDBRANCH   1  13
BRANCH  10  23
ATOM     23  C   UNL     1       2.803  -3.097   5.902  0.00  0.00    -0.035 A 
ATOM     24  C   UNL     1       4.164  -3.135   6.144  0.00  0.00    +0.005 A 
ATOM     25  C   UNL     1       4.907  -4.230   5.752  0.00  0.00    +0.009 A 
ATOM     26  C   UNL     1       4.283  -5.298   5.111  0.00  0.00    -0.018 A 
ATOM     27  C   UNL     1       2.911  -5.254   4.869  0.00  0.00    +0.009 A 
ATOM     28  C   UNL     1       2.177  -4.157   5.271  0.00  0.00    +0.005 A 
BRANCH  26  29
ATOM     29  C   UNL     1       5.076  -6.478   4.686  0.00  0.00    -0.018 A 
ATOM     30  C   UNL     1       6.447  -6.525   4.933  0.00  0.00    +0.008 A 
ATOM     31  C   UNL     1       7.180  -7.625   4.536  0.00  0.00    +0.001 A 
ATOM     32  C   UNL     1       6.556  -8.680   3.895  0.00  0.00    +0.000 A 
ATOM     33  C   UNL     1       5.196  -8.639   3.647  0.00  0.00    +0.001 A 
ATOM     34  C   UNL     1       4.452  -7.546   4.045  0.00  0.00    +0.008 A 
ENDBRANCH  26  29
ENDBRANCH  10  23
BRANCH   8  35
ATOM     35  N   UNL     1       2.744  -0.757   9.824  0.00  0.00    -0.328 N 
ATOM     36  H   UNL     1       3.245  -0.073  10.295  0.00  0.00    +0.145 HD
ATOM     37  H   UNL     1       2.234  -1.414  10.322  0.00  0.00    +0.145 HD
ENDBRANCH   8  35
BRANCH   9  38
ATOM     38  C   UNL     1       1.313  -2.697   8.635  0.00  0.00    +0.101 C 
ATOM     39  N   UNL     1       0.732  -3.438   9.270  0.00  0.00    -0.191 NA
ENDBRANCH   9  38
TORSDOF 8
