REMARK  Name = ZINC25582130
REMARK  8 active torsions:
REMARK  status: ('A' for Active; 'I' for Inactive)
REMARK    1  A    between atoms: C_1  and  C_2
REMARK    2  A    between atoms: C_5  and  S_8
REMARK    3  A    between atoms: S_8  and  N_11
REMARK    4  A    between atoms: C_14  and  N_17
REMARK    5  A    between atoms: C_18  and  C_20
REMARK    6  A    between atoms: C_20  and  C_22
REMARK    7  A    between atoms: C_20  and  N_28
REMARK    8  A    between atoms: C_29  and  C_31
REMARK                            x       y       z     vdW  Elec       q    Type
REMARK                         _______ _______ _______ _____ _____    ______ ____
ROOT
ATOM      1  N   UNL     1       0.851  -1.970   1.184  0.00  0.00    -0.311 N 
ATOM      2  C   UNL     1       1.079  -2.633   2.335  0.00  0.00    +0.238 C 
ATOM      3  O   UNL     1       1.288  -2.017   3.358  0.00  0.00    -0.273 OA
ATOM      4  H   UNL     1       0.661  -2.529   0.255  0.00  0.00    +0.149 HD
ENDROOT
BRANCH   1   8
ATOM      5  N   UNL     1       1.366   2.019  -0.000  0.00  0.00    -0.176 NA
ATOM      6  C   UNL     1      -0.019   1.528   0.010  0.00  0.00    +0.111 C 
ATOM      7  C   UNL     1       0.002  -0.004   0.002  0.00  0.00    +0.039 C 
ATOM      8  C   UNL     1       0.856  -0.505   1.169  0.00  0.00    +0.075 C 
ATOM      9  C   UNL     1       2.292  -0.002   1.006  0.00  0.00    +0.039 C 
ATOM     10  C   UNL     1       2.297   1.530   1.025  0.00  0.00    +0.111 C 
BRANCH   5  11
ATOM     11  S   UNL     1       1.867   3.104  -1.147  0.00  0.00    +0.061 S 
ATOM     12  O   UNL     1       3.276   2.955  -1.258  0.00  0.00    -0.153 OA
ATOM     13  O   UNL     1       0.995   2.953  -2.258  0.00  0.00    -0.153 OA
BRANCH  11  18
ATOM     14  C   UNL     1       0.887   8.628   1.074  0.00  0.00    +0.044 C 
ATOM     15  C   UNL     1       1.132   7.249   0.519  0.00  0.00    -0.050 A 
ATOM     16  C   UNL     1       2.340   6.617   0.746  0.00  0.00    +0.005 A 
ATOM     17  C   UNL     1       2.565   5.351   0.237  0.00  0.00    +0.029 A 
ATOM     18  C   UNL     1       1.581   4.717  -0.498  0.00  0.00    +0.105 A 
ATOM     19  C   UNL     1       0.374   5.351  -0.729  0.00  0.00    +0.029 A 
ATOM     20  C   UNL     1       0.148   6.615  -0.216  0.00  0.00    +0.005 A 
ENDBRANCH  11  18
ENDBRANCH   5  11
ENDBRANCH   1   8
BRANCH   2  21
ATOM     21  C   UNL     1       1.074  -4.140   2.350  0.00  0.00    +0.190 C 
BRANCH  21  22
ATOM     22  C   UNL     1       2.139  -4.655   1.416  0.00  0.00    -0.018 A 
ATOM     23  C   UNL     1       3.459  -4.685   1.823  0.00  0.00    +0.006 A 
ATOM     24  C   UNL     1       4.435  -5.162   0.968  0.00  0.00    +0.000 A 
ATOM     25  C   UNL     1       4.092  -5.600  -0.298  0.00  0.00    +0.000 A 
ATOM     26  C   UNL     1       2.772  -5.566  -0.706  0.00  0.00    +0.000 A 
ATOM     27  C   UNL     1       1.795  -5.093   0.151  0.00  0.00    +0.006 A 
ENDBRANCH  21  22
BRANCH  21  28
ATOM     28  N   UNL     1       1.345  -4.616   3.709  0.00  0.00    -0.296 N 
ATOM     29  C   UNL     1       0.912  -5.832   4.095  0.00  0.00    +0.252 C 
ATOM     30  O   UNL     1       0.298  -6.536   3.316  0.00  0.00    -0.270 OA
ATOM     31  H   UNL     1       1.900  -3.980   4.414  0.00  0.00    +0.150 HD
BRANCH  29  32
ATOM     32  C   UNL     1       1.183  -6.308   5.455  0.00  0.00    +0.074 A 
ATOM     33  C   UNL     1       0.832  -7.512   6.046  0.00  0.00    +0.021 A 
ATOM     34  C   UNL     1       1.216  -7.705   7.349  0.00  0.00    +0.008 A 
ATOM     35  C   UNL     1       1.910  -6.726   7.988  0.00  0.00    +0.046 A 
ATOM     36  S   UNL     1       2.058  -5.492   6.779  0.00  0.00    -0.092 S 
ENDBRANCH  29  32
ENDBRANCH  21  28
ENDBRANCH   2  21
TORSDOF 7
