REMARK  Name = ZINC29816941
REMARK  8 active torsions:
REMARK  status: ('A' for Active; 'I' for Inactive)
REMARK    1  A    between atoms: C_1  and  C_2
REMARK    2  A    between atoms: C_4  and  N_12
REMARK    3  A    between atoms: C_7  and  N_8
REMARK    4  A    between atoms: C_9  and  C_11
REMARK    5  A    between atoms: C_13  and  C_15
REMARK    6  A    between atoms: C_18  and  N_21
REMARK    7  A    between atoms: N_21  and  S_22
REMARK    8  A    between atoms: S_22  and  C_25
REMARK                            x       y       z     vdW  Elec       q    Type
REMARK                         _______ _______ _______ _____ _____    ______ ____
ROOT
ATOM      1  N   UNL     1       0.160   1.095  -0.414  0.00  0.00    -0.281 N 
ATOM      2  C   UNL     1       0.303  -0.217  -0.682  0.00  0.00    +0.248 C 
ATOM      3  O   UNL     1       1.369  -0.643  -1.083  0.00  0.00    -0.270 OA
ATOM      4  H   UNL     1      -0.826   1.496  -0.136  0.00  0.00    +0.155 HD
ENDROOT
BRANCH   1   8
ATOM      5  C   UNL     1       2.026   5.513  -1.496  0.00  0.00    +0.046 C 
ATOM      6  C   UNL     1       2.199   4.097  -1.010  0.00  0.00    -0.027 A 
ATOM      7  C   UNL     1       1.107   3.255  -0.936  0.00  0.00    +0.028 A 
ATOM      8  C   UNL     1       1.266   1.950  -0.488  0.00  0.00    +0.034 A 
ATOM      9  C   UNL     1       2.523   1.494  -0.108  0.00  0.00    +0.025 A 
ATOM     10  C   UNL     1       3.615   2.335  -0.188  0.00  0.00    +0.025 A 
ATOM     11  C   UNL     1       3.455   3.640  -0.636  0.00  0.00    +0.036 A 
BRANCH  11  12
ATOM     12  N   UNL     1       4.563   4.494  -0.712  0.00  0.00    -0.285 N 
ATOM     13  C   UNL     1       5.796   3.984  -0.902  0.00  0.00    +0.214 C 
ATOM     14  O   UNL     1       5.936   2.798  -1.111  0.00  0.00    -0.276 OA
ATOM     15  C   UNL     1       7.000   4.888  -0.856  0.00  0.00    +0.109 C 
ATOM     16  H   UNL     1       4.426   5.581  -0.615  0.00  0.00    +0.155 HD
ENDBRANCH  11  12
ENDBRANCH   1   8
BRANCH   2  17
ATOM     17  C   UNL     1      -0.834  -1.138  -0.490  0.00  0.00    +0.037 A 
ATOM     18  C   UNL     1      -2.058  -0.650  -0.024  0.00  0.00    +0.015 A 
ATOM     19  C   UNL     1      -3.119  -1.510   0.148  0.00  0.00    +0.027 A 
ATOM     20  C   UNL     1      -2.970  -2.866  -0.130  0.00  0.00    +0.074 A 
ATOM     21  C   UNL     1      -1.749  -3.356  -0.589  0.00  0.00    +0.027 A 
ATOM     22  C   UNL     1      -0.687  -2.500  -0.769  0.00  0.00    +0.015 A 
BRANCH  20  23
ATOM     23  N   UNL     1      -4.041  -3.734   0.050  0.00  0.00    -0.097 NA
BRANCH  23  24
ATOM     24  S   UNL     1      -4.063  -4.765   1.345  0.00  0.00    +0.098 S 
ATOM     25  O   UNL     1      -5.263  -5.521   1.243  0.00  0.00    -0.148 OA
ATOM     26  O   UNL     1      -2.781  -5.375   1.401  0.00  0.00    -0.148 OA
BRANCH  24  27
ATOM     27  C   UNL     1      -4.214  -3.776   2.796  0.00  0.00    +0.148 A 
ATOM     28  C   UNL     1      -5.331  -3.429   3.480  0.00  0.00    +0.037 A 
ATOM     29  C   UNL     1      -5.209  -2.636   4.606  0.00  0.00    +0.010 A 
ATOM     30  C   UNL     1      -3.975  -2.228   4.992  0.00  0.00    +0.047 A 
ATOM     31  S   UNL     1      -2.933  -2.978   3.750  0.00  0.00    -0.077 S 
ENDBRANCH  24  27
ENDBRANCH  23  24
ENDBRANCH  20  23
ENDBRANCH   2  17
TORSDOF 6
