REMARK  Name = ZINC39894592
REMARK  7 active torsions:
REMARK  status: ('A' for Active; 'I' for Inactive)
REMARK    1  A    between atoms: C_1  and  C_2
REMARK    2  A    between atoms: C_5  and  N_16
REMARK    3  A    between atoms: C_6  and  C_8
REMARK    4  A    between atoms: C_8  and  C_10
REMARK    5  A    between atoms: C_17  and  C_19
REMARK    6  A    between atoms: C_25  and  C_27
REMARK    7  A    between atoms: N_29  and  C_30
REMARK                            x       y       z     vdW  Elec       q    Type
REMARK                         _______ _______ _______ _____ _____    ______ ____
ROOT
ATOM      1  N   UNL     1       0.981  -3.359  -0.873  0.00  0.00    -0.285 N 
ATOM      2  C   UNL     1       1.569  -3.980  -1.915  0.00  0.00    +0.221 C 
ATOM      3  O   UNL     1       1.973  -3.332  -2.857  0.00  0.00    -0.275 OA
ATOM      4  H   UNL     1       0.588  -3.881  -0.156  0.00  0.00    +0.155 HD
ENDROOT
BRANCH   1   9
ATOM      5  C   UNL     1       0.811   2.313  -0.693  0.00  0.00    +0.044 C 
ATOM      6  C   UNL     1       0.849   0.807  -0.735  0.00  0.00    -0.050 A 
ATOM      7  C   UNL     1       1.779   0.163  -1.535  0.00  0.00    +0.005 A 
ATOM      8  C   UNL     1       1.825  -1.216  -1.583  0.00  0.00    +0.024 A 
ATOM      9  C   UNL     1       0.937  -1.968  -0.826  0.00  0.00    +0.044 A 
ATOM     10  C   UNL     1      -0.006  -1.319  -0.013  0.00  0.00    +0.044 A 
ATOM     11  C   UNL     1      -0.037   0.078   0.028  0.00  0.00    +0.017 A 
BRANCH  10  12
ATOM     12  C   UNL     1      -0.956  -2.106   0.795  0.00  0.00    +0.195 C 
ATOM     13  O   UNL     1      -0.778  -2.229   1.992  0.00  0.00    -0.287 OA
BRANCH  12  14
ATOM     14  C   UNL     1      -2.123  -2.744   0.151  0.00  0.00    +0.022 A 
ATOM     15  C   UNL     1      -2.295  -2.658  -1.232  0.00  0.00    +0.012 A 
ATOM     16  C   UNL     1      -3.386  -3.256  -1.827  0.00  0.00    +0.001 A 
ATOM     17  C   UNL     1      -4.309  -3.941  -1.056  0.00  0.00    +0.000 A 
ATOM     18  C   UNL     1      -4.144  -4.031   0.315  0.00  0.00    +0.001 A 
ATOM     19  C   UNL     1      -3.055  -3.442   0.922  0.00  0.00    +0.012 A 
ENDBRANCH  12  14
ENDBRANCH  10  12
ENDBRANCH   1   9
BRANCH   2  20
ATOM     20  C   UNL     1       1.725  -5.479  -1.908  0.00  0.00    +0.091 C 
ATOM     21  C   UNL     1       2.311  -5.929  -0.568  0.00  0.00    +0.040 C 
ATOM     22  C   UNL     1       3.746  -5.503  -0.462  0.00  0.00    -0.030 C 
ATOM     23  C   UNL     1       4.472  -5.142  -1.471  0.00  0.00    -0.030 C 
ATOM     24  C   UNL     1       3.977  -5.090  -2.887  0.00  0.00    +0.040 C 
ATOM     25  C   UNL     1       2.683  -5.902  -3.029  0.00  0.00    +0.091 C 
BRANCH  25  26
ATOM     26  C   UNL     1       2.049  -5.629  -4.368  0.00  0.00    +0.221 C 
ATOM     27  O   UNL     1       0.939  -5.144  -4.426  0.00  0.00    -0.275 OA
ATOM     28  N   UNL     1       2.715  -5.925  -5.502  0.00  0.00    -0.285 N 
ATOM     29  H   UNL     1       3.573  -6.375  -5.457  0.00  0.00    +0.155 HD
BRANCH  28  30
ATOM     30  C   UNL     1       2.168  -5.582  -6.744  0.00  0.00    +0.033 A 
ATOM     31  C   UNL     1       2.994  -5.138  -7.769  0.00  0.00    +0.024 A 
ATOM     32  C   UNL     1       2.452  -4.801  -8.993  0.00  0.00    +0.017 A 
ATOM     33  C   UNL     1       1.088  -4.905  -9.200  0.00  0.00    +0.018 A 
ATOM     34  C   UNL     1       0.263  -5.348  -8.181  0.00  0.00    +0.017 A 
ATOM     35  C   UNL     1       0.800  -5.691  -6.956  0.00  0.00    +0.024 A 
ATOM     36 BR   UNL     1       0.350  -4.442 -10.879  0.00  0.00    -0.050 Br
ENDBRANCH  28  30
ENDBRANCH  25  26
ENDBRANCH   2  20
TORSDOF 6
