REMARK  Name = ZINC09281352
REMARK  7 active torsions:
REMARK  status: ('A' for Active; 'I' for Inactive)
REMARK    1  A    between atoms: C_1  and  C_2
REMARK    2  A    between atoms: C_2  and  C_3
REMARK    3  A    between atoms: C_2  and  C_4
REMARK    4  A    between atoms: C_11  and  N_33
REMARK    5  A    between atoms: C_12  and  C_31
REMARK    6  A    between atoms: N_20  and  C_23
REMARK    7  A    between atoms: C_23  and  C_24
REMARK                            x       y       z     vdW  Elec       q    Type
REMARK                         _______ _______ _______ _____ _____    ______ ____
ROOT
ATOM      1  C   UNL     1       0.731  -0.503   1.223  0.00  0.00    +0.074 A 
ATOM      2  C   UNL     1       0.201  -1.322   2.210  0.00  0.00    +0.062 A 
ATOM      3  C   UNL     1       1.177  -1.547   3.143  0.00  0.00    +0.223 A 
ATOM      4  N   UNL     1       2.277  -0.890   2.745  0.00  0.00    -0.246 N 
ATOM      5  H   UNL     1       3.129  -0.868   3.209  0.00  0.00    +0.192 HD
ATOM      6  N   UNL     1       1.979  -0.244   1.534  0.00  0.00    -0.175 NA
ATOM      7  O   UNL     1       0.973  -2.314   4.243  0.00  0.00    -0.423 OA
ATOM      8  C   UNL     1      -0.296  -2.647   4.554  0.00  0.00    +0.201 C 
ATOM      9  C   UNL     1      -1.344  -2.485   3.712  0.00  0.00    +0.110 C 
ATOM     10  C   UNL     1      -1.177  -1.910   2.333  0.00  0.00    +0.145 C 
ATOM     11  C   UNL     1      -1.422  -2.943   1.280  0.00  0.00    -0.001 A 
ATOM     12  C   UNL     1      -0.793  -4.138   1.006  0.00  0.00    +0.007 A 
ATOM     13  C   UNL     1      -1.279  -4.876  -0.068  0.00  0.00    +0.000 A 
ATOM     14  C   UNL     1      -2.343  -4.429  -0.824  0.00  0.00    +0.002 A 
ATOM     15  C   UNL     1      -2.981  -3.228  -0.554  0.00  0.00    +0.024 A 
ATOM     16  C   UNL     1      -2.504  -2.478   0.521  0.00  0.00    +0.041 A 
ATOM     17  N   UNL     1      -2.946  -1.262   1.010  0.00  0.00    -0.265 N 
ATOM     18  C   UNL     1      -2.226  -0.851   2.075  0.00  0.00    +0.241 C 
ATOM     19  O   UNL     1      -2.388   0.172   2.705  0.00  0.00    -0.274 OA
ENDROOT
BRANCH   1  21
ATOM     20  C   UNL     1      -0.019   1.526   0.010  0.00  0.00    +0.014 C 
ATOM     21  C   UNL     1       0.002  -0.004   0.002  0.00  0.00    +0.034 C 
ATOM     22  C   UNL     1       0.718  -0.497  -1.257  0.00  0.00    +0.014 C 
ENDBRANCH   1  21
BRANCH   8  23
ATOM     23  N   UNL     1      -0.539  -3.182   5.795  0.00  0.00    -0.328 N 
ATOM     24  H   UNL     1       0.192  -3.310   6.420  0.00  0.00    +0.145 HD
ATOM     25  H   UNL     1      -1.442  -3.431   6.047  0.00  0.00    +0.145 HD
ENDBRANCH   8  23
BRANCH   9  26
ATOM     26  C   UNL     1      -2.651  -2.872   4.149  0.00  0.00    +0.102 C 
ATOM     27  N   UNL     1      -3.689  -3.179   4.496  0.00  0.00    -0.191 NA
ENDBRANCH   9  26
BRANCH  17  28
ATOM     28  C   UNL     1      -4.065  -0.507   0.438  0.00  0.00    +0.148 C 
BRANCH  28  29
ATOM     29  C   UNL     1      -5.348  -0.924   1.110  0.00  0.00    -0.030 A 
ATOM     30  C   UNL     1      -6.087  -1.974   0.597  0.00  0.00    +0.006 A 
ATOM     31  C   UNL     1      -7.264  -2.356   1.213  0.00  0.00    +0.020 A 
ATOM     32  C   UNL     1      -7.701  -1.689   2.344  0.00  0.00    +0.041 A 
ATOM     33  C   UNL     1      -6.960  -0.639   2.857  0.00  0.00    +0.020 A 
ATOM     34  C   UNL     1      -5.781  -0.261   2.243  0.00  0.00    +0.006 A 
ATOM     35 CL   UNL     1      -9.179  -2.169   3.118  0.00  0.00    -0.084 Cl
ENDBRANCH  28  29
ENDBRANCH  17  28
TORSDOF 5
