REMARK  Name = ZINC06883022
REMARK  5 active torsions:
REMARK  status: ('A' for Active; 'I' for Inactive)
REMARK    1  A    between atoms: C_3  and  N_19
REMARK    2  A    between atoms: C_6  and  C_7
REMARK    3  A    between atoms: N_9  and  N_10
REMARK    4  A    between atoms: C_11  and  C_13
REMARK    5  A    between atoms: C_20  and  C_22
REMARK                            x       y       z     vdW  Elec       q    Type
REMARK                         _______ _______ _______ _____ _____    ______ ____
ROOT
ATOM      1  C   UNL     1      -3.707   3.058   0.211  0.00  0.00    +0.015 A 
ATOM      2  C   UNL     1      -4.909   3.729   0.220  0.00  0.00    +0.024 A 
ATOM      3  C   UNL     1      -6.099   3.031   0.042  0.00  0.00    +0.033 A 
ATOM      4  C   UNL     1      -6.079   1.653  -0.150  0.00  0.00    +0.024 A 
ATOM      5  C   UNL     1      -4.881   0.976  -0.165  0.00  0.00    +0.015 A 
ATOM      6  C   UNL     1      -3.683   1.674   0.013  0.00  0.00    +0.038 A 
ENDROOT
BRANCH   6   7
ATOM      7  C   UNL     1      -2.397   0.952  -0.003  0.00  0.00    +0.260 C 
ATOM      8  O   UNL     1      -2.378  -0.252  -0.170  0.00  0.00    -0.269 OA
ATOM      9  N   UNL     1      -1.243   1.626   0.169  0.00  0.00    -0.230 N 
ATOM     10  H   UNL     1      -1.258   2.587   0.303  0.00  0.00    +0.173 HD
BRANCH   9  11
ATOM     11  N   UNL     1      -0.021   0.940   0.154  0.00  0.00    -0.234 N 
ATOM     12  C   UNL     1       1.133   1.616   0.321  0.00  0.00    +0.232 C 
ATOM     13  O   UNL     1       1.114   2.817   0.488  0.00  0.00    -0.274 OA
ATOM     14  H   UNL     1      -0.006  -0.020   0.021  0.00  0.00    +0.173 HD
BRANCH  12  15
ATOM     15  C   UNL     1       2.447   0.879   0.299  0.00  0.00    +0.076 C 
ATOM     16  C   UNL     1       2.466  -0.165   1.417  0.00  0.00    +0.013 C 
ATOM     17  C   UNL     1       3.800  -0.913   1.395  0.00  0.00    +0.001 C 
ATOM     18  C   UNL     1       4.945   0.080   1.605  0.00  0.00    +0.000 C 
ATOM     19  C   UNL     1       4.927   1.123   0.486  0.00  0.00    +0.001 C 
ATOM     20  C   UNL     1       3.592   1.872   0.509  0.00  0.00    +0.013 C 
ENDBRANCH  12  15
ENDBRANCH   9  11
ENDBRANCH   6   7
BRANCH   3  21
ATOM     21  N   UNL     1      -7.315   3.714   0.057  0.00  0.00    -0.285 N 
ATOM     22  C   UNL     1      -8.417   3.117   0.552  0.00  0.00    +0.220 C 
ATOM     23  O   UNL     1      -8.334   2.025   1.072  0.00  0.00    -0.275 OA
ATOM     24  H   UNL     1      -7.367   4.619  -0.289  0.00  0.00    +0.155 HD
BRANCH  22  25
ATOM     25  C   UNL     1      -9.754   3.807   0.460  0.00  0.00    +0.075 C 
ATOM     26  C   UNL     1      -9.691   5.143   1.204  0.00  0.00    +0.013 C 
ATOM     27  C   UNL     1     -11.047   5.843   1.111  0.00  0.00    +0.001 C 
ATOM     28  C   UNL     1     -12.123   4.958   1.743  0.00  0.00    +0.000 C 
ATOM     29  C   UNL     1     -12.187   3.623   0.999  0.00  0.00    +0.001 C 
ATOM     30  C   UNL     1     -10.830   2.922   1.092  0.00  0.00    +0.013 C 
ENDBRANCH  22  25
ENDBRANCH   3  21
TORSDOF 5
