REMARK  Name = ZINC36643278
REMARK  15 active torsions:
REMARK  status: ('A' for Active; 'I' for Inactive)
REMARK    1  A    between atoms: C_1  and  C_2
REMARK    2  A    between atoms: C_2  and  C_3
REMARK    3  A    between atoms: C_3  and  N_4
REMARK    4  A    between atoms: N_4  and  C_5
REMARK    5  A    between atoms: N_4  and  S_8
REMARK    6  A    between atoms: C_5  and  C_6
REMARK    7  A    between atoms: C_6  and  C_7
REMARK    8  A    between atoms: S_8  and  C_11
REMARK    9  A    between atoms: C_14  and  C_17
REMARK   10  A    between atoms: N_19  and  C_20
REMARK   11  A    between atoms: C_20  and  C_21
REMARK   12  A    between atoms: C_21  and  C_22
REMARK   13  A    between atoms: C_22  and  N_23
REMARK   14  A    between atoms: N_23  and  C_24
REMARK   15  A    between atoms: N_23  and  C_25
REMARK                            x       y       z     vdW  Elec       q    Type
REMARK                         _______ _______ _______ _____ _____    ______ ____
ROOT
ATOM      1  C   UNL     1       1.073  -3.627   4.766  0.00  0.00    +0.252 C 
ATOM      2  O   UNL     1       1.628  -2.763   5.415  0.00  0.00    -0.270 OA
ATOM      3  N   UNL     1       0.495  -4.673   5.391  0.00  0.00    -0.246 N 
ATOM      4  C   UNL     1       0.427  -4.701   6.774  0.00  0.00    +0.168 A 
ATOM      5  N   UNL     1      -0.085  -5.625   7.553  0.00  0.00    -0.224 NA
ATOM      6  C   UNL     1      -0.082  -5.521   8.900  0.00  0.00    +0.080 A 
ATOM      7  C   UNL     1      -0.597  -6.436   9.848  0.00  0.00    +0.032 A 
ATOM      8  C   UNL     1      -0.514  -6.176  11.190  0.00  0.00    +0.040 A 
ATOM      9  C   UNL     1       0.075  -5.012  11.669  0.00  0.00    +0.125 A 
ATOM     10  C   UNL     1       0.590  -4.094  10.769  0.00  0.00    +0.055 A 
ATOM     11  C   UNL     1       0.510  -4.348   9.423  0.00  0.00    +0.043 A 
ATOM     12  S   UNL     1       1.021  -3.495   7.950  0.00  0.00    -0.052 S 
ATOM     13  F   UNL     1       0.144  -4.779  12.998  0.00  0.00    -0.205 F 
ENDROOT
BRANCH   1  17
ATOM     14  C   UNL     1       0.952  -3.353   0.530  0.00  0.00    +0.106 A 
ATOM     15  C   UNL     1       0.665  -2.240   1.300  0.00  0.00    +0.029 A 
ATOM     16  C   UNL     1       0.702  -2.322   2.677  0.00  0.00    +0.015 A 
ATOM     17  C   UNL     1       1.030  -3.532   3.292  0.00  0.00    +0.037 A 
ATOM     18  C   UNL     1       1.319  -4.651   2.509  0.00  0.00    +0.015 A 
ATOM     19  C   UNL     1       1.273  -4.556   1.133  0.00  0.00    +0.029 A 
BRANCH  14  20
ATOM     20  S   UNL     1       0.901  -3.239  -1.228  0.00  0.00    +0.061 S 
ATOM     21  O   UNL     1       1.735  -4.277  -1.726  0.00  0.00    -0.153 OA
ATOM     22  O   UNL     1       1.110  -1.872  -1.553  0.00  0.00    -0.153 OA
BRANCH  20  23
ATOM     23  N   UNL     1      -0.643  -3.607  -1.698  0.00  0.00    -0.177 NA
BRANCH  23  24
ATOM     24  C   UNL     1      -1.645  -2.545  -1.818  0.00  0.00    +0.109 C 
BRANCH  24  26
ATOM     25  C   UNL     1      -3.497  -1.346  -0.646  0.00  0.00    +0.005 C 
ATOM     26  C   UNL     1      -2.451  -2.455  -0.521  0.00  0.00    +0.014 C 
ENDBRANCH  24  26
ENDBRANCH  23  24
BRANCH  23  27
ATOM     27  C   UNL     1      -1.008  -4.995  -1.995  0.00  0.00    +0.109 C 
BRANCH  27  28
ATOM     28  C   UNL     1      -0.881  -5.245  -3.498  0.00  0.00    +0.014 C 
ATOM     29  C   UNL     1      -1.262  -6.694  -3.808  0.00  0.00    +0.005 C 
ENDBRANCH  27  28
ENDBRANCH  23  27
ENDBRANCH  20  23
ENDBRANCH  14  20
ENDBRANCH   1  17
BRANCH   3  30
ATOM     30  C   UNL     1      -0.060  -5.778   4.607  0.00  0.00    +0.114 C 
BRANCH  30  31
ATOM     31  C   UNL     1       0.952  -6.925   4.553  0.00  0.00    +0.001 C 
BRANCH  31  32
ATOM     32  C   UNL     1       0.429  -8.023   3.625  0.00  0.00    -0.078 C 
BRANCH  32  33
ATOM     33  N   UNL     1       1.401  -9.123   3.574  0.00  0.00    +0.376 N 
ATOM     34  C   UNL     1       0.848 -10.229   2.779  0.00  0.00    -0.097 C 
ATOM     35  C   UNL     1       2.646  -8.649   2.953  0.00  0.00    -0.097 C 
ATOM     36  H   UNL     1       1.594  -9.446   4.510  0.00  0.00    -0.083 HD
ENDBRANCH  32  33
ENDBRANCH  31  32
ENDBRANCH  30  31
ENDBRANCH   3  30
TORSDOF 11
