REMARK  Name = ZINC23449540
REMARK  7 active torsions:
REMARK  status: ('A' for Active; 'I' for Inactive)
REMARK    1  A    between atoms: C_1  and  C_2
REMARK    2  A    between atoms: C_2  and  C_4
REMARK    3  A    between atoms: C_2  and  S_17
REMARK    4  A    between atoms: N_6  and  C_7
REMARK    5  A    between atoms: S_17  and  C_18
REMARK    6  A    between atoms: C_21  and  C_24
REMARK    7  A    between atoms: N_22  and  N_23
REMARK                            x       y       z     vdW  Elec       q    Type
REMARK                         _______ _______ _______ _____ _____    ______ ____
ROOT
ATOM      1  S   UNL     1       0.900  -0.752  -1.382  0.00  0.00    -0.072 S 
ENDROOT
BRANCH   1   2
ATOM      2  C   UNL     1       2.528  -0.093  -1.242  0.00  0.00    +0.209 A 
ATOM      3  N   UNL     1       2.963   0.720  -0.305  0.00  0.00    -0.121 NA
ATOM      4  N   UNL     1       4.200   1.004  -0.506  0.00  0.00    -0.127 NA
ATOM      5  C   UNL     1       4.631   0.390  -1.583  0.00  0.00    +0.183 A 
ATOM      6  N   UNL     1       3.576  -0.336  -2.085  0.00  0.00    -0.224 N 
BRANCH   5   7
ATOM      7  C   UNL     1       5.996   0.461  -2.147  0.00  0.00    +0.039 A 
ATOM      8  C   UNL     1       6.179   0.687  -3.513  0.00  0.00    +0.014 A 
ATOM      9  C   UNL     1       7.454   0.753  -4.033  0.00  0.00    +0.021 A 
ATOM     10  C   UNL     1       8.553   0.594  -3.205  0.00  0.00    +0.042 A 
ATOM     11  C   UNL     1       8.379   0.369  -1.850  0.00  0.00    +0.040 A 
ATOM     12  C   UNL     1       7.107   0.307  -1.316  0.00  0.00    +0.053 A 
ATOM     13 CL   UNL     1       6.891   0.032   0.385  0.00  0.00    -0.083 Cl
ATOM     14 CL   UNL     1      10.155   0.677  -3.869  0.00  0.00    -0.083 Cl
ENDBRANCH   5   7
BRANCH   6  15
ATOM     15  N   UNL     1       3.575  -1.131  -3.195  0.00  0.00    -0.295 N 
ATOM     16  H   UNL     1       3.404  -0.589  -4.028  0.00  0.00    +0.163 HD
ATOM     17  H   UNL     1       4.438  -1.648  -3.270  0.00  0.00    +0.163 HD
ENDBRANCH   6  15
ENDBRANCH   1   2
BRANCH   1  19
ATOM     18  C   UNL     1      -0.077   1.476  -0.132  0.00  0.00    +0.029 C 
ATOM     19  C   UNL     1       0.016  -0.042   0.034  0.00  0.00    +0.137 C 
BRANCH  19  20
ATOM     20  C   UNL     1      -1.371  -0.626   0.105  0.00  0.00    +0.227 C 
ATOM     21  O   UNL     1      -1.863  -1.141  -0.877  0.00  0.00    -0.275 OA
ATOM     22  N   UNL     1      -2.065  -0.576   1.259  0.00  0.00    -0.309 N 
ATOM     23  H   UNL     1      -1.672  -0.164   2.044  0.00  0.00    +0.149 HD
BRANCH  22  24
ATOM     24  C   UNL     1      -3.414  -1.144   1.328  0.00  0.00    +0.035 C 
ATOM     25  C   UNL     1      -3.356  -2.637   0.995  0.00  0.00    +0.029 C 
ATOM     26  C   UNL     1      -4.765  -3.230   1.067  0.00  0.00    -0.008 C 
ATOM     27  C   UNL     1      -5.325  -3.043   2.478  0.00  0.00    +0.007 C 
ATOM     28  C   UNL     1      -5.383  -1.551   2.811  0.00  0.00    -0.008 C 
ATOM     29  C   UNL     1      -3.975  -0.957   2.739  0.00  0.00    +0.029 C 
ATOM     30  C   UNL     1      -6.288  -0.838   1.804  0.00  0.00    +0.007 C 
ATOM     31  C   UNL     1      -5.728  -1.025   0.393  0.00  0.00    -0.008 C 
ATOM     32  C   UNL     1      -5.670  -2.518   0.060  0.00  0.00    +0.007 C 
ATOM     33  C   UNL     1      -4.319  -0.432   0.321  0.00  0.00    +0.029 C 
ENDBRANCH  22  24
ENDBRANCH  19  20
ENDBRANCH   1  19
TORSDOF 6
