REMARK  Name = ZINC13701820
REMARK  4 active torsions:
REMARK  status: ('A' for Active; 'I' for Inactive)
REMARK    1  A    between atoms: C_11  and  C_13
REMARK    2  A    between atoms: C_13  and  S_14
REMARK    3  A    between atoms: S_14  and  C_15
REMARK    4  A    between atoms: C_22  and  C_24
REMARK                            x       y       z     vdW  Elec       q    Type
REMARK                         _______ _______ _______ _____ _____    ______ ____
ROOT
ATOM      1  C   UNL     1       0.002  -0.004  -0.004  0.00  0.00    +0.120 A 
ATOM      2  C   UNL     1      -1.197  -0.721   0.005  0.00  0.00    +0.040 A 
ATOM      3  C   UNL     1      -1.127  -2.102  -0.002  0.00  0.00    +0.048 A 
ATOM      4  C   UNL     1       0.138  -2.693  -0.017  0.00  0.00    +0.148 A 
ATOM      5  N   UNL     1       1.220  -1.934  -0.023  0.00  0.00    -0.133 NA
ATOM      6  N   UNL     1       1.156  -0.652  -0.022  0.00  0.00    -0.141 NA
ATOM      7  N   UNL     1       0.259  -4.084  -0.024  0.00  0.00    -0.265 N 
ATOM      8  C   UNL     1       1.475  -4.654  -0.141  0.00  0.00    +0.249 C 
ATOM      9  O   UNL     1       2.473  -3.960  -0.147  0.00  0.00    -0.270 OA
ATOM     10  H   UNL     1      -0.532  -4.640   0.054  0.00  0.00    +0.157 HD
ENDROOT
BRANCH   8  11
ATOM     11  C   UNL     1       1.595  -6.122  -0.263  0.00  0.00    +0.040 A 
ATOM     12  C   UNL     1       2.853  -6.715  -0.384  0.00  0.00    +0.013 A 
ATOM     13  C   UNL     1       2.959  -8.086  -0.496  0.00  0.00    +0.004 A 
ATOM     14  C   UNL     1       1.822  -8.874  -0.489  0.00  0.00    +0.038 A 
ATOM     15  C   UNL     1       0.570  -8.293  -0.369  0.00  0.00    +0.124 A 
ATOM     16  C   UNL     1       0.451  -6.921  -0.251  0.00  0.00    +0.051 A 
ATOM     17  F   UNL     1      -0.536  -9.069  -0.363  0.00  0.00    -0.205 F 
ENDBRANCH   8  11
BRANCH   1  18
ATOM     18  S   UNL     1      -0.023   1.758   0.004  0.00  0.00    -0.095 S 
BRANCH  18  19
ATOM     19  C   UNL     1       1.731   2.221  -0.010  0.00  0.00    +0.172 C 
BRANCH  19  30
ATOM     20  C   UNL     1       5.105  10.025  -0.011  0.00  0.00    +0.002 A 
ATOM     21  C   UNL     1       3.822  10.555   0.003  0.00  0.00    +0.001 A 
ATOM     22  C   UNL     1       2.736   9.699   0.009  0.00  0.00    +0.017 A 
ATOM     23  C   UNL     1       2.942   8.342   0.003  0.00  0.00    +0.041 A 
ATOM     24  C   UNL     1       4.233   7.767  -0.011  0.00  0.00    +0.080 A 
ATOM     25  C   UNL     1       5.320   8.672  -0.018  0.00  0.00    +0.029 A 
ATOM     26  N   UNL     1       4.272   6.417  -0.017  0.00  0.00    -0.225 NA
ATOM     27  C   UNL     1       3.186   5.680  -0.009  0.00  0.00    +0.165 A 
ATOM     28  S   UNL     1       1.890   6.911  -0.001  0.00  0.00    -0.052 S 
ATOM     29  N   UNL     1       3.073   4.299  -0.014  0.00  0.00    -0.264 N 
ATOM     30  C   UNL     1       1.854   3.723  -0.005  0.00  0.00    +0.229 C 
ATOM     31  O   UNL     1       0.857   4.413   0.007  0.00  0.00    -0.275 OA
ATOM     32  H   UNL     1       3.870   3.747  -0.024  0.00  0.00    +0.157 HD
ENDBRANCH  19  30
ENDBRANCH  18  19
ENDBRANCH   1  18
TORSDOF 4
