REMARK  Name = ZINC51329889
REMARK  3 active torsions:
REMARK  status: ('A' for Active; 'I' for Inactive)
REMARK    1  A    between atoms: C_1  and  O_2
REMARK    2  A    between atoms: O_2  and  C_3
REMARK    3  A    between atoms: C_6  and  C_9
REMARK                            x       y       z     vdW  Elec       q    Type
REMARK                         _______ _______ _______ _____ _____    ______ ____
ROOT
ATOM      1  C   UNL     1       2.587  -2.550   4.310  0.00  0.00    +0.107 C 
ATOM      2  C   UNL     1       3.993  -2.980   3.881  0.00  0.00    +0.038 C 
ATOM      3  C   UNL     1       3.900  -3.850   2.628  0.00  0.00    +0.008 C 
ATOM      4  C   UNL     1       5.303  -4.234   2.156  0.00  0.00    +0.005 C 
ATOM      5  C   UNL     1       5.984  -5.091   3.228  0.00  0.00    +0.034 C 
ATOM      6  C   UNL     1       5.954  -4.336   4.538  0.00  0.00    -0.029 C 
ATOM      7  C   UNL     1       7.066  -4.160   5.250  0.00  0.00    +0.042 C 
ATOM      8  S   UNL     1       7.259  -3.318   6.806  0.00  0.00    -0.118 S 
ATOM      9  C   UNL     1       9.035  -3.451   7.215  0.00  0.00    +0.086 C 
ATOM     10  C   UNL     1       9.774  -3.576   5.857  0.00  0.00    +0.086 C 
ATOM     11  S   UNL     1       8.719  -4.717   4.877  0.00  0.00    -0.118 S 
ATOM     12  C   UNL     1       4.634  -3.777   5.023  0.00  0.00    +0.105 C 
ATOM     13  N   UNL     1       3.755  -4.886   5.392  0.00  0.00    -0.320 N 
ATOM     14  C   UNL     1       2.426  -4.812   5.227  0.00  0.00    +0.131 C 
ATOM     15  S   UNL     1       1.463  -6.148   5.694  0.00  0.00    -0.019 S 
ATOM     16  N   UNL     1       1.821  -3.731   4.711  0.00  0.00    -0.319 N 
ATOM     17  H   UNL     1       4.141  -5.694   5.764  0.00  0.00    +0.148 HD
ATOM     18  H   UNL     1       0.857  -3.733   4.600  0.00  0.00    +0.148 HD
ENDROOT
BRANCH   1  22
ATOM     19  C   UNL     1       0.626  -0.618   1.042  0.00  0.00    +0.120 A 
ATOM     20  C   UNL     1       1.202   0.138   2.051  0.00  0.00    +0.046 A 
ATOM     21  C   UNL     1       1.835  -0.488   3.107  0.00  0.00    +0.009 A 
ATOM     22  C   UNL     1       1.895  -1.869   3.158  0.00  0.00    -0.027 A 
ATOM     23  C   UNL     1       1.322  -2.625   2.152  0.00  0.00    +0.009 A 
ATOM     24  C   UNL     1       0.682  -2.003   1.098  0.00  0.00    +0.046 A 
BRANCH  19  26
ATOM     25  C   UNL     1      -0.017   1.425   0.010  0.00  0.00    +0.277 C 
ATOM     26  O   UNL     1       0.002  -0.004   0.002  0.00  0.00    -0.495 OA
ENDBRANCH  19  26
ENDBRANCH   1  22
TORSDOF 2
