REMARK  Name = ZINC20480364
REMARK  2 active torsions:
REMARK  status: ('A' for Active; 'I' for Inactive)
REMARK    1  A    between atoms: C_6  and  C_7
REMARK    2  A    between atoms: C_15  and  N_19
REMARK                            x       y       z     vdW  Elec       q    Type
REMARK                         _______ _______ _______ _____ _____    ______ ____
ROOT
ATOM      1  C   UNL     1       6.298   3.128  -0.042  0.00  0.00    +0.250 C 
ATOM      2  O   UNL     1       5.382   3.927  -0.028  0.00  0.00    -0.270 OA
ATOM      3  N   UNL     1       6.038   1.805  -0.046  0.00  0.00    -0.261 N 
ATOM      4  C   UNL     1       4.728   1.357  -0.036  0.00  0.00    +0.166 A 
ATOM      5  N   UNL     1       3.618   2.058  -0.021  0.00  0.00    -0.225 NA
ATOM      6  C   UNL     1       2.395   1.482  -0.013  0.00  0.00    +0.080 A 
ATOM      7  C   UNL     1       1.132   2.117   0.003  0.00  0.00    +0.031 A 
ATOM      8  C   UNL     1      -0.017   1.389   0.010  0.00  0.00    +0.025 A 
ATOM      9  C   UNL     1       0.002  -0.004   0.002  0.00  0.00    +0.026 A 
ATOM     10  C   UNL     1       1.224  -0.664  -0.013  0.00  0.00    +0.040 A 
ATOM     11  C   UNL     1       2.385   0.068  -0.020  0.00  0.00    +0.043 A 
ATOM     12  S   UNL     1       4.118  -0.323  -0.039  0.00  0.00    -0.052 S 
ATOM     13  H   UNL     1       6.867   1.082  -0.059  0.00  0.00    +0.157 HD
ENDROOT
BRANCH   1  19
ATOM     14  C   UNL     1       8.750   2.691  -0.063  0.00  0.00    +0.014 A 
ATOM     15  C   UNL     1      10.052   3.144  -0.080  0.00  0.00    +0.015 A 
ATOM     16  C   UNL     1      10.316   4.503  -0.074  0.00  0.00    +0.013 A 
ATOM     17  C   UNL     1       9.275   5.416  -0.059  0.00  0.00    +0.015 A 
ATOM     18  C   UNL     1       7.968   4.976  -0.048  0.00  0.00    +0.014 A 
ATOM     19  C   UNL     1       7.696   3.606  -0.053  0.00  0.00    +0.037 A 
ATOM     20  I   UNL     1      12.298   5.181  -0.090  0.00  0.00    -0.044 I 
ENDBRANCH   1  19
BRANCH   9  21
ATOM     21  N   UNL     1      -1.195  -0.729   0.010  0.00  0.00    -0.358 N 
ATOM     22  H   UNL     1      -1.172  -1.829   0.004  0.00  0.00    +0.142 HD
ATOM     23  H   UNL     1      -2.159  -0.199   0.022  0.00  0.00    +0.142 HD
ENDBRANCH   9  21
TORSDOF 2
