REMARK  Name = ZINC50321138
REMARK  6 active torsions:
REMARK  status: ('A' for Active; 'I' for Inactive)
REMARK    1  A    between atoms: C_1  and  C_2
REMARK    2  A    between atoms: C_2  and  C_3
REMARK    3  A    between atoms: C_2  and  C_4
REMARK    4  A    between atoms: C_5  and  N_24
REMARK    5  A    between atoms: C_6  and  C_10
REMARK    6  A    between atoms: C_16  and  C_18
REMARK                            x       y       z     vdW  Elec       q    Type
REMARK                         _______ _______ _______ _____ _____    ______ ____
ROOT
ATOM      1  C   UNL     1       1.232  -2.294   4.359  0.00  0.00    +0.269 C 
ATOM      2  O   UNL     1       0.207  -2.869   4.670  0.00  0.00    -0.268 OA
ATOM      3  N   UNL     1       2.323  -2.387   5.145  0.00  0.00    -0.288 N 
ATOM      4  C   UNL     1       3.623  -1.739   4.891  0.00  0.00    +0.109 C 
ATOM      5  C   UNL     1       4.284  -1.618   6.287  0.00  0.00    +0.021 C 
ATOM      6  C   UNL     1       3.835  -2.941   6.961  0.00  0.00    +0.030 C 
ATOM      7  C   UNL     1       2.411  -3.145   6.402  0.00  0.00    +0.123 C 
ENDROOT
BRANCH   1  10
ATOM      8  C   UNL     1       0.731  -0.503   1.223  0.00  0.00    +0.060 A 
ATOM      9  C   UNL     1       0.223  -1.305   2.196  0.00  0.00    +0.078 A 
ATOM     10  C   UNL     1       1.282  -1.495   3.120  0.00  0.00    +0.168 A 
ATOM     11  N   UNL     1       2.321  -0.823   2.662  0.00  0.00    -0.167 NA
ATOM     12  N   UNL     1       2.022  -0.242   1.556  0.00  0.00    -0.279 N 
ATOM     13  H   UNL     1       2.630   0.305   1.035  0.00  0.00    +0.189 HD
BRANCH   8  15
ATOM     14  C   UNL     1      -0.019   1.526   0.010  0.00  0.00    +0.014 C 
ATOM     15  C   UNL     1       0.002  -0.004   0.002  0.00  0.00    +0.033 C 
ATOM     16  C   UNL     1       0.718  -0.497  -1.257  0.00  0.00    +0.014 C 
ENDBRANCH   8  15
BRANCH   9  17
ATOM     17  N   UNL     1      -1.075  -1.832   2.271  0.00  0.00    -0.355 N 
ATOM     18  H   UNL     1      -1.721  -1.632   1.575  0.00  0.00    +0.142 HD
ATOM     19  H   UNL     1      -1.327  -2.396   3.019  0.00  0.00    +0.142 HD
ENDBRANCH   9  17
ENDBRANCH   1  10
BRANCH   7  20
ATOM     20  C   UNL     1       2.173  -4.609   6.134  0.00  0.00    +0.037 A 
ATOM     21  C   UNL     1       2.535  -5.278   5.021  0.00  0.00    +0.024 A 
ATOM     22  C   UNL     1       2.126  -6.617   5.181  0.00  0.00    +0.019 A 
ATOM     23  C   UNL     1       1.529  -6.714   6.387  0.00  0.00    +0.083 A 
ATOM     24  N   UNL     1       1.560  -5.487   6.979  0.00  0.00    -0.363 N 
ATOM     25  H   UNL     1       1.203  -5.272   7.855  0.00  0.00    +0.165 HD
ENDBRANCH   7  20
TORSDOF 4
