REMARK  Name = ZINC66907955
REMARK  6 active torsions:
REMARK  status: ('A' for Active; 'I' for Inactive)
REMARK    1  A    between atoms: C_1  and  C_2
REMARK    2  A    between atoms: C_2  and  C_4
REMARK    3  A    between atoms: C_2  and  N_11
REMARK    4  A    between atoms: N_14  and  N_15
REMARK    5  A    between atoms: C_16  and  C_18
REMARK    6  A    between atoms: C_18  and  C_19
REMARK                            x       y       z     vdW  Elec       q    Type
REMARK                         _______ _______ _______ _____ _____    ______ ____
ROOT
ATOM      1  N   UNL     1       0.711  -0.489   1.189  0.00  0.00    -0.292 N 
ATOM      2  C   UNL     1       2.054  -0.600   1.174  0.00  0.00    +0.316 C 
ATOM      3  O   UNL     1       2.677  -0.297   0.175  0.00  0.00    -0.251 OA
ATOM      4  N   UNL     1       2.706  -1.046   2.266  0.00  0.00    -0.218 N 
ATOM      5  H   UNL     1       0.213  -0.731   1.986  0.00  0.00    +0.151 HD
ATOM      6  H   UNL     1       3.672  -1.126   2.255  0.00  0.00    +0.174 HD
ENDROOT
BRANCH   4   7
ATOM      7  N   UNL     1       1.987  -1.396   3.416  0.00  0.00    -0.233 N 
ATOM      8  C   UNL     1       2.639  -1.842   4.508  0.00  0.00    +0.234 C 
ATOM      9  O   UNL     1       3.848  -1.941   4.495  0.00  0.00    -0.274 OA
ATOM     10  H   UNL     1       1.020  -1.316   3.427  0.00  0.00    +0.173 HD
BRANCH   8  11
ATOM     11  C   UNL     1       1.866  -2.218   5.746  0.00  0.00    +0.135 C 
BRANCH  11  12
ATOM     12  C   UNL     1       2.822  -2.682   6.814  0.00  0.00    -0.003 A 
ATOM     13  C   UNL     1       3.089  -4.030   6.965  0.00  0.00    +0.007 A 
ATOM     14  C   UNL     1       3.966  -4.456   7.944  0.00  0.00    +0.000 A 
ATOM     15  C   UNL     1       4.578  -3.535   8.774  0.00  0.00    +0.003 A 
ATOM     16  C   UNL     1       4.314  -2.187   8.625  0.00  0.00    +0.038 A 
ATOM     17  C   UNL     1       3.439  -1.758   7.641  0.00  0.00    +0.127 A 
ATOM     18  F   UNL     1       3.183  -0.440   7.490  0.00  0.00    -0.205 F 
ENDBRANCH  11  12
ENDBRANCH   8  11
ENDBRANCH   4   7
BRANCH   1  20
ATOM     19  C   UNL     1      -0.019   1.526   0.010  0.00  0.00    +0.033 C 
ATOM     20  C   UNL     1       0.002  -0.004   0.002  0.00  0.00    +0.102 C 
BRANCH  20  21
ATOM     21  C   UNL     1      -1.412  -0.526   0.013  0.00  0.00    -0.027 A 
ATOM     22  C   UNL     1      -2.123  -0.571   1.198  0.00  0.00    +0.006 A 
ATOM     23  C   UNL     1      -3.420  -1.049   1.208  0.00  0.00    +0.015 A 
ATOM     24  C   UNL     1      -4.006  -1.482   0.032  0.00  0.00    +0.018 A 
ATOM     25  C   UNL     1      -3.294  -1.437  -1.153  0.00  0.00    +0.015 A 
ATOM     26  C   UNL     1      -1.999  -0.954  -1.163  0.00  0.00    +0.006 A 
ATOM     27 BR   UNL     1      -5.780  -2.136   0.046  0.00  0.00    -0.050 Br
ENDBRANCH  20  21
ENDBRANCH   1  20
TORSDOF 5
