REMARK  Name = ZINC02399267
REMARK  7 active torsions:
REMARK  status: ('A' for Active; 'I' for Inactive)
REMARK    1  A    between atoms: C_1  and  O_2
REMARK    2  A    between atoms: O_2  and  C_3
REMARK    3  A    between atoms: C_6  and  N_9
REMARK    4  A    between atoms: C_12  and  C_16
REMARK    5  A    between atoms: C_12  and  N_20
REMARK    6  A    between atoms: C_14  and  O_15
REMARK    7  A    between atoms: C_21  and  C_23
REMARK                            x       y       z     vdW  Elec       q    Type
REMARK                         _______ _______ _______ _____ _____    ______ ____
ROOT
ATOM      1  N   UNL     1       2.460  -2.458  -4.303  0.00  0.00    -0.191 N 
ATOM      2  C   UNL     1       2.643  -3.790  -4.426  0.00  0.00    +0.283 C 
ATOM      3  O   UNL     1       2.313  -4.656  -3.643  0.00  0.00    -0.270 OA
ATOM      4  C   UNL     1       3.349  -3.969  -5.755  0.00  0.00    +0.304 C 
ATOM      5  N   UNL     1       3.493  -2.596  -6.267  0.00  0.00    -0.192 NA
ATOM      6  C   UNL     1       2.963  -1.798  -5.396  0.00  0.00    +0.292 C 
ENDROOT
BRANCH   1  10
ATOM      7  C   UNL     1       0.606  -0.607  -1.056  0.00  0.00    +0.120 A 
ATOM      8  C   UNL     1       1.192   0.162  -2.051  0.00  0.00    +0.047 A 
ATOM      9  C   UNL     1       1.806  -0.451  -3.126  0.00  0.00    +0.027 A 
ATOM     10  C   UNL     1       1.837  -1.836  -3.211  0.00  0.00    +0.046 A 
ATOM     11  C   UNL     1       1.251  -2.605  -2.214  0.00  0.00    +0.027 A 
ATOM     12  C   UNL     1       0.642  -1.992  -1.137  0.00  0.00    +0.047 A 
BRANCH   7  14
ATOM     13  C   UNL     1       0.003   1.425   0.021  0.00  0.00    +0.277 C 
ATOM     14  O   UNL     1       0.002  -0.004   0.002  0.00  0.00    -0.495 OA
ENDBRANCH   7  14
ENDBRANCH   1  10
BRANCH   4  15
ATOM     15  C   UNL     1       2.497  -4.810  -6.707  0.00  0.00    +0.440 C 
ATOM     16  F   UNL     1       1.273  -4.170  -6.927  0.00  0.00    -0.166 F 
ATOM     17  F   UNL     1       3.169  -4.961  -7.925  0.00  0.00    -0.166 F 
ATOM     18  F   UNL     1       2.270  -6.069  -6.141  0.00  0.00    -0.166 F 
ENDBRANCH   4  15
BRANCH   4  19
ATOM     19  N   UNL     1       4.664  -4.585  -5.560  0.00  0.00    -0.273 N 
ATOM     20  C   UNL     1       4.760  -5.803  -4.992  0.00  0.00    +0.246 C 
ATOM     21  O   UNL     1       3.756  -6.391  -4.641  0.00  0.00    -0.270 OA
ATOM     22  H   UNL     1       5.466  -4.115  -5.840  0.00  0.00    +0.152 HD
BRANCH  20  23
ATOM     23  C   UNL     1       6.086  -6.423  -4.795  0.00  0.00    +0.037 A 
ATOM     24  C   UNL     1       7.242  -5.748  -5.191  0.00  0.00    +0.016 A 
ATOM     25  C   UNL     1       8.477  -6.332  -5.005  0.00  0.00    +0.039 A 
ATOM     26  C   UNL     1       8.572  -7.588  -4.426  0.00  0.00    +0.123 A 
ATOM     27  C   UNL     1       7.428  -8.263  -4.030  0.00  0.00    +0.039 A 
ATOM     28  C   UNL     1       6.189  -7.686  -4.206  0.00  0.00    +0.016 A 
ATOM     29  F   UNL     1       9.785  -8.156  -4.247  0.00  0.00    -0.205 F 
ENDBRANCH  20  23
ENDBRANCH   4  19
BRANCH   6  30
ATOM     30  O   UNL     1       2.914  -0.456  -5.546  0.00  0.00    -0.481 OA
ATOM     31  H   UNL     1       3.309  -0.138  -6.369  0.00  0.00    +0.295 HD
ENDBRANCH   6  30
TORSDOF 6
