REMARK  Name = ZINC43743110
REMARK  9 active torsions:
REMARK  status: ('A' for Active; 'I' for Inactive)
REMARK    1  A    between atoms: C_1  and  C_2
REMARK    2  A    between atoms: C_8  and  C_26
REMARK    3  A    between atoms: C_12  and  C_14
REMARK    4  A    between atoms: C_12  and  C_15
REMARK    5  A    between atoms: C_15  and  O_16
REMARK    6  A    between atoms: C_19  and  O_25
REMARK    7  A    between atoms: C_21  and  C_22
REMARK    8  A    between atoms: C_21  and  C_23
REMARK    9  A    between atoms: C_23  and  O_24
REMARK                            x       y       z     vdW  Elec       q    Type
REMARK                         _______ _______ _______ _____ _____    ______ ____
ROOT
ATOM      1  C   UNL     1      -0.115   1.476  -0.234  0.00  0.00    +0.010 C 
ATOM      2  C   UNL     1      -0.090  -0.050  -0.193  0.00  0.00    +0.018 C 
ATOM      3  C   UNL     1      -1.504  -0.610  -0.150  0.00  0.00    +0.006 C 
ATOM      4  C   UNL     1      -2.095  -0.522   1.260  0.00  0.00    +0.005 C 
ATOM      5  C   UNL     1      -1.185  -1.317   2.197  0.00  0.00    +0.008 C 
ATOM      6  C   UNL     1       0.172  -0.640   2.285  0.00  0.00    +0.001 C 
ATOM      7  C   UNL     1       0.816  -0.583   0.901  0.00  0.00    +0.079 C 
ATOM      8  C   UNL     1       1.313  -1.990   0.487  0.00  0.00    +0.039 C 
ATOM      9  C   UNL     1       2.433  -1.621  -0.523  0.00  0.00    +0.040 C 
ATOM     10  C   UNL     1       3.005  -0.322   0.081  0.00  0.00    +0.090 C 
ATOM     11  O   UNL     1       2.016   0.212   0.972  0.00  0.00    -0.364 OA
ATOM     12  C   UNL     1       3.320   0.678  -1.034  0.00  0.00    +0.044 C 
ATOM     13  C   UNL     1       1.071  -1.440   3.239  0.00  0.00    +0.012 C 
ATOM     14  C   UNL     1       0.419  -1.494   4.621  0.00  0.00    +0.032 C 
ATOM     15  C   UNL     1      -0.903  -2.246   4.538  0.00  0.00    +0.123 C 
ATOM     16  C   UNL     1      -1.857  -1.631   3.516  0.00  0.00    +0.020 C 
ATOM     17  C   UNL     1      -2.956  -2.691   3.251  0.00  0.00    +0.016 C 
ATOM     18  C   UNL     1       0.075   0.787   2.833  0.00  0.00    +0.014 C 
ENDROOT
BRANCH  15  19
ATOM     19  O   UNL     1      -0.656  -3.613   4.191  0.00  0.00    -0.391 OA
ATOM     20  H   UNL     1      -0.099  -4.085   4.825  0.00  0.00    +0.210 HD
ENDBRANCH  15  19
BRANCH  10  21
ATOM     21  C   UNL     1       4.287  -0.639   0.858  0.00  0.00    +0.190 C 
BRANCH  21  22
ATOM     22  O   UNL     1       4.816   0.565   1.418  0.00  0.00    -0.392 OA
ATOM     23  H   UNL     1       5.629   0.438   1.925  0.00  0.00    +0.210 HD
ENDBRANCH  21  22
ENDBRANCH  10  21
BRANCH  16  24
ATOM     24  C   UNL     1      -2.553  -0.412   4.125  0.00  0.00    +0.165 C 
BRANCH  24  25
ATOM     25  O   UNL     1      -3.144  -0.775   5.374  0.00  0.00    -0.394 OA
ATOM     26  H   UNL     1      -3.603  -0.049   5.818  0.00  0.00    +0.209 HD
ENDBRANCH  24  25
ENDBRANCH  16  24
TORSDOF 5
