REMARK  Name = ZINC35300361
REMARK  7 active torsions:
REMARK  status: ('A' for Active; 'I' for Inactive)
REMARK    1  A    between atoms: C_4  and  C_7
REMARK    2  A    between atoms: C_7  and  O_8
REMARK    3  A    between atoms: O_8  and  C_9
REMARK    4  A    between atoms: C_14  and  C_15
REMARK    5  A    between atoms: C_23  and  C_31
REMARK    6  A    between atoms: C_25  and  C_29
REMARK    7  A    between atoms: C_26  and  N_28
REMARK                            x       y       z     vdW  Elec       q    Type
REMARK                         _______ _______ _______ _____ _____    ______ ____
ROOT
ATOM      1  C   UNL     1       4.672  -2.360   1.079  0.00  0.00    +0.404 C 
ATOM      2  O   UNL     1       5.184  -2.888   0.112  0.00  0.00    -0.226 OA
ATOM      3  N   UNL     1       5.318  -2.354   2.263  0.00  0.00    -0.259 N 
ATOM      4  C   UNL     1       4.718  -1.726   3.456  0.00  0.00    +0.150 C 
ATOM      5  C   UNL     1       4.659  -2.805   4.515  0.00  0.00    +0.013 C 
ATOM      6  C   UNL     1       3.606  -2.892   5.355  0.00  0.00    +0.023 C 
ATOM      7  C   UNL     1       5.779  -3.760   4.608  0.00  0.00    +0.136 C 
ATOM      8  C   UNL     1       6.690  -3.846   3.637  0.00  0.00    +0.003 C 
ATOM      9  C   UNL     1       6.636  -2.975   2.411  0.00  0.00    +0.147 C 
ATOM     10  C   UNL     1       7.823  -4.842   3.739  0.00  0.00    +0.102 C 
ATOM     11  C   UNL     1       8.004  -5.286   5.162  0.00  0.00    +0.098 C 
ATOM     12  C   UNL     1       7.010  -5.113   6.070  0.00  0.00    +0.199 C 
ATOM     13  O   UNL     1       5.847  -4.545   5.714  0.00  0.00    -0.441 OA
ENDROOT
BRANCH   6  14
ATOM     14  C   UNL     1       2.598  -1.830   5.378  0.00  0.00    +0.013 A 
ATOM     15  C   UNL     1       1.390  -1.787   6.055  0.00  0.00    +0.015 A 
ATOM     16  C   UNL     1       0.605  -0.666   5.919  0.00  0.00    +0.008 A 
ATOM     17  C   UNL     1       1.034   0.355   5.131  0.00  0.00    +0.046 A 
ATOM     18  S   UNL     1       2.609  -0.250   4.547  0.00  0.00    -0.097 S 
ENDBRANCH   6  14
BRANCH  10  19
ATOM     19  C   UNL     1       7.510  -6.042   2.883  0.00  0.00    +0.002 A 
ATOM     20  C   UNL     1       8.206  -6.548   1.835  0.00  0.00    +0.012 A 
ATOM     21  C   UNL     1       7.724  -7.672   1.191  0.00  0.00    +0.008 A 
ATOM     22  C   UNL     1       6.571  -8.235   1.626  0.00  0.00    +0.045 A 
ATOM     23  S   UNL     1       6.131  -7.171   2.990  0.00  0.00    -0.101 S 
ENDBRANCH  10  19
BRANCH  12  24
ATOM     24  N   UNL     1       7.197  -5.524   7.366  0.00  0.00    -0.328 N 
ATOM     25  H   UNL     1       8.035  -5.935   7.629  0.00  0.00    +0.145 HD
ATOM     26  H   UNL     1       6.490  -5.403   8.020  0.00  0.00    +0.145 HD
ENDBRANCH  12  24
BRANCH  11  27
ATOM     27  C   UNL     1       9.236  -5.896   5.565  0.00  0.00    +0.101 C 
ATOM     28  N   UNL     1      10.212  -6.380   5.884  0.00  0.00    -0.191 NA
ENDBRANCH  11  27
BRANCH   1  29
ATOM     29  O   UNL     1       3.462  -1.782   0.970  0.00  0.00    -0.445 OA
BRANCH  29  30
ATOM     30  C   UNL     1       2.835  -1.826  -0.314  0.00  0.00    +0.269 C 
BRANCH  30  34
ATOM     31  C   UNL     1      -0.955   0.135  -0.119  0.00  0.00    +0.000 A 
ATOM     32  C   UNL     1       0.180   0.855  -0.440  0.00  0.00    +0.000 A 
ATOM     33  C   UNL     1       1.407   0.221  -0.503  0.00  0.00    +0.007 A 
ATOM     34  C   UNL     1       1.498  -1.134  -0.244  0.00  0.00    -0.010 A 
ATOM     35  C   UNL     1       0.363  -1.855   0.077  0.00  0.00    +0.007 A 
ATOM     36  C   UNL     1      -0.864  -1.220   0.139  0.00  0.00    +0.000 A 
ENDBRANCH  30  34
ENDBRANCH  29  30
ENDBRANCH   1  29
TORSDOF 7
