REMARK  Name = ZINC64921778
REMARK  6 active torsions:
REMARK  status: ('A' for Active; 'I' for Inactive)
REMARK    1  A    between atoms: C_1  and  C_2
REMARK    2  A    between atoms: C_2  and  C_3
REMARK    3  A    between atoms: C_10  and  S_15
REMARK    4  A    between atoms: S_15  and  N_18
REMARK    5  A    between atoms: C_21  and  C_24
REMARK    6  A    between atoms: N_26  and  C_27
REMARK                            x       y       z     vdW  Elec       q    Type
REMARK                         _______ _______ _______ _____ _____    ______ ____
ROOT
ATOM      1  N   UNL     1       1.054  -3.046   6.277  0.00  0.00    -0.177 NA
ATOM      2  C   UNL     1       1.991  -3.995   5.661  0.00  0.00    +0.110 C 
ATOM      3  C   UNL     1       2.910  -4.558   6.750  0.00  0.00    +0.030 C 
ATOM      4  C   UNL     1       3.584  -3.401   7.491  0.00  0.00    +0.077 C 
ATOM      5  C   UNL     1       2.517  -2.532   8.161  0.00  0.00    +0.030 C 
ATOM      6  C   UNL     1       1.594  -1.943   7.084  0.00  0.00    +0.110 C 
ENDROOT
BRANCH   4   7
ATOM      7  C   UNL     1       4.515  -3.951   8.540  0.00  0.00    +0.216 C 
ATOM      8  O   UNL     1       4.628  -5.151   8.681  0.00  0.00    -0.276 OA
ATOM      9  N   UNL     1       5.221  -3.111   9.322  0.00  0.00    -0.312 N 
ATOM     10  H   UNL     1       5.131  -2.152   9.209  0.00  0.00    +0.149 HD
BRANCH   9  11
ATOM     11  C   UNL     1       6.126  -3.646  10.342  0.00  0.00    +0.073 C 
ATOM     12  C   UNL     1       5.338  -3.938  11.621  0.00  0.00    +0.022 C 
ATOM     13  C   UNL     1       6.165  -4.847  12.533  0.00  0.00    +0.002 C 
ATOM     14  C   UNL     1       6.798  -5.964  11.702  0.00  0.00    +0.000 C 
ATOM     15  C   UNL     1       8.318  -5.784  11.679  0.00  0.00    +0.000 C 
ATOM     16  C   UNL     1       8.681  -4.647  10.722  0.00  0.00    +0.000 C 
ATOM     17  C   UNL     1       8.370  -3.304  11.386  0.00  0.00    +0.002 C 
ATOM     18  C   UNL     1       7.221  -2.620  10.641  0.00  0.00    +0.022 C 
ENDBRANCH   9  11
ENDBRANCH   4   7
BRANCH   1  19
ATOM     19  S   UNL     1      -0.580  -3.212   6.061  0.00  0.00    +0.061 S 
ATOM     20  O   UNL     1      -1.203  -2.556   7.157  0.00  0.00    -0.153 OA
ATOM     21  O   UNL     1      -0.812  -4.581   5.760  0.00  0.00    -0.153 OA
BRANCH  19  28
ATOM     22  C   UNL     1      -1.433  -0.534   0.013  0.00  0.00    +0.259 C 
ATOM     23  C   UNL     1      -1.415  -2.035  -0.121  0.00  0.00    +0.258 C 
ATOM     24  O   UNL     1      -1.502  -2.550  -1.216  0.00  0.00    -0.271 OA
ATOM     25  N   UNL     1      -1.301  -2.805   0.982  0.00  0.00    -0.279 N 
ATOM     26  C   UNL     1      -1.329  -2.197   2.245  0.00  0.00    +0.078 A 
ATOM     27  C   UNL     1      -0.990  -2.916   3.380  0.00  0.00    +0.055 A 
ATOM     28  C   UNL     1      -1.010  -2.299   4.617  0.00  0.00    +0.107 A 
ATOM     29  C   UNL     1      -1.366  -0.967   4.724  0.00  0.00    +0.032 A 
ATOM     30  C   UNL     1      -1.711  -0.246   3.595  0.00  0.00    +0.049 A 
ATOM     31  C   UNL     1      -1.699  -0.859   2.354  0.00  0.00    +0.143 A 
ATOM     32  O   UNL     1      -2.066  -0.169   1.242  0.00  0.00    -0.478 OA
ATOM     33  H   UNL     1      -1.201  -3.766   0.902  0.00  0.00    +0.155 HD
BRANCH  22  35
ATOM     34  C   UNL     1      -0.019   1.526   0.010  0.00  0.00    +0.008 C 
ATOM     35  C   UNL     1       0.002  -0.004   0.002  0.00  0.00    +0.051 C 
ENDBRANCH  22  35
ENDBRANCH  19  28
ENDBRANCH   1  19
TORSDOF 5
