REMARK  Name = ZINC39869557
REMARK  9 active torsions:
REMARK  status: ('A' for Active; 'I' for Inactive)
REMARK    1  A    between atoms: C_1  and  C_2
REMARK    2  A    between atoms: C_5  and  N_8
REMARK    3  A    between atoms: C_17  and  S_18
REMARK    4  A    between atoms: S_18  and  C_19
REMARK    5  A    between atoms: C_19  and  C_20
REMARK    6  A    between atoms: N_22  and  C_23
REMARK    7  A    between atoms: N_31  and  C_34
REMARK    8  A    between atoms: C_34  and  C_35
REMARK    9  A    between atoms: C_34  and  C_36
REMARK                            x       y       z     vdW  Elec       q    Type
REMARK                         _______ _______ _______ _____ _____    ______ ____
ROOT
ATOM      1  N   UNL     1       0.974  -4.386  -0.136  0.00  0.00    -0.255 N 
ATOM      2  C   UNL     1       1.047  -5.066   1.022  0.00  0.00    +0.268 A 
ATOM      3  O   UNL     1       1.380  -4.502   2.050  0.00  0.00    -0.267 OA
ATOM      4  C   UNL     1       0.728  -6.461   1.032  0.00  0.00    +0.076 A 
ATOM      5  C   UNL     1       0.740  -7.388   2.162  0.00  0.00    -0.020 A 
ATOM      6  C   UNL     1       0.396  -8.669   1.910  0.00  0.00    +0.010 A 
ATOM      7  S   UNL     1       0.038  -8.716   0.176  0.00  0.00    -0.072 S 
ATOM      8  C   UNL     1       0.355  -7.012  -0.207  0.00  0.00    +0.117 A 
ATOM      9  N   UNL     1       0.302  -6.284  -1.317  0.00  0.00    -0.215 NA
ATOM     10  C   UNL     1       0.596  -5.000  -1.297  0.00  0.00    +0.178 A 
ATOM     11  C   UNL     1       0.340  -9.790   2.901  0.00  0.00    +0.127 C 
ATOM     12  N   UNL     1       1.057  -9.367   4.118  0.00  0.00    -0.295 NA
ATOM     13  C   UNL     1       0.605  -8.036   4.549  0.00  0.00    +0.089 C 
ATOM     14  C   UNL     1       1.118  -6.968   3.580  0.00  0.00    +0.052 C 
ENDROOT
BRANCH   1  19
ATOM     15  C   UNL     1       2.235   1.147  -0.199  0.00  0.00    +0.044 C 
ATOM     16  C   UNL     1       1.900  -0.322  -0.182  0.00  0.00    -0.050 A 
ATOM     17  C   UNL     1       2.914  -1.262  -0.238  0.00  0.00    +0.005 A 
ATOM     18  C   UNL     1       2.610  -2.609  -0.223  0.00  0.00    +0.026 A 
ATOM     19  C   UNL     1       1.285  -3.019  -0.151  0.00  0.00    +0.052 A 
ATOM     20  C   UNL     1       0.270  -2.074  -0.095  0.00  0.00    +0.026 A 
ATOM     21  C   UNL     1       0.581  -0.728  -0.105  0.00  0.00    +0.005 A 
ENDBRANCH   1  19
BRANCH  12  22
ATOM     22  C   UNL     1       0.893 -10.352   5.196  0.00  0.00    +0.051 C 
ATOM     23  C   UNL     1       1.362 -11.724   4.707  0.00  0.00    +0.024 C 
ATOM     24  C   UNL     1       1.729  -9.928   6.405  0.00  0.00    +0.024 C 
ENDBRANCH  12  22
BRANCH  10  25
ATOM     25  S   UNL     1       0.508  -4.064  -2.787  0.00  0.00    -0.078 S 
BRANCH  25  26
ATOM     26  C   UNL     1      -0.024  -5.272  -4.032  0.00  0.00    +0.173 C 
BRANCH  26  27
ATOM     27  C   UNL     1      -0.140  -4.593  -5.373  0.00  0.00    +0.228 C 
ATOM     28  O   UNL     1       0.110  -3.411  -5.478  0.00  0.00    -0.275 OA
ATOM     29  N   UNL     1      -0.523  -5.299  -6.455  0.00  0.00    -0.283 N 
ATOM     30  H   UNL     1      -0.785  -6.229  -6.360  0.00  0.00    +0.155 HD
BRANCH  29  31
ATOM     31  C   UNL     1      -0.543  -4.692  -7.717  0.00  0.00    +0.069 A 
ATOM     32  C   UNL     1       0.205  -3.546  -7.949  0.00  0.00    +0.026 A 
ATOM     33  C   UNL     1       0.184  -2.949  -9.194  0.00  0.00    +0.002 A 
ATOM     34  C   UNL     1      -0.581  -3.491 -10.211  0.00  0.00    +0.003 A 
ATOM     35  C   UNL     1      -1.327  -4.633  -9.985  0.00  0.00    +0.040 A 
ATOM     36  C   UNL     1      -1.307  -5.239  -8.742  0.00  0.00    +0.144 A 
ATOM     37  F   UNL     1      -2.032  -6.358  -8.522  0.00  0.00    -0.204 F 
ENDBRANCH  29  31
ENDBRANCH  26  27
ENDBRANCH  25  26
ENDBRANCH  10  25
TORSDOF 6
