REMARK  Name = ZINC14544791
REMARK  6 active torsions:
REMARK  status: ('A' for Active; 'I' for Inactive)
REMARK    1  A    between atoms: C_1  and  C_2
REMARK    2  A    between atoms: C_5  and  N_9
REMARK    3  A    between atoms: C_6  and  C_8
REMARK    4  A    between atoms: N_9  and  S_10
REMARK    5  A    between atoms: S_10  and  C_13
REMARK    6  A    between atoms: C_26  and  C_29
REMARK                            x       y       z     vdW  Elec       q    Type
REMARK                         _______ _______ _______ _____ _____    ______ ____
ROOT
ATOM      1  C   UNL     1       1.624  -0.512   4.191  0.00  0.00    +0.109 A 
ATOM      2  C   UNL     1       0.497  -0.745   4.958  0.00  0.00    +0.030 A 
ATOM      3  C   UNL     1       0.094  -2.037   5.223  0.00  0.00    +0.025 A 
ATOM      4  C   UNL     1       0.820  -3.114   4.729  0.00  0.00    +0.031 A 
ATOM      5  C   UNL     1       1.968  -2.871   3.966  0.00  0.00    -0.018 A 
ATOM      6  C   UNL     1       2.358  -1.576   3.701  0.00  0.00    +0.034 A 
ATOM      7  C   UNL     1       2.728  -4.044   3.483  0.00  0.00    +0.049 C 
ATOM      8  C   UNL     1       3.549  -3.992   2.246  0.00  0.00    -0.023 C 
ATOM      9  C   UNL     1       3.550  -5.196   1.686  0.00  0.00    -0.030 C 
ATOM     10  C   UNL     1       2.684  -6.154   2.507  0.00  0.00    +0.033 C 
ATOM     11  C   UNL     1       1.706  -5.176   3.160  0.00  0.00    +0.029 C 
ATOM     12  C   UNL     1       1.128  -5.593   4.501  0.00  0.00    +0.107 C 
ATOM     13  N   UNL     1       0.381  -4.417   4.996  0.00  0.00    -0.336 N 
ATOM     14  H   UNL     1      -0.427  -4.550   5.515  0.00  0.00    +0.147 HD
ENDROOT
BRANCH  12  15
ATOM     15  C   UNL     1       0.197  -6.765   4.324  0.00  0.00    -0.002 A 
ATOM     16  C   UNL     1      -1.137  -6.711   4.184  0.00  0.00    +0.089 A 
ATOM     17  N   UNL     1      -1.643  -7.974   4.045  0.00  0.00    -0.360 N 
ATOM     18  H   UNL     1      -2.582  -8.188   3.926  0.00  0.00    +0.165 HD
ATOM     19  C   UNL     1      -0.622  -8.896   4.100  0.00  0.00    +0.047 A 
ATOM     20  C   UNL     1       0.575  -8.180   4.278  0.00  0.00    +0.005 A 
ATOM     21  C   UNL     1       1.789  -8.863   4.369  0.00  0.00    +0.010 A 
ATOM     22  C   UNL     1       1.808 -10.227   4.286  0.00  0.00    +0.001 A 
ATOM     23  C   UNL     1       0.629 -10.938   4.111  0.00  0.00    +0.002 A 
ATOM     24  C   UNL     1      -0.580 -10.284   4.018  0.00  0.00    +0.026 A 
ENDBRANCH  12  15
BRANCH   1  25
ATOM     25  S   UNL     1       2.128   1.140   3.843  0.00  0.00    +0.072 S 
ATOM     26  O   UNL     1       3.521   1.091   3.568  0.00  0.00    -0.150 OA
ATOM     27  O   UNL     1       1.582   1.956   4.871  0.00  0.00    -0.150 OA
BRANCH  25  28
ATOM     28  N   UNL     1       1.383   1.593   2.434  0.00  0.00    -0.216 N 
ATOM     29  H   UNL     1       1.916   1.843   1.663  0.00  0.00    +0.174 HD
BRANCH  28  34
ATOM     30  C   UNL     1      -4.278   1.679   2.120  0.00  0.00    +0.044 C 
ATOM     31  C   UNL     1      -2.773   1.656   2.204  0.00  0.00    -0.050 A 
ATOM     32  C   UNL     1      -2.142   2.010   3.382  0.00  0.00    +0.005 A 
ATOM     33  C   UNL     1      -0.764   1.990   3.462  0.00  0.00    +0.025 A 
ATOM     34  C   UNL     1      -0.011   1.614   2.357  0.00  0.00    +0.051 A 
ATOM     35  C   UNL     1      -0.648   1.259   1.175  0.00  0.00    -0.028 A 
ATOM     36  C   UNL     1      -2.027   1.286   1.100  0.00  0.00    +0.008 A 
ATOM     37  C   UNL     1       0.165   0.851  -0.027  0.00  0.00    +0.046 C 
ENDBRANCH  28  34
ENDBRANCH  25  28
ENDBRANCH   1  25
TORSDOF 4
