REMARK  Name = ZINC39934663
REMARK  3 active torsions:
REMARK  status: ('A' for Active; 'I' for Inactive)
REMARK    1  A    between atoms: C_7  and  C_10
REMARK    2  A    between atoms: N_14  and  N_18
REMARK    3  A    between atoms: N_21  and  C_22
REMARK                            x       y       z     vdW  Elec       q    Type
REMARK                         _______ _______ _______ _____ _____    ______ ____
ROOT
ATOM      1  C   UNL     1       0.875  -3.016  -0.074  0.00  0.00    +0.026 C 
ATOM      2  C   UNL     1       1.285  -4.332  -0.161  0.00  0.00    +0.078 C 
ATOM      3  C   UNL     1       2.659  -4.895  -0.217  0.00  0.00    +0.275 C 
ATOM      4  O   UNL     1       3.644  -4.183  -0.188  0.00  0.00    -0.267 OA
ATOM      5  N   UNL     1       2.751  -6.211  -0.299  0.00  0.00    -0.168 N 
ATOM      6  C   UNL     1       1.655  -6.996  -0.330  0.00  0.00    +0.138 C 
ATOM      7  S   UNL     1       1.574  -8.703  -0.434  0.00  0.00    -0.026 S 
ATOM      8  S   UNL     1       0.308  -5.828  -0.231  0.00  0.00    -0.060 S 
ENDROOT
BRANCH   1  15
ATOM      9  C   UNL     1       0.383   1.482  -0.332  0.00  0.00    +0.001 A 
ATOM     10  C   UNL     1       1.589   2.167  -0.506  0.00  0.00    +0.002 A 
ATOM     11  C   UNL     1       2.775   1.518  -0.586  0.00  0.00    +0.026 A 
ATOM     12  C   UNL     1       2.812   0.100  -0.492  0.00  0.00    +0.043 A 
ATOM     13  N   UNL     1       3.814  -0.750  -0.539  0.00  0.00    -0.380 N 
ATOM     14  C   UNL     1       3.300  -2.115  -0.391  0.00  0.00    +0.149 C 
ATOM     15  C   UNL     1       1.800  -1.984  -0.242  0.00  0.00    -0.018 C 
ATOM     16  C   UNL     1       1.536  -0.617  -0.308  0.00  0.00    +0.003 A 
ATOM     17  C   UNL     1       0.340   0.129  -0.234  0.00  0.00    +0.010 A 
ATOM     18  H   UNL     1       4.747  -0.511  -0.655  0.00  0.00    +0.160 HD
ENDBRANCH   1  15
BRANCH   5  19
ATOM     19  N   UNL     1       4.019  -6.805  -0.355  0.00  0.00    -0.210 N 
ATOM     20  C   UNL     1       4.517  -7.433   0.729  0.00  0.00    +0.321 C 
ATOM     21  O   UNL     1       5.617  -7.948   0.680  0.00  0.00    -0.251 OA
ATOM     22  N   UNL     1       3.796  -7.489   1.866  0.00  0.00    -0.268 N 
ATOM     23  H   UNL     1       4.538  -6.765  -1.173  0.00  0.00    +0.175 HD
ATOM     24  H   UNL     1       2.892  -7.138   1.885  0.00  0.00    +0.156 HD
BRANCH  22  25
ATOM     25  C   UNL     1       4.353  -8.053   3.020  0.00  0.00    +0.036 A 
ATOM     26  C   UNL     1       3.534  -8.670   3.957  0.00  0.00    +0.023 A 
ATOM     27  C   UNL     1       4.085  -9.227   5.094  0.00  0.00    +0.003 A 
ATOM     28  C   UNL     1       5.451  -9.169   5.302  0.00  0.00    +0.020 A 
ATOM     29  C   UNL     1       6.270  -8.555   4.371  0.00  0.00    +0.043 A 
ATOM     30  C   UNL     1       5.724  -8.002   3.228  0.00  0.00    +0.043 A 
ATOM     31 CL   UNL     1       7.984  -8.484   4.636  0.00  0.00    -0.083 Cl
ENDBRANCH  22  25
ENDBRANCH   5  19
TORSDOF 3
