REMARK  Name = ZINC36568497
REMARK  9 active torsions:
REMARK  status: ('A' for Active; 'I' for Inactive)
REMARK    1  A    between atoms: C_1  and  C_2
REMARK    2  A    between atoms: C_3  and  N_23
REMARK    3  A    between atoms: C_7  and  N_8
REMARK    4  A    between atoms: N_8  and  C_9
REMARK    5  A    between atoms: C_9  and  N_11
REMARK    6  A    between atoms: C_12  and  C_14
REMARK    7  A    between atoms: C_19  and  O_20
REMARK    8  A    between atoms: O_20  and  C_21
REMARK    9  A    between atoms: C_24  and  C_26
REMARK                            x       y       z     vdW  Elec       q    Type
REMARK                         _______ _______ _______ _____ _____    ______ ____
ROOT
ATOM      1  N   UNL     1      -0.009  -0.038   2.359  0.00  0.00    -0.296 N 
ATOM      2  H   UNL     1       0.304   0.879   2.384  0.00  0.00    +0.154 HD
ENDROOT
BRANCH   1   9
ATOM      3  C   UNL     1      -0.844   1.304  -0.005  0.00  0.00    +0.047 C 
ATOM      4  C   UNL     1      -0.392  -0.134  -0.021  0.00  0.00    -0.008 A 
ATOM      5  C   UNL     1      -0.370  -0.842  -1.214  0.00  0.00    +0.038 A 
ATOM      6  C   UNL     1       0.048  -2.167  -1.226  0.00  0.00    +0.024 A 
ATOM      7  C   UNL     1       0.440  -2.780  -0.051  0.00  0.00    +0.004 A 
ATOM      8  C   UNL     1       0.418  -2.078   1.138  0.00  0.00    +0.023 A 
ATOM      9  C   UNL     1       0.007  -0.750   1.156  0.00  0.00    +0.037 A 
BRANCH   5  10
ATOM     10  N   UNL     1      -0.767  -0.222  -2.404  0.00  0.00    -0.285 N 
ATOM     11  C   UNL     1      -1.256  -0.963  -3.419  0.00  0.00    +0.220 C 
ATOM     12  O   UNL     1      -1.276  -2.172  -3.332  0.00  0.00    -0.275 OA
ATOM     13  H   UNL     1      -0.691   0.740  -2.499  0.00  0.00    +0.155 HD
BRANCH  11  14
ATOM     14  C   UNL     1      -1.778  -0.287  -4.661  0.00  0.00    +0.075 C 
ATOM     15  C   UNL     1      -3.284  -0.356  -4.923  0.00  0.00    +0.013 C 
ATOM     16  C   UNL     1      -2.320  -1.183  -5.777  0.00  0.00    +0.013 C 
ENDBRANCH  11  14
ENDBRANCH   5  10
ENDBRANCH   1   9
BRANCH   1  17
ATOM     17  C   UNL     1      -0.459  -0.627   3.485  0.00  0.00    +0.141 C 
ATOM     18  S   UNL     1      -0.885  -2.285   3.472  0.00  0.00    -0.018 S 
BRANCH  17  19
ATOM     19  N   UNL     1      -0.575   0.089   4.621  0.00  0.00    -0.263 N 
ATOM     20  C   UNL     1      -1.025  -0.500   5.746  0.00  0.00    +0.253 C 
ATOM     21  O   UNL     1      -1.327  -1.677   5.737  0.00  0.00    -0.270 OA
ATOM     22  H   UNL     1      -0.333   1.029   4.628  0.00  0.00    +0.157 HD
BRANCH  20  23
ATOM     23  C   UNL     1      -1.151   0.284   6.989  0.00  0.00    +0.080 A 
ATOM     24  C   UNL     1      -0.810   1.639   7.003  0.00  0.00    +0.032 A 
ATOM     25  C   UNL     1      -0.930   2.366   8.168  0.00  0.00    +0.019 A 
ATOM     26  C   UNL     1      -1.388   1.758   9.327  0.00  0.00    +0.019 A 
ATOM     27  C   UNL     1      -1.728   0.420   9.326  0.00  0.00    +0.047 A 
ATOM     28  C   UNL     1      -1.619  -0.325   8.162  0.00  0.00    +0.132 A 
ATOM     29 BR   UNL     1      -0.468   4.200   8.185  0.00  0.00    -0.050 Br
BRANCH  28  30
ATOM     30  O   UNL     1      -1.959  -1.638   8.159  0.00  0.00    -0.494 OA
ATOM     31  C   UNL     1      -2.428  -2.189   9.391  0.00  0.00    +0.277 C 
ENDBRANCH  28  30
ENDBRANCH  20  23
ENDBRANCH  17  19
ENDBRANCH   1  17
TORSDOF 7
