REMARK  Name = ZINC02143718
REMARK  10 active torsions:
REMARK  status: ('A' for Active; 'I' for Inactive)
REMARK    1  A    between atoms: C_1  and  C_2
REMARK    2  A    between atoms: C_8  and  C_10
REMARK    3  A    between atoms: C_10  and  S_11
REMARK    4  A    between atoms: S_11  and  C_12
REMARK    5  A    between atoms: C_14  and  C_18
REMARK    6  A    between atoms: C_18  and  C_20
REMARK    7  A    between atoms: C_18  and  N_23
REMARK    8  A    between atoms: C_20  and  C_21
REMARK    9  A    between atoms: C_20  and  C_22
REMARK   10  A    between atoms: C_24  and  C_26
REMARK                            x       y       z     vdW  Elec       q    Type
REMARK                         _______ _______ _______ _____ _____    ______ ____
ROOT
ATOM      1  C   UNL     1      -3.868  -4.486   1.265  0.00  0.00    +0.185 A 
ATOM      2  N   UNL     1      -4.411  -3.413   0.680  0.00  0.00    -0.204 NA
ATOM      3  C   UNL     1      -3.525  -2.453   0.608  0.00  0.00    +0.172 A 
ATOM      4  N   UNL     1      -2.378  -2.897   1.148  0.00  0.00    -0.155 NA
ATOM      5  H   UNL     1      -1.822  -4.792   2.059  0.00  0.00    +0.191 HD
ATOM      6  N   UNL     1      -2.622  -4.214   1.573  0.00  0.00    -0.253 N 
ENDROOT
BRANCH   1   7
ATOM      7  S   UNL     1      -4.691  -6.013   1.573  0.00  0.00    -0.077 S 
BRANCH   7   8
ATOM      8  C   UNL     1      -3.429  -7.037   2.377  0.00  0.00    +0.173 C 
BRANCH   8  16
ATOM      9  C   UNL     1      -4.549 -14.455   4.819  0.00  0.00    +0.053 C 
ATOM     10  C   UNL     1      -4.427 -13.038   4.323  0.00  0.00    +0.008 A 
ATOM     11  C   UNL     1      -5.350 -12.250   3.720  0.00  0.00    +0.124 A 
ATOM     12  N   UNL     1      -5.003 -11.025   3.377  0.00  0.00    -0.233 NA
ATOM     13  C   UNL     1      -3.785 -10.572   3.600  0.00  0.00    +0.165 A 
ATOM     14  S   UNL     1      -3.024 -11.932   4.366  0.00  0.00    -0.057 S 
ATOM     15  N   UNL     1      -3.249  -9.324   3.303  0.00  0.00    -0.264 N 
ATOM     16  C   UNL     1      -4.010  -8.390   2.699  0.00  0.00    +0.229 C 
ATOM     17  O   UNL     1      -5.162  -8.639   2.413  0.00  0.00    -0.275 OA
ATOM     18  H   UNL     1      -2.204  -9.099   3.562  0.00  0.00    +0.157 HD
ENDBRANCH   8  16
ENDBRANCH   7   8
ENDBRANCH   1   7
BRANCH   3  19
ATOM     19  C   UNL     1      -3.752  -1.084   0.020  0.00  0.00    +0.146 C 
BRANCH  19  20
ATOM     20  N   UNL     1      -2.492  -0.336   0.022  0.00  0.00    -0.301 N 
ATOM     21  C   UNL     1      -2.508   1.011   0.034  0.00  0.00    +0.246 C 
ATOM     22  O   UNL     1      -3.567   1.607   0.043  0.00  0.00    -0.270 OA
ATOM     23  H   UNL     1      -1.533  -0.875   0.014  0.00  0.00    +0.150 HD
BRANCH  21  24
ATOM     24  C   UNL     1      -1.237   1.765   0.036  0.00  0.00    +0.055 A 
ATOM     25  C   UNL     1      -0.018   1.084   0.026  0.00  0.00    +0.016 A 
ATOM     26  C   UNL     1       1.164   1.793   0.023  0.00  0.00    +0.021 A 
ATOM     27  C   UNL     1       1.146   3.178   0.035  0.00  0.00    +0.042 A 
ATOM     28  C   UNL     1      -0.059   3.860   0.050  0.00  0.00    +0.040 A 
ATOM     29  C   UNL     1      -1.250   3.162   0.054  0.00  0.00    +0.054 A 
ATOM     30 CL   UNL     1      -2.760   4.018   0.073  0.00  0.00    -0.083 Cl
ATOM     31 CL   UNL     1       2.640   4.063   0.031  0.00  0.00    -0.083 Cl
ENDBRANCH  21  24
ENDBRANCH  19  20
BRANCH  19  32
ATOM     32  C   UNL     1      -4.260  -1.223  -1.416  0.00  0.00    +0.011 C 
ATOM     33  C   UNL     1      -5.575  -2.004  -1.419  0.00  0.00    +0.009 C 
ATOM     34  C   UNL     1      -4.490   0.167  -2.013  0.00  0.00    +0.009 C 
ENDBRANCH  19  32
ENDBRANCH   3  19
TORSDOF 7
