REMARK  Name = ZINC39667017
REMARK  8 active torsions:
REMARK  status: ('A' for Active; 'I' for Inactive)
REMARK    1  A    between atoms: C_1  and  C_2
REMARK    2  A    between atoms: C_5  and  C_9
REMARK    3  A    between atoms: C_6  and  C_8
REMARK    4  A    between atoms: C_9  and  C_10
REMARK    5  A    between atoms: C_10  and  N_11
REMARK    6  A    between atoms: C_12  and  C_14
REMARK    7  A    between atoms: C_25  and  C_27
REMARK    8  A    between atoms: C_29  and  C_34
REMARK                            x       y       z     vdW  Elec       q    Type
REMARK                         _______ _______ _______ _____ _____    ______ ____
ROOT
ATOM      1  C   UNL     1      -2.679  -8.123  -0.366  0.00  0.00    +0.100 C 
ATOM      2  C   UNL     1      -2.083  -8.896  -1.564  0.00  0.00    +0.121 C 
ATOM      3  N   UNL     1      -2.923 -10.111  -1.681  0.00  0.00    -0.296 N 
ATOM      4  C   UNL     1      -4.300  -9.636  -1.406  0.00  0.00    +0.115 C 
ATOM      5  C   UNL     1      -4.134  -8.611  -0.266  0.00  0.00    -0.004 C 
ATOM      6  C   UNL     1      -5.098  -7.444  -0.462  0.00  0.00    -0.010 C 
ATOM      7  C   UNL     1      -6.536  -7.943  -0.300  0.00  0.00    -0.082 C 
ATOM      8  N   UNL     1      -6.707  -8.525   1.037  0.00  0.00    +0.379 N 
ATOM      9  C   UNL     1      -5.844  -9.703   1.184  0.00  0.00    -0.082 C 
ATOM     10  C   UNL     1      -4.376  -9.279   1.084  0.00  0.00    -0.010 C 
ATOM     11  C   UNL     1      -2.525 -11.365  -1.972  0.00  0.00    +0.247 C 
ATOM     12  O   UNL     1      -1.340 -11.625  -2.046  0.00  0.00    -0.270 OA
ATOM     13  H   UNL     1      -6.459  -7.840   1.735  0.00  0.00    -0.086 HD
ATOM     14  H   UNL     1      -7.670  -8.797   1.163  0.00  0.00    -0.086 HD
ENDROOT
BRANCH  11  15
ATOM     15  C   UNL     1      -3.530 -12.426  -2.199  0.00  0.00    +0.040 A 
ATOM     16  C   UNL     1      -3.173 -13.769  -2.065  0.00  0.00    +0.025 A 
ATOM     17  C   UNL     1      -4.114 -14.755  -2.278  0.00  0.00    +0.058 A 
ATOM     18  C   UNL     1      -5.410 -14.416  -2.624  0.00  0.00    +0.050 A 
ATOM     19  C   UNL     1      -5.772 -13.085  -2.759  0.00  0.00    +0.125 A 
ATOM     20  C   UNL     1      -4.839 -12.088  -2.542  0.00  0.00    +0.051 A 
ATOM     21  F   UNL     1      -7.039 -12.761  -3.097  0.00  0.00    -0.205 F 
BRANCH  17  22
ATOM     22  C   UNL     1      -3.730 -16.205  -2.134  0.00  0.00    +0.418 C 
ATOM     23  F   UNL     1      -3.940 -16.614  -0.813  0.00  0.00    -0.166 F 
ATOM     24  F   UNL     1      -4.513 -16.982  -2.994  0.00  0.00    -0.166 F 
ATOM     25  F   UNL     1      -2.379 -16.364  -2.462  0.00  0.00    -0.166 F 
ENDBRANCH  17  22
ENDBRANCH  11  15
BRANCH   1  27
ATOM     26  N   UNL     1      -2.520  -5.777   0.402  0.00  0.00    -0.315 N 
ATOM     27  C   UNL     1      -2.640  -6.639  -0.627  0.00  0.00    +0.218 C 
ATOM     28  O   UNL     1      -2.717  -6.221  -1.762  0.00  0.00    -0.275 OA
ATOM     29  H   UNL     1      -2.458  -6.112   1.311  0.00  0.00    +0.149 HD
BRANCH  26  30
ATOM     30  C   UNL     1      -2.482  -4.335   0.149  0.00  0.00    +0.109 C 
BRANCH  30  31
ATOM     31  C   UNL     1      -2.341  -3.587   1.477  0.00  0.00    +0.054 C 
BRANCH  31  36
ATOM     32  C   UNL     1      -2.191   2.102   0.474  0.00  0.00    +0.044 C 
ATOM     33  C   UNL     1      -2.230   0.618   0.736  0.00  0.00    -0.050 A 
ATOM     34  C   UNL     1      -1.051  -0.093   0.861  0.00  0.00    +0.003 A 
ATOM     35  C   UNL     1      -1.087  -1.454   1.100  0.00  0.00    +0.004 A 
ATOM     36  C   UNL     1      -2.302  -2.104   1.216  0.00  0.00    -0.043 A 
ATOM     37  C   UNL     1      -3.480  -1.392   1.092  0.00  0.00    -0.047 A 
ATOM     38  C   UNL     1      -3.444  -0.031   0.857  0.00  0.00    +0.007 A 
ATOM     39  C   UNL     1      -4.804  -2.101   1.218  0.00  0.00    +0.044 C 
ENDBRANCH  31  36
ENDBRANCH  30  31
ENDBRANCH  26  30
ENDBRANCH   1  27
TORSDOF 6
