REMARK  Name = ZINC39609129
REMARK  8 active torsions:
REMARK  status: ('A' for Active; 'I' for Inactive)
REMARK    1  A    between atoms: C_1  and  C_2
REMARK    2  A    between atoms: C_5  and  C_8
REMARK    3  A    between atoms: C_8  and  C_9
REMARK    4  A    between atoms: C_13  and  C_22
REMARK    5  A    between atoms: N_24  and  C_25
REMARK    6  A    between atoms: C_30  and  O_32
REMARK    7  A    between atoms: O_32  and  C_33
REMARK    8  A    between atoms: C_33  and  C_34
REMARK                            x       y       z     vdW  Elec       q    Type
REMARK                         _______ _______ _______ _____ _____    ______ ____
ROOT
ATOM      1  C   UNL     1       1.193  -4.798   0.083  0.00  0.00    +0.220 C 
ATOM      2  O   UNL     1       2.036  -3.927   0.118  0.00  0.00    -0.275 OA
ATOM      3  N   UNL     1       1.564  -6.093   0.033  0.00  0.00    -0.300 N 
ATOM      4  C   UNL     1       0.688  -7.287  -0.021  0.00  0.00    +0.121 C 
ATOM      5  C   UNL     1       1.397  -8.247  -1.002  0.00  0.00    +0.100 C 
ATOM      6  C   UNL     1       2.875  -7.822  -0.968  0.00  0.00    -0.004 C 
ATOM      7  C   UNL     1       2.940  -6.644   0.015  0.00  0.00    +0.115 C 
ATOM      8  C   UNL     1       3.326  -7.370  -2.354  0.00  0.00    -0.010 C 
ATOM      9  C   UNL     1       4.813  -7.006  -2.308  0.00  0.00    -0.082 C 
ATOM     10  N   UNL     1       5.591  -8.172  -1.874  0.00  0.00    +0.379 N 
ATOM     11  C   UNL     1       5.215  -8.544  -0.504  0.00  0.00    -0.082 C 
ATOM     12  C   UNL     1       3.745  -8.973  -0.474  0.00  0.00    -0.010 C 
ATOM     13  H   UNL     1       5.406  -8.947  -2.494  0.00  0.00    -0.086 HD
ATOM     14  H   UNL     1       6.574  -7.949  -1.903  0.00  0.00    -0.086 HD
ENDROOT
BRANCH   5  15
ATOM     15  C   UNL     1       0.834  -8.088  -2.391  0.00  0.00    +0.218 C 
ATOM     16  O   UNL     1       0.396  -7.015  -2.748  0.00  0.00    -0.275 OA
ATOM     17  N   UNL     1       0.818  -9.138  -3.236  0.00  0.00    -0.310 N 
ATOM     18  H   UNL     1       1.169  -9.996  -2.950  0.00  0.00    +0.149 HD
BRANCH  17  19
ATOM     19  C   UNL     1       0.271  -8.984  -4.586  0.00  0.00    +0.102 C 
ATOM     20  C   UNL     1      -1.248  -9.229  -4.570  0.00  0.00    +0.025 C 
ATOM     21  C   UNL     1      -1.510 -10.430  -5.503  0.00  0.00    +0.004 C 
ATOM     22  C   UNL     1      -0.292 -10.440  -6.460  0.00  0.00    +0.033 C 
ATOM     23  C   UNL     1       0.880 -10.043  -5.527  0.00  0.00    +0.139 C 
BRANCH  23  24
ATOM     24  O   UNL     1       1.954  -9.481  -6.284  0.00  0.00    -0.370 OA
BRANCH  24  25
ATOM     25  C   UNL     1       2.971 -10.421  -6.637  0.00  0.00    +0.195 C 
BRANCH  25  26
ATOM     26  C   UNL     1       4.047  -9.724  -7.428  0.00  0.00    -0.022 A 
ATOM     27  C   UNL     1       3.954  -9.650  -8.806  0.00  0.00    +0.006 A 
ATOM     28  C   UNL     1       4.941  -9.010  -9.532  0.00  0.00    +0.000 A 
ATOM     29  C   UNL     1       6.021  -8.444  -8.880  0.00  0.00    +0.000 A 
ATOM     30  C   UNL     1       6.114  -8.518  -7.503  0.00  0.00    +0.000 A 
ATOM     31  C   UNL     1       5.125  -9.153  -6.777  0.00  0.00    +0.006 A 
ENDBRANCH  25  26
ENDBRANCH  24  25
ENDBRANCH  23  24
ENDBRANCH  17  19
ENDBRANCH   5  15
BRANCH   1  32
ATOM     32  C   UNL     1      -0.269  -4.433   0.094  0.00  0.00    +0.131 C 
BRANCH  32  37
ATOM     33  C   UNL     1      -0.820   1.315   0.314  0.00  0.00    +0.044 C 
ATOM     34  C   UNL     1      -0.676  -0.184   0.256  0.00  0.00    -0.050 A 
ATOM     35  C   UNL     1      -0.607  -0.825  -0.966  0.00  0.00    +0.003 A 
ATOM     36  C   UNL     1      -0.475  -2.200  -1.019  0.00  0.00    +0.004 A 
ATOM     37  C   UNL     1      -0.412  -2.934   0.151  0.00  0.00    -0.039 A 
ATOM     38  C   UNL     1      -0.480  -2.292   1.374  0.00  0.00    +0.004 A 
ATOM     39  C   UNL     1      -0.608  -0.917   1.426  0.00  0.00    +0.003 A 
ENDBRANCH  32  37
ENDBRANCH   1  32
TORSDOF 7
