REMARK  Name = ZINC08972200
REMARK  8 active torsions:
REMARK  status: ('A' for Active; 'I' for Inactive)
REMARK    1  A    between atoms: C_1  and  C_2
REMARK    2  A    between atoms: C_2  and  O_3
REMARK    3  A    between atoms: O_3  and  C_4
REMARK    4  A    between atoms: C_4  and  C_6
REMARK    5  A    between atoms: C_9  and  N_12
REMARK    6  A    between atoms: C_13  and  C_15
REMARK    7  A    between atoms: C_18  and  C_30
REMARK    8  A    between atoms: C_30  and  C_31
REMARK                            x       y       z     vdW  Elec       q    Type
REMARK                         _______ _______ _______ _____ _____    ______ ____
ROOT
ATOM      1  C   UNL     1      -1.252   2.061   0.068  0.00  0.00    +0.076 C 
ATOM      2  C   UNL     1      -1.405   2.913  -1.215  0.00  0.00    -0.003 C 
ATOM      3  C   UNL     1      -2.263   2.005  -2.133  0.00  0.00    -0.065 C 
ATOM      4  C   UNL     1      -2.423   1.072   0.026  0.00  0.00    +0.049 C 
ATOM      5  C   UNL     1      -1.930  -0.350   0.035  0.00  0.00    -0.028 A 
ATOM      6  C   UNL     1      -1.117  -1.073  -0.809  0.00  0.00    +0.004 A 
ATOM      7  C   UNL     1      -0.838  -2.400  -0.532  0.00  0.00    +0.000 A 
ATOM      8  C   UNL     1      -1.377  -2.996   0.594  0.00  0.00    +0.002 A 
ATOM      9  C   UNL     1      -2.190  -2.274   1.442  0.00  0.00    +0.023 A 
ATOM     10  C   UNL     1      -2.476  -0.938   1.171  0.00  0.00    +0.036 A 
ATOM     11  N   UNL     1      -3.256  -0.012   1.866  0.00  0.00    -0.286 N 
ATOM     12  C   UNL     1      -3.276   1.191   1.262  0.00  0.00    +0.211 C 
ATOM     13  O   UNL     1      -3.866   2.181   1.641  0.00  0.00    -0.277 OA
ATOM     14  H   UNL     1      -3.729  -0.212   2.689  0.00  0.00    +0.155 HD
ATOM     15  N   UNL     1      -3.182   1.360  -1.183  0.00  0.00    +0.394 N 
ATOM     16  H   UNL     1      -3.547   0.488  -1.584  0.00  0.00    -0.083 HD
ATOM     17  H   UNL     1      -3.963   1.990  -0.965  0.00  0.00    -0.083 HD
ENDROOT
BRANCH   1  19
ATOM     18  N   UNL     1       0.574   0.836   1.201  0.00  0.00    -0.285 N 
ATOM     19  C   UNL     1       0.061   1.321   0.053  0.00  0.00    +0.220 C 
ATOM     20  O   UNL     1       0.657   1.167  -0.991  0.00  0.00    -0.275 OA
ATOM     21  H   UNL     1       0.134   1.021   2.045  0.00  0.00    +0.155 HD
BRANCH  18  25
ATOM     22  C   UNL     1       4.051  -1.457   1.122  0.00  0.00    +0.059 A 
ATOM     23  C   UNL     1       3.773  -0.643   2.225  0.00  0.00    +0.017 A 
ATOM     24  C   UNL     1       2.623   0.113   2.247  0.00  0.00    +0.024 A 
ATOM     25  C   UNL     1       1.738   0.069   1.175  0.00  0.00    +0.033 A 
ATOM     26  C   UNL     1       2.008  -0.744   0.078  0.00  0.00    +0.024 A 
ATOM     27  C   UNL     1       3.159  -1.499   0.046  0.00  0.00    +0.017 A 
BRANCH  22  28
ATOM     28  C   UNL     1       5.281  -2.269   1.094  0.00  0.00    +0.339 C 
ATOM     29  O   UNL     1       6.056  -2.231   2.030  0.00  0.00    -0.245 OA
BRANCH  28  30
ATOM     30  O   UNL     1       5.548  -3.053   0.031  0.00  0.00    -0.461 OA
BRANCH  30  32
ATOM     31  C   UNL     1       6.906  -4.646  -1.212  0.00  0.00    +0.048 C 
ATOM     32  C   UNL     1       6.777  -3.824   0.072  0.00  0.00    +0.229 C 
ENDBRANCH  30  32
ENDBRANCH  28  30
ENDBRANCH  22  28
ENDBRANCH  18  25
ENDBRANCH   1  19
BRANCH   3  33
ATOM     33  C   UNL     1      -3.024   2.844  -3.163  0.00  0.00    +0.019 C 
BRANCH  33  34
ATOM     34  C   UNL     1      -3.840   1.936  -4.046  0.00  0.00    -0.049 A 
ATOM     35  C   UNL     1      -3.295   1.431  -5.211  0.00  0.00    +0.003 A 
ATOM     36  C   UNL     1      -4.042   0.594  -6.018  0.00  0.00    +0.000 A 
ATOM     37  C   UNL     1      -5.339   0.271  -5.666  0.00  0.00    +0.000 A 
ATOM     38  C   UNL     1      -5.887   0.780  -4.503  0.00  0.00    +0.000 A 
ATOM     39  C   UNL     1      -5.138   1.613  -3.693  0.00  0.00    +0.003 A 
ENDBRANCH  33  34
ENDBRANCH   3  33
TORSDOF 7
