REMARK  Name = ZINC43587435
REMARK  5 active torsions:
REMARK  status: ('A' for Active; 'I' for Inactive)
REMARK    1  A    between atoms: C_4  and  N_10
REMARK    2  A    between atoms: C_6  and  N_9
REMARK    3  A    between atoms: C_17  and  C_20
REMARK    4  A    between atoms: C_20  and  C_21
REMARK    5  A    between atoms: C_21  and  C_22
REMARK                            x       y       z     vdW  Elec       q    Type
REMARK                         _______ _______ _______ _____ _____    ______ ____
ROOT
ATOM      1  N   UNL     1       2.839  -0.445  -2.471  0.00  0.00    -0.298 N 
ATOM      2  C   UNL     1       4.183  -0.551  -2.485  0.00  0.00    +0.302 C 
ATOM      3  O   UNL     1       4.832  -0.169  -1.530  0.00  0.00    -0.253 OA
ATOM      4  N   UNL     1       4.806  -1.080  -3.556  0.00  0.00    -0.285 N 
ATOM      5  C   UNL     1       4.048  -1.434  -4.764  0.00  0.00    +0.109 C 
ATOM      6  C   UNL     1       4.697  -0.750  -5.971  0.00  0.00    +0.019 C 
ATOM      7  C   UNL     1       6.180  -1.124  -6.028  0.00  0.00    +0.006 C 
ATOM      8  C   UNL     1       6.880  -0.631  -4.760  0.00  0.00    +0.007 C 
ATOM      9  C   UNL     1       6.257  -1.308  -3.541  0.00  0.00    +0.112 C 
ATOM     10  H   UNL     1       2.326  -0.682  -3.259  0.00  0.00    +0.150 HD
ENDROOT
BRANCH   1  14
ATOM     11  C   UNL     1      -0.021   1.518   0.013  0.00  0.00    -0.001 C 
ATOM     12  C   UNL     1       1.412   2.052  -0.002  0.00  0.00    +0.002 C 
ATOM     13  C   UNL     1       2.128   1.558  -1.261  0.00  0.00    +0.021 C 
ATOM     14  C   UNL     1       2.154   0.028  -1.266  0.00  0.00    +0.060 C 
ATOM     15  C   UNL     1       0.720  -0.506  -1.251  0.00  0.00    -0.054 C 
ATOM     16  C   UNL     1       0.004  -0.012   0.008  0.00  0.00    -0.014 C 
BRANCH  15  17
ATOM     17  N   UNL     1       0.745  -1.975  -1.256  0.00  0.00    +0.381 N 
ATOM     18  H   UNL     1       1.235  -2.305  -0.438  0.00  0.00    -0.090 HD
ATOM     19  H   UNL     1      -0.201  -2.327  -1.246  0.00  0.00    -0.090 HD
ATOM     20  H   UNL     1       1.217  -2.300  -2.086  0.00  0.00    -0.090 HD
ENDBRANCH  15  17
ENDBRANCH   1  14
BRANCH   8  21
ATOM     21  C   UNL     1       8.370  -0.975  -4.832  0.00  0.00    +0.016 C 
BRANCH  21  22
ATOM     22  C   UNL     1       9.091  -0.374  -3.625  0.00  0.00    +0.125 C 
BRANCH  22  23
ATOM     23  C   UNL     1      10.558  -0.713  -3.696  0.00  0.00    +0.356 C 
ATOM     24  O   UNL     1      10.986  -1.374  -4.627  0.00  0.00    -0.246 OA
ATOM     25  O   UNL     1      11.316  -0.326  -2.824  0.00  0.00    -0.246 OA
ENDBRANCH  22  23
ENDBRANCH  21  22
ENDBRANCH   8  21
TORSDOF 5
