REMARK  Name = ZINC03113462
REMARK  7 active torsions:
REMARK  status: ('A' for Active; 'I' for Inactive)
REMARK    1  A    between atoms: C_1  and  O_2
REMARK    2  A    between atoms: O_2  and  C_3
REMARK    3  A    between atoms: C_4  and  C_11
REMARK    4  A    between atoms: N_12  and  N_13
REMARK    5  A    between atoms: C_14  and  C_16
REMARK    6  A    between atoms: C_16  and  N_17
REMARK    7  A    between atoms: C_18  and  C_20
REMARK                            x       y       z     vdW  Elec       q    Type
REMARK                         _______ _______ _______ _____ _____    ______ ____
ROOT
ATOM      1  N   UNL     1       4.831   1.749  -0.035  0.00  0.00    -0.206 N 
ATOM      2  C   UNL     1       3.554   2.181  -0.020  0.00  0.00    +0.249 C 
ATOM      3  O   UNL     1       3.316   3.370  -0.011  0.00  0.00    -0.272 OA
ATOM      4  H   UNL     1       5.021   0.798  -0.042  0.00  0.00    +0.177 HD
ENDROOT
BRANCH   1   6
ATOM      5  C   UNL     1       7.112   2.258  -0.054  0.00  0.00    +0.142 C 
ATOM      6  N   UNL     1       5.883   2.674  -0.040  0.00  0.00    -0.188 NA
BRANCH   5   8
ATOM      7  C   UNL     1       7.949   4.606  -0.055  0.00  0.00    +0.143 A 
ATOM      8  C   UNL     1       8.219   3.231  -0.059  0.00  0.00    +0.038 A 
ATOM      9  C   UNL     1       9.544   2.787  -0.074  0.00  0.00    +0.028 A 
ATOM     10  C   UNL     1      10.576   3.703  -0.080  0.00  0.00    +0.020 A 
ATOM     11  C   UNL     1      10.304   5.061  -0.070  0.00  0.00    +0.034 A 
ATOM     12  C   UNL     1       8.997   5.512  -0.055  0.00  0.00    +0.061 A 
ATOM     13 BR   UNL     1       8.639   7.369  -0.043  0.00  0.00    -0.046 Br
ATOM     14 BR   UNL     1      12.369   3.102  -0.100  0.00  0.00    -0.050 Br
BRANCH   7  16
ATOM     15  C   UNL     1       6.059   5.257   1.232  0.00  0.00    +0.277 C 
ATOM     16  O   UNL     1       6.665   5.048  -0.046  0.00  0.00    -0.493 OA
ENDBRANCH   7  16
ENDBRANCH   5   8
ENDBRANCH   1   6
BRANCH   2  17
ATOM     17  C   UNL     1       2.422   1.186  -0.015  0.00  0.00    +0.202 C 
BRANCH  17  18
ATOM     18  N   UNL     1       1.143   1.901   0.001  0.00  0.00    -0.303 N 
ATOM     19  C   UNL     1      -0.014   1.211   0.009  0.00  0.00    +0.244 C 
ATOM     20  O   UNL     1       0.002  -0.004   0.002  0.00  0.00    -0.270 OA
ATOM     21  H   UNL     1       1.130   2.871   0.007  0.00  0.00    +0.150 HD
BRANCH  19  22
ATOM     22  C   UNL     1      -1.304   1.933   0.019  0.00  0.00    +0.037 A 
ATOM     23  C   UNL     1      -1.326   3.329   0.032  0.00  0.00    +0.014 A 
ATOM     24  C   UNL     1      -2.533   3.996   0.036  0.00  0.00    +0.021 A 
ATOM     25  C   UNL     1      -3.721   3.285   0.038  0.00  0.00    +0.041 A 
ATOM     26  C   UNL     1      -3.706   1.900   0.030  0.00  0.00    +0.021 A 
ATOM     27  C   UNL     1      -2.505   1.221   0.021  0.00  0.00    +0.014 A 
ATOM     28 CL   UNL     1      -5.236   4.132   0.049  0.00  0.00    -0.084 Cl
ENDBRANCH  19  22
ENDBRANCH  17  18
ENDBRANCH   2  17
TORSDOF 6
