REMARK  Name = ZINC46793171
REMARK  9 active torsions:
REMARK  status: ('A' for Active; 'I' for Inactive)
REMARK    1  A    between atoms: C_1  and  C_2
REMARK    2  A    between atoms: C_5  and  S_9
REMARK    3  A    between atoms: C_6  and  C_8
REMARK    4  A    between atoms: S_9  and  N_12
REMARK    5  A    between atoms: C_15  and  C_18
REMARK    6  A    between atoms: N_20  and  C_21
REMARK    7  A    between atoms: C_23  and  N_28
REMARK    8  A    between atoms: C_26  and  C_27
REMARK    9  A    between atoms: C_29  and  C_31
REMARK                            x       y       z     vdW  Elec       q    Type
REMARK                         _______ _______ _______ _____ _____    ______ ____
ROOT
ATOM      1  C   UNL     1       4.494  -8.144   1.588  0.00  0.00    +0.220 C 
ATOM      2  O   UNL     1       4.642  -8.965   0.707  0.00  0.00    -0.275 OA
ATOM      3  N   UNL     1       4.716  -8.486   2.872  0.00  0.00    -0.285 N 
ATOM      4  H   UNL     1       4.673  -7.812   3.568  0.00  0.00    +0.155 HD
ENDROOT
BRANCH   3   5
ATOM      5  C   UNL     1       5.007  -9.814   3.203  0.00  0.00    +0.038 A 
ATOM      6  C   UNL     1       4.657 -10.839   2.334  0.00  0.00    +0.047 A 
ATOM      7  C   UNL     1       4.947 -12.154   2.665  0.00  0.00    +0.035 A 
ATOM      8  C   UNL     1       5.588 -12.442   3.864  0.00  0.00    +0.024 A 
ATOM      9  C   UNL     1       5.936 -11.420   4.726  0.00  0.00    +0.007 A 
ATOM     10  C   UNL     1       5.652 -10.108   4.397  0.00  0.00    -0.029 A 
ATOM     11  C   UNL     1       6.038  -8.996   5.338  0.00  0.00    +0.045 C 
BRANCH   7  12
ATOM     12  N   UNL     1       4.595 -13.190   1.793  0.00  0.00    -0.285 N 
ATOM     13  C   UNL     1       5.373 -14.287   1.700  0.00  0.00    +0.220 C 
ATOM     14  O   UNL     1       6.427 -14.335   2.298  0.00  0.00    -0.275 OA
ATOM     15  H   UNL     1       3.791 -13.119   1.255  0.00  0.00    +0.155 HD
BRANCH  13  16
ATOM     16  C   UNL     1       4.934 -15.453   0.853  0.00  0.00    +0.075 C 
ATOM     17  C   UNL     1       4.551 -16.746   1.575  0.00  0.00    +0.013 C 
ATOM     18  C   UNL     1       5.861 -16.668   0.788  0.00  0.00    +0.013 C 
ENDBRANCH  13  16
ENDBRANCH   7  12
ENDBRANCH   3   5
BRANCH   1  22
ATOM     19  N   UNL     1       2.285  -4.825   0.163  0.00  0.00    -0.177 NA
ATOM     20  C   UNL     1       3.477  -5.183  -0.618  0.00  0.00    +0.110 C 
ATOM     21  C   UNL     1       3.882  -6.619  -0.270  0.00  0.00    +0.030 C 
ATOM     22  C   UNL     1       4.063  -6.741   1.245  0.00  0.00    +0.078 C 
ATOM     23  C   UNL     1       2.739  -6.429   1.946  0.00  0.00    +0.030 C 
ATOM     24  C   UNL     1       2.323  -4.986   1.623  0.00  0.00    +0.110 C 
BRANCH  19  25
ATOM     25  S   UNL     1       0.928  -4.246  -0.587  0.00  0.00    +0.061 S 
ATOM     26  O   UNL     1      -0.164  -4.518   0.281  0.00  0.00    -0.153 OA
ATOM     27  O   UNL     1       0.971  -4.718  -1.927  0.00  0.00    -0.153 OA
BRANCH  25  32
ATOM     28  C   UNL     1       1.460   1.758  -0.855  0.00  0.00    +0.044 C 
ATOM     29  C   UNL     1       1.328   0.259  -0.788  0.00  0.00    -0.050 A 
ATOM     30  C   UNL     1       1.314  -0.487  -1.952  0.00  0.00    +0.005 A 
ATOM     31  C   UNL     1       1.192  -1.862  -1.891  0.00  0.00    +0.029 A 
ATOM     32  C   UNL     1       1.084  -2.492  -0.665  0.00  0.00    +0.108 A 
ATOM     33  C   UNL     1       1.099  -1.747   0.499  0.00  0.00    -0.024 A 
ATOM     34  C   UNL     1       1.225  -0.372   0.438  0.00  0.00    +0.008 A 
ATOM     35  C   UNL     1       0.981  -2.434   1.835  0.00  0.00    +0.046 C 
ENDBRANCH  25  32
ENDBRANCH  19  25
ENDBRANCH   1  22
TORSDOF 6
