REMARK  Name = ZINC40820321
REMARK  3 active torsions:
REMARK  status: ('A' for Active; 'I' for Inactive)
REMARK    1  A    between atoms: C_3  and  N_26
REMARK    2  A    between atoms: C_6  and  C_7
REMARK    3  A    between atoms: C_13  and  C_15
REMARK                            x       y       z     vdW  Elec       q    Type
REMARK                         _______ _______ _______ _____ _____    ______ ____
ROOT
ATOM      1  C   UNL     1      -1.264  -0.760   0.011  0.00  0.00    +0.247 C 
ATOM      2  O   UNL     1      -2.322  -0.173   0.130  0.00  0.00    -0.270 OA
ATOM      3  N   UNL     1      -1.248  -2.104  -0.099  0.00  0.00    -0.290 N 
ATOM      4  C   UNL     1      -0.040  -2.949  -0.121  0.00  0.00    +0.109 C 
ATOM      5  C   UNL     1      -0.521  -4.340   0.362  0.00  0.00    +0.021 C 
ATOM      6  C   UNL     1      -1.928  -4.426  -0.285  0.00  0.00    +0.029 C 
ATOM      7  C   UNL     1      -2.431  -2.969  -0.208  0.00  0.00    +0.109 C 
ENDROOT
BRANCH   7   8
ATOM      8  C   UNL     1      -3.201  -2.629  -1.458  0.00  0.00    -0.002 A 
ATOM      9  C   UNL     1      -2.707  -2.067  -2.572  0.00  0.00    +0.089 A 
ATOM     10  N   UNL     1      -3.704  -1.909  -3.497  0.00  0.00    -0.360 N 
ATOM     11  H   UNL     1      -3.589  -1.525  -4.380  0.00  0.00    +0.165 HD
ATOM     12  C   UNL     1      -4.894  -2.378  -2.987  0.00  0.00    +0.048 A 
ATOM     13  C   UNL     1      -4.630  -2.854  -1.689  0.00  0.00    +0.005 A 
ATOM     14  C   UNL     1      -5.663  -3.398  -0.924  0.00  0.00    +0.012 A 
ATOM     15  C   UNL     1      -6.926  -3.469  -1.440  0.00  0.00    +0.021 A 
ATOM     16  C   UNL     1      -7.191  -3.003  -2.722  0.00  0.00    +0.043 A 
ATOM     17  C   UNL     1      -6.187  -2.455  -3.492  0.00  0.00    +0.046 A 
ATOM     18 CL   UNL     1      -8.804  -3.104  -3.357  0.00  0.00    -0.083 Cl
ENDBRANCH   7   8
BRANCH   1  24
ATOM     19  C   UNL     1       1.128  -0.543  -0.641  0.00  0.00    +0.015 A 
ATOM     20  C   UNL     1       2.307   0.167  -0.664  0.00  0.00    +0.023 A 
ATOM     21  C   UNL     1       2.378   1.421  -0.065  0.00  0.00    +0.025 A 
ATOM     22  C   UNL     1       1.257   1.962   0.559  0.00  0.00    +0.023 A 
ATOM     23  C   UNL     1       0.075   1.257   0.586  0.00  0.00    +0.015 A 
ATOM     24  C   UNL     1       0.001  -0.003  -0.015  0.00  0.00    +0.037 A 
BRANCH  21  25
ATOM     25  N   UNL     1       3.571   2.136  -0.089  0.00  0.00    -0.358 N 
ATOM     26  H   UNL     1       4.352   1.760  -0.524  0.00  0.00    +0.142 HD
ATOM     27  H   UNL     1       3.621   3.010   0.328  0.00  0.00    +0.142 HD
ENDBRANCH  21  25
ENDBRANCH   1  24
TORSDOF 3
