REMARK  Name = ZINC12501461
REMARK  8 active torsions:
REMARK  status: ('A' for Active; 'I' for Inactive)
REMARK    1  A    between atoms: C_1  and  C_2
REMARK    2  A    between atoms: C_2  and  C_4
REMARK    3  A    between atoms: C_2  and  O_21
REMARK    4  A    between atoms: N_6  and  N_7
REMARK    5  A    between atoms: N_7  and  C_8
REMARK    6  A    between atoms: C_8  and  N_10
REMARK    7  A    between atoms: C_11  and  C_13
REMARK    8  A    between atoms: O_21  and  C_22
REMARK                            x       y       z     vdW  Elec       q    Type
REMARK                         _______ _______ _______ _____ _____    ______ ____
ROOT
ATOM      1  N   UNL     1       1.155   1.713   0.515  0.00  0.00    -0.245 N 
ATOM      2  H   UNL     1       1.118   2.672   0.655  0.00  0.00    +0.172 HD
ENDROOT
BRANCH   1   5
ATOM      3  C   UNL     1      -1.210   1.631   0.260  0.00  0.00    +0.270 C 
ATOM      4  O   UNL     1      -1.257   2.830   0.435  0.00  0.00    -0.270 OA
ATOM      5  N   UNL     1      -0.024   0.992   0.289  0.00  0.00    -0.232 N 
ATOM      6  H   UNL     1       0.013   0.032   0.150  0.00  0.00    +0.173 HD
BRANCH   3   8
ATOM      7  C   UNL     1      -2.720  -0.114   1.169  0.00  0.00    +0.062 C 
ATOM      8  C   UNL     1      -2.478   0.856   0.011  0.00  0.00    +0.257 C 
BRANCH   8   9
ATOM      9  O   UNL     1      -3.579   1.763  -0.089  0.00  0.00    -0.478 OA
BRANCH   9  10
ATOM     10  C   UNL     1      -4.660   1.345  -0.800  0.00  0.00    +0.140 A 
ATOM     11  C   UNL     1      -4.708   0.050  -1.294  0.00  0.00    +0.048 A 
ATOM     12  C   UNL     1      -5.809  -0.373  -2.013  0.00  0.00    +0.023 A 
ATOM     13  C   UNL     1      -6.859   0.496  -2.249  0.00  0.00    +0.043 A 
ATOM     14  C   UNL     1      -6.812   1.790  -1.761  0.00  0.00    +0.043 A 
ATOM     15  C   UNL     1      -5.714   2.217  -1.038  0.00  0.00    +0.084 A 
ATOM     16 CL   UNL     1      -5.654   3.840  -0.426  0.00  0.00    -0.080 Cl
ATOM     17 CL   UNL     1      -8.239  -0.037  -3.157  0.00  0.00    -0.083 Cl
ENDBRANCH   9  10
ENDBRANCH   8   9
ENDBRANCH   3   8
ENDBRANCH   1   5
BRANCH   1  18
ATOM     18  C   UNL     1       2.342   1.074   0.539  0.00  0.00    +0.153 C 
ATOM     19  S   UNL     1       3.783   1.955   0.815  0.00  0.00    -0.017 S 
BRANCH  18  20
ATOM     20  N   UNL     1       2.394  -0.259   0.345  0.00  0.00    -0.263 N 
ATOM     21  C   UNL     1       3.580  -0.898   0.368  0.00  0.00    +0.251 C 
ATOM     22  O   UNL     1       4.603  -0.272   0.565  0.00  0.00    -0.270 OA
ATOM     23  H   UNL     1       1.577  -0.758   0.188  0.00  0.00    +0.157 HD
BRANCH  21  24
ATOM     24  C   UNL     1       3.637  -2.357   0.156  0.00  0.00    +0.055 A 
ATOM     25  C   UNL     1       2.462  -3.080  -0.070  0.00  0.00    +0.016 A 
ATOM     26  C   UNL     1       2.522  -4.442  -0.268  0.00  0.00    +0.021 A 
ATOM     27  C   UNL     1       3.743  -5.097  -0.243  0.00  0.00    +0.042 A 
ATOM     28  C   UNL     1       4.911  -4.389  -0.020  0.00  0.00    +0.040 A 
ATOM     29  C   UNL     1       4.866  -3.022   0.174  0.00  0.00    +0.054 A 
ATOM     30 CL   UNL     1       6.332  -2.133   0.447  0.00  0.00    -0.083 Cl
ATOM     31 CL   UNL     1       3.808  -6.814  -0.494  0.00  0.00    -0.083 Cl
ENDBRANCH  21  24
ENDBRANCH  18  20
ENDBRANCH   1  18
TORSDOF 7
