REMARK  Name = ZINC22968282
REMARK  7 active torsions:
REMARK  status: ('A' for Active; 'I' for Inactive)
REMARK    1  A    between atoms: C_3  and  C_16
REMARK    2  A    between atoms: C_5  and  N_7
REMARK    3  A    between atoms: C_8  and  C_10
REMARK    4  A    between atoms: N_18  and  C_19
REMARK    5  A    between atoms: C_22  and  N_29
REMARK    6  A    between atoms: C_24  and  C_25
REMARK    7  A    between atoms: C_30  and  C_32
REMARK                            x       y       z     vdW  Elec       q    Type
REMARK                         _______ _______ _______ _____ _____    ______ ____
ROOT
ATOM      1  C   UNL     1      -6.695  -5.099  -0.137  0.00  0.00    +0.248 C 
ATOM      2  O   UNL     1      -6.852  -3.927  -0.421  0.00  0.00    -0.270 OA
ATOM      3  N   UNL     1      -5.451  -5.612  -0.057  0.00  0.00    -0.281 N 
ATOM      4  H   UNL     1      -5.304  -6.647   0.287  0.00  0.00    +0.155 HD
ENDROOT
BRANCH   1   7
ATOM      5  C   UNL     1      -8.788  -8.109   0.684  0.00  0.00    +0.003 A 
ATOM      6  C   UNL     1      -7.691  -7.308   0.440  0.00  0.00    +0.013 A 
ATOM      7  C   UNL     1      -7.868  -5.961   0.119  0.00  0.00    +0.039 A 
ATOM      8  C   UNL     1      -9.157  -5.432   0.037  0.00  0.00    +0.036 A 
ATOM      9  C   UNL     1     -10.252  -6.246   0.279  0.00  0.00    +0.034 A 
ATOM     10  C   UNL     1     -10.065  -7.585   0.603  0.00  0.00    +0.023 A 
BRANCH   9  11
ATOM     11  N   UNL     1     -11.546  -5.720   0.198  0.00  0.00    -0.283 N 
ATOM     12  C   UNL     1     -11.787  -4.457   0.602  0.00  0.00    +0.246 C 
ATOM     13  O   UNL     1     -10.869  -3.748   0.956  0.00  0.00    -0.273 OA
ATOM     14  H   UNL     1     -12.367  -6.338  -0.195  0.00  0.00    +0.155 HD
BRANCH  12  15
ATOM     15  C   UNL     1     -13.197  -3.925   0.612  0.00  0.00    +0.204 C 
ATOM     16  C   UNL     1     -14.040  -4.696   1.646  0.00  0.00    +0.043 C 
ATOM     17  C   UNL     1     -14.545  -3.600   2.617  0.00  0.00    +0.031 C 
ATOM     18  C   UNL     1     -14.407  -2.317   1.758  0.00  0.00    +0.161 C 
ATOM     19  O   UNL     1     -13.194  -2.542   1.004  0.00  0.00    -0.367 OA
ENDBRANCH  12  15
ENDBRANCH   9  11
ENDBRANCH   1   7
BRANCH   3  20
ATOM     20  C   UNL     1      -4.346  -4.829  -0.411  0.00  0.00    +0.045 A 
ATOM     21  C   UNL     1      -4.517  -3.715  -1.224  0.00  0.00    +0.026 A 
ATOM     22  C   UNL     1      -3.427  -2.943  -1.573  0.00  0.00    +0.025 A 
ATOM     23  C   UNL     1      -2.161  -3.279  -1.112  0.00  0.00    +0.034 A 
ATOM     24  C   UNL     1      -1.990  -4.396  -0.304  0.00  0.00    +0.037 A 
ATOM     25  C   UNL     1      -3.080  -5.165   0.050  0.00  0.00    +0.078 A 
BRANCH  25  26
ATOM     26  C   UNL     1      -2.896  -6.373   0.931  0.00  0.00    +0.419 C 
ATOM     27  F   UNL     1      -1.544  -6.506   1.264  0.00  0.00    -0.166 F 
ATOM     28  F   UNL     1      -3.650  -6.218   2.099  0.00  0.00    -0.166 F 
ATOM     29  F   UNL     1      -3.322  -7.518   0.249  0.00  0.00    -0.166 F 
ENDBRANCH  25  26
BRANCH  23  30
ATOM     30  N   UNL     1      -1.056  -2.496  -1.466  0.00  0.00    -0.279 N 
ATOM     31  C   UNL     1      -1.188  -1.160  -1.587  0.00  0.00    +0.284 C 
ATOM     32  O   UNL     1      -2.285  -0.644  -1.476  0.00  0.00    -0.266 OA
ATOM     33  H   UNL     1      -0.080  -2.970  -1.645  0.00  0.00    +0.155 HD
BRANCH  31  34
ATOM     34  C   UNL     1      -0.011  -0.328  -1.851  0.00  0.00    +0.189 A 
ATOM     35  C   UNL     1      -0.003   1.030  -1.996  0.00  0.00    +0.054 A 
ATOM     36  C   UNL     1       1.328   1.404  -2.235  0.00  0.00    +0.042 A 
ATOM     37  C   UNL     1       2.066   0.272  -2.226  0.00  0.00    +0.196 A 
ATOM     38  O   UNL     1       1.256  -0.769  -1.995  0.00  0.00    -0.458 OA
ENDBRANCH  31  34
ENDBRANCH  23  30
ENDBRANCH   3  20
TORSDOF 7
