REMARK  Name = ZINC58079580
REMARK  9 active torsions:
REMARK  status: ('A' for Active; 'I' for Inactive)
REMARK    1  A    between atoms: C_1  and  C_2
REMARK    2  A    between atoms: N_5  and  C_8
REMARK    3  A    between atoms: C_8  and  C_10
REMARK    4  A    between atoms: C_8  and  C_27
REMARK    5  A    between atoms: C_10  and  N_11
REMARK    6  A    between atoms: N_14  and  C_15
REMARK    7  A    between atoms: N_20  and  C_24
REMARK    8  A    between atoms: C_24  and  C_25
REMARK    9  A    between atoms: C_24  and  C_26
REMARK                            x       y       z     vdW  Elec       q    Type
REMARK                         _______ _______ _______ _____ _____    ______ ____
ROOT
ATOM      1  N   UNL     1      -2.872  -4.080   0.211  0.00  0.00    -0.300 N 
ATOM      2  C   UNL     1      -4.170  -4.397   0.031  0.00  0.00    +0.304 C 
ATOM      3  O   UNL     1      -4.763  -5.034   0.880  0.00  0.00    -0.253 OA
ATOM      4  N   UNL     1      -4.809  -4.009  -1.090  0.00  0.00    -0.268 N 
ATOM      5  H   UNL     1      -2.399  -3.572  -0.467  0.00  0.00    +0.150 HD
ATOM      6  H   UNL     1      -4.353  -3.452  -1.740  0.00  0.00    +0.156 HD
ENDROOT
BRANCH   4   7
ATOM      7  C   UNL     1      -6.133  -4.410  -1.316  0.00  0.00    +0.054 A 
ATOM      8  C   UNL     1      -7.018  -4.534  -0.256  0.00  0.00    +0.038 A 
ATOM      9  C   UNL     1      -8.328  -4.937  -0.537  0.00  0.00    +0.040 A 
ATOM     10  C   UNL     1      -9.515  -5.176   0.277  0.00  0.00    +0.144 A 
ATOM     11  N   UNL     1     -10.476  -5.543  -0.523  0.00  0.00    -0.177 NA
ATOM     12  N   UNL     1     -10.018  -5.571  -1.843  0.00  0.00    -0.244 N 
ATOM     13  C   UNL     1      -8.698  -5.201  -1.871  0.00  0.00    +0.159 A 
ATOM     14  N   UNL     1      -7.809  -5.067  -2.847  0.00  0.00    -0.234 NA
ATOM     15  C   UNL     1      -6.574  -4.684  -2.609  0.00  0.00    +0.136 A 
BRANCH  12  16
ATOM     16  C   UNL     1     -10.820  -5.939  -3.012  0.00  0.00    +0.103 C 
ATOM     17  C   UNL     1     -11.332  -7.371  -2.849  0.00  0.00    +0.032 C 
ATOM     18  C   UNL     1     -12.009  -4.983  -3.136  0.00  0.00    +0.032 C 
ENDBRANCH  12  16
ENDBRANCH   4   7
BRANCH   1  19
ATOM     19  C   UNL     1      -2.177  -4.501   1.429  0.00  0.00    +0.095 C 
BRANCH  19  20
ATOM     20  C   UNL     1      -0.764  -3.913   1.440  0.00  0.00    -0.013 C 
BRANCH  20  25
ATOM     21  C   UNL     1       2.011  -4.204   6.414  0.00  0.00    +0.007 C 
ATOM     22  C   UNL     1       1.333  -3.688   5.143  0.00  0.00    -0.018 C 
ATOM     23  C   UNL     1      -0.136  -4.120   5.135  0.00  0.00    -0.015 C 
ATOM     24  C   UNL     1      -0.787  -3.670   3.825  0.00  0.00    -0.078 C 
ATOM     25  N   UNL     1      -0.088  -4.286   2.690  0.00  0.00    +0.386 N 
ATOM     26  C   UNL     1       1.303  -3.820   2.650  0.00  0.00    -0.078 C 
ATOM     27  C   UNL     1       2.034  -4.276   3.914  0.00  0.00    -0.015 C 
ATOM     28  H   UNL     1      -0.103  -5.290   2.792  0.00  0.00    -0.081 HD
ENDBRANCH  20  25
BRANCH  20  29
ATOM     29  C   UNL     1       0.014  -4.453   0.268  0.00  0.00    -0.022 A 
ATOM     30  C   UNL     1       0.279  -3.866  -0.924  0.00  0.00    +0.009 A 
ATOM     31  C   UNL     1       1.022  -4.557  -1.862  0.00  0.00    +0.008 A 
ATOM     32  C   UNL     1       1.464  -5.803  -1.562  0.00  0.00    +0.045 A 
ATOM     33  S   UNL     1       0.832  -6.030   0.093  0.00  0.00    -0.103 S 
ENDBRANCH  20  29
ENDBRANCH  19  20
ENDBRANCH   1  19
TORSDOF 6
