REMARK  Name = ZINC37928985
REMARK  6 active torsions:
REMARK  status: ('A' for Active; 'I' for Inactive)
REMARK    1  A    between atoms: C_1  and  C_2
REMARK    2  A    between atoms: C_7  and  N_12
REMARK    3  A    between atoms: C_9  and  C_11
REMARK    4  A    between atoms: N_12  and  S_13
REMARK    5  A    between atoms: S_13  and  C_16
REMARK    6  A    between atoms: C_21  and  N_22
REMARK                            x       y       z     vdW  Elec       q    Type
REMARK                         _______ _______ _______ _____ _____    ______ ____
ROOT
ATOM      1  S   UNL     1       0.892   0.467   4.940  0.00  0.00    +0.060 S 
ATOM      2  O   UNL     1       1.749  -0.110   5.916  0.00  0.00    -0.153 OA
ATOM      3  O   UNL     1       1.193   1.695   4.291  0.00  0.00    -0.153 OA
ENDROOT
BRANCH   1   4
ATOM      4  C   UNL     1      -0.679   0.677   5.710  0.00  0.00    +0.128 A 
ATOM      5  C   UNL     1      -1.328   1.894   5.636  0.00  0.00    +0.068 A 
ATOM      6  C   UNL     1      -2.562   2.059   6.241  0.00  0.00    +0.125 A 
ATOM      7  C   UNL     1      -3.149   1.006   6.921  0.00  0.00    +0.040 A 
ATOM      8  C   UNL     1      -2.504  -0.213   6.997  0.00  0.00    +0.027 A 
ATOM      9  C   UNL     1      -1.268  -0.383   6.386  0.00  0.00    +0.051 A 
ATOM     10  F   UNL     1      -3.195   3.251   6.167  0.00  0.00    -0.205 F 
BRANCH   9  11
ATOM     11  N   UNL     1      -0.616  -1.618   6.457  0.00  0.00    -0.356 N 
ATOM     12  H   UNL     1       0.224  -1.750   5.991  0.00  0.00    +0.142 HD
ATOM     13  H   UNL     1      -1.004  -2.342   6.972  0.00  0.00    +0.142 HD
ENDBRANCH   9  11
ENDBRANCH   1   4
BRANCH   1  14
ATOM     14  N   UNL     1       0.704  -0.666   3.746  0.00  0.00    -0.187 NA
ATOM     15  H   UNL     1       1.168  -1.515   3.807  0.00  0.00    +0.148 HD
BRANCH  14  21
ATOM     16  C   UNL     1      -0.773   1.154   0.181  0.00  0.00    +0.008 C 
ATOM     17  C   UNL     1      -0.279  -0.292   0.105  0.00  0.00    -0.010 C 
ATOM     18  C   UNL     1      -1.478  -1.243   0.126  0.00  0.00    +0.003 C 
ATOM     19  C   UNL     1      -2.266  -1.041   1.422  0.00  0.00    +0.002 C 
ATOM     20  C   UNL     1      -1.361  -1.335   2.620  0.00  0.00    +0.020 C 
ATOM     21  C   UNL     1      -0.162  -0.384   2.599  0.00  0.00    +0.080 C 
ATOM     22  C   UNL     1       0.626  -0.586   1.303  0.00  0.00    +0.007 C 
ATOM     23  C   UNL     1       1.825   0.365   1.282  0.00  0.00    +0.009 C 
ENDBRANCH  14  21
ENDBRANCH   1  14
TORSDOF 4
