REMARK  Name = ZINC02275208
REMARK  9 active torsions:
REMARK  status: ('A' for Active; 'I' for Inactive)
REMARK    1  A    between atoms: C_1  and  C_2
REMARK    2  A    between atoms: C_2  and  C_3
REMARK    3  A    between atoms: C_5  and  C_29
REMARK    4  A    between atoms: C_6  and  S_17
REMARK    5  A    between atoms: C_13  and  C_15
REMARK    6  A    between atoms: C_13  and  C_16
REMARK    7  A    between atoms: S_17  and  C_18
REMARK    8  A    between atoms: C_18  and  C_20
REMARK    9  A    between atoms: C_18  and  C_26
REMARK                            x       y       z     vdW  Elec       q    Type
REMARK                         _______ _______ _______ _____ _____    ______ ____
ROOT
ATOM      1  C   UNL     1      -1.978  -0.662  -0.509  0.00  0.00    +0.066 C 
ATOM      2  C   UNL     1      -2.875  -0.236   0.615  0.00  0.00    +0.064 C 
ATOM      3  C   UNL     1      -3.333  -1.135   1.528  0.00  0.00    +0.080 C 
ATOM      4  N   UNL     1      -2.969  -2.458   1.435  0.00  0.00    -0.311 N 
ATOM      5  C   UNL     1      -1.869  -2.828   0.710  0.00  0.00    +0.016 C 
ATOM      6  C   UNL     1      -1.351  -2.004  -0.224  0.00  0.00    +0.020 C 
ATOM      7  C   UNL     1      -0.211  -2.370  -0.960  0.00  0.00    +0.162 C 
ATOM      8  O   UNL     1       0.226  -1.609  -1.800  0.00  0.00    -0.292 OA
ATOM      9  C   UNL     1       0.479  -3.687  -0.727  0.00  0.00    +0.086 C 
ATOM     10  C   UNL     1       0.252  -4.119   0.725  0.00  0.00    -0.023 C 
ATOM     11  C   UNL     1      -1.255  -4.180   0.980  0.00  0.00    +0.058 C 
ATOM     12  C   UNL     1       0.896  -3.103   1.670  0.00  0.00    +0.011 C 
ATOM     13  C   UNL     1       0.868  -5.501   0.952  0.00  0.00    +0.011 C 
ATOM     14  H   UNL     1      -3.497  -3.134   1.887  0.00  0.00    +0.152 HD
ENDROOT
BRANCH   1  16
ATOM     15  C   UNL     1       0.069   0.341   0.514  0.00  0.00    +0.005 C 
ATOM     16  C   UNL     1      -0.873   0.379  -0.692  0.00  0.00    +0.010 C 
ENDBRANCH   1  16
BRANCH   2  17
ATOM     17  C   UNL     1      -3.256   1.140   0.730  0.00  0.00    +0.098 C 
ATOM     18  N   UNL     1      -3.558   2.231   0.820  0.00  0.00    -0.191 NA
ENDBRANCH   2  17
BRANCH   3  19
ATOM     19  S   UNL     1      -4.392  -0.603   2.832  0.00  0.00    -0.092 S 
BRANCH  19  20
ATOM     20  C   UNL     1      -4.729  -2.119   3.769  0.00  0.00    +0.168 C 
BRANCH  20  21
ATOM     21  C   UNL     1      -5.733  -1.826   4.855  0.00  0.00    -0.025 A 
ATOM     22  C   UNL     1      -5.535  -0.757   5.709  0.00  0.00    +0.005 A 
ATOM     23  C   UNL     1      -6.455  -0.488   6.704  0.00  0.00    +0.000 A 
ATOM     24  C   UNL     1      -7.574  -1.287   6.845  0.00  0.00    +0.000 A 
ATOM     25  C   UNL     1      -7.773  -2.356   5.990  0.00  0.00    +0.000 A 
ATOM     26  C   UNL     1      -6.854  -2.622   4.992  0.00  0.00    +0.005 A 
ENDBRANCH  20  21
BRANCH  20  27
ATOM     27  C   UNL     1      -3.450  -2.620   4.390  0.00  0.00    +0.228 C 
ATOM     28  O   UNL     1      -3.007  -3.704   4.073  0.00  0.00    -0.274 OA
ATOM     29  N   UNL     1      -2.800  -1.865   5.296  0.00  0.00    -0.328 N 
ATOM     30  H   UNL     1      -3.189  -1.030   5.601  0.00  0.00    +0.145 HD
ATOM     31  H   UNL     1      -1.942  -2.156   5.644  0.00  0.00    +0.145 HD
ENDBRANCH  20  27
ENDBRANCH  19  20
ENDBRANCH   3  19
TORSDOF 6
