REMARK  Name = ZINC39668956
REMARK  6 active torsions:
REMARK  status: ('A' for Active; 'I' for Inactive)
REMARK    1  A    between atoms: C_10  and  C_12
REMARK    2  A    between atoms: C_12  and  N_13
REMARK    3  A    between atoms: C_14  and  C_16
REMARK    4  A    between atoms: C_27  and  C_29
REMARK    5  A    between atoms: C_32  and  O_35
REMARK    6  A    between atoms: O_35  and  C_36
REMARK                            x       y       z     vdW  Elec       q    Type
REMARK                         _______ _______ _______ _____ _____    ______ ____
ROOT
ATOM      1  C   UNL     1       7.973  -0.958   2.027  0.00  0.00    +0.100 C 
ATOM      2  C   UNL     1       8.173  -2.470   2.269  0.00  0.00    +0.121 C 
ATOM      3  N   UNL     1       9.505  -2.575   2.909  0.00  0.00    -0.296 N 
ATOM      4  C   UNL     1       9.562  -1.416   3.833  0.00  0.00    +0.115 C 
ATOM      5  C   UNL     1       8.886  -0.269   3.055  0.00  0.00    -0.004 C 
ATOM      6  C   UNL     1       9.937   0.578   2.345  0.00  0.00    -0.010 C 
ATOM      7  C   UNL     1      10.797   1.297   3.388  0.00  0.00    -0.082 C 
ATOM      8  N   UNL     1       9.942   2.145   4.229  0.00  0.00    +0.379 N 
ATOM      9  C   UNL     1       8.994   1.313   4.979  0.00  0.00    -0.082 C 
ATOM     10  C   UNL     1       8.059   0.594   4.003  0.00  0.00    -0.010 C 
ATOM     11  C   UNL     1      10.451  -3.511   2.700  0.00  0.00    +0.247 C 
ATOM     12  O   UNL     1      10.310  -4.331   1.813  0.00  0.00    -0.270 OA
ATOM     13  H   UNL     1      10.517   2.664   4.875  0.00  0.00    -0.086 HD
ATOM     14  H   UNL     1       9.432   2.790   3.644  0.00  0.00    -0.086 HD
ENDROOT
BRANCH  11  15
ATOM     15  C   UNL     1      11.660  -3.541   3.546  0.00  0.00    +0.037 A 
ATOM     16  C   UNL     1      11.652  -2.927   4.801  0.00  0.00    +0.016 A 
ATOM     17  C   UNL     1      12.781  -2.958   5.589  0.00  0.00    +0.047 A 
ATOM     18  C   UNL     1      13.928  -3.599   5.136  0.00  0.00    +0.130 A 
ATOM     19  C   UNL     1      13.941  -4.211   3.889  0.00  0.00    +0.047 A 
ATOM     20  C   UNL     1      12.814  -4.189   3.098  0.00  0.00    +0.016 A 
BRANCH  18  21
ATOM     21  O   UNL     1      15.040  -3.626   5.915  0.00  0.00    -0.406 OA
BRANCH  21  22
ATOM     22  C   UNL     1      16.184  -4.302   5.389  0.00  0.00    +0.575 C 
ATOM     23  F   UNL     1      16.577  -3.691   4.193  0.00  0.00    -0.133 F 
ATOM     24  F   UNL     1      17.231  -4.234   6.313  0.00  0.00    -0.133 F 
ATOM     25  F   UNL     1      15.863  -5.641   5.144  0.00  0.00    -0.133 F 
ENDBRANCH  21  22
ENDBRANCH  18  21
ENDBRANCH  11  15
BRANCH   1  27
ATOM     26  N   UNL     1       5.991   0.452   1.578  0.00  0.00    -0.312 N 
ATOM     27  C   UNL     1       6.535  -0.574   2.262  0.00  0.00    +0.218 C 
ATOM     28  O   UNL     1       5.867  -1.188   3.066  0.00  0.00    -0.275 OA
ATOM     29  H   UNL     1       6.525   0.944   0.935  0.00  0.00    +0.149 HD
BRANCH  26  30
ATOM     30  C   UNL     1       4.593   0.826   1.807  0.00  0.00    +0.140 C 
BRANCH  30  40
ATOM     31  C   UNL     1       0.282   3.321   1.906  0.00  0.00    +0.000 A 
ATOM     32  C   UNL     1       1.185   2.997   2.901  0.00  0.00    +0.000 A 
ATOM     33  C   UNL     1       2.456   2.574   2.567  0.00  0.00    +0.006 A 
ATOM     34  C   UNL     1       2.831   2.471   1.236  0.00  0.00    -0.014 A 
ATOM     35  C   UNL     1       1.928   2.790   0.243  0.00  0.00    -0.040 A 
ATOM     36  C   UNL     1       0.654   3.218   0.580  0.00  0.00    +0.004 A 
ATOM     37  C   UNL     1       2.294   2.679  -1.215  0.00  0.00    +0.063 C 
ATOM     38  C   UNL     1       3.815   2.606  -1.362  0.00  0.00    +0.165 C 
ATOM     39  O   UNL     1       4.313   1.614  -0.457  0.00  0.00    -0.370 OA
ATOM     40  C   UNL     1       4.228   2.011   0.911  0.00  0.00    +0.165 C 
ENDBRANCH  30  40
ENDBRANCH  26  30
ENDBRANCH   1  27
TORSDOF 6
