REMARK  Name = ZINC36024324
REMARK  9 active torsions:
REMARK  status: ('A' for Active; 'I' for Inactive)
REMARK    1  A    between atoms: C_1  and  C_2
REMARK    2  A    between atoms: C_2  and  C_3
REMARK    3  A    between atoms: C_3  and  C_5
REMARK    4  A    between atoms: C_3  and  C_6
REMARK    5  A    between atoms: N_10  and  C_28
REMARK    6  A    between atoms: N_15  and  C_18
REMARK    7  A    between atoms: C_18  and  N_20
REMARK    8  A    between atoms: N_20  and  C_21
REMARK    9  A    between atoms: C_28  and  C_29
REMARK                            x       y       z     vdW  Elec       q    Type
REMARK                         _______ _______ _______ _____ _____    ______ ____
ROOT
ATOM      1  C   UNL     1       1.113  -2.153  -1.185  0.00  0.00    +0.022 C 
ATOM      2  C   UNL     1      -0.214  -2.879  -1.219  0.00  0.00    +0.201 C 
ATOM      3  O   UNL     1      -1.088  -2.799  -0.382  0.00  0.00    -0.277 OA
ATOM      4  N   UNL     1      -0.262  -3.632  -2.338  0.00  0.00    -0.309 N 
ATOM      5  C   UNL     1       0.985  -3.468  -3.091  0.00  0.00    +0.006 C 
ATOM      6  N   UNL     1       1.631  -2.242  -2.572  0.00  0.00    +0.401 N 
ATOM      7  C   UNL     1       1.901  -4.668  -2.863  0.00  0.00    +0.025 C 
ATOM      8  C   UNL     1       1.209  -5.939  -3.367  0.00  0.00    +0.107 C 
ATOM      9  N   UNL     1       0.804  -5.734  -4.764  0.00  0.00    -0.312 N 
ATOM     10  C   UNL     1      -0.018  -4.562  -5.098  0.00  0.00    +0.107 C 
ATOM     11  C   UNL     1       0.685  -3.303  -4.580  0.00  0.00    +0.025 C 
ATOM     12  H   UNL     1       1.351  -1.436  -3.110  0.00  0.00    -0.082 HD
ATOM     13  H   UNL     1       2.636  -2.340  -2.571  0.00  0.00    -0.082 HD
ENDROOT
BRANCH   1  14
ATOM     14  C   UNL     1       0.909  -0.690  -0.786  0.00  0.00    -0.020 C 
ATOM     15  C   UNL     1      -0.159  -0.060  -1.683  0.00  0.00    +0.006 C 
BRANCH  14  17
ATOM     16  C   UNL     1       0.373   0.846   1.110  0.00  0.00    +0.004 C 
ATOM     17  C   UNL     1       0.456  -0.618   0.674  0.00  0.00    -0.001 C 
ENDBRANCH  14  17
ENDBRANCH   1  14
BRANCH   9  18
ATOM     18  C   UNL     1       1.179  -6.604  -5.722  0.00  0.00    +0.137 C 
ATOM     19  S   UNL     1       2.031  -8.028  -5.299  0.00  0.00    -0.018 S 
BRANCH  18  20
ATOM     20  N   UNL     1       0.883  -6.355  -7.013  0.00  0.00    -0.297 N 
ATOM     21  H   UNL     1       1.585  -6.096  -7.630  0.00  0.00    +0.154 HD
BRANCH  20  22
ATOM     22  C   UNL     1      -0.438  -6.468  -7.463  0.00  0.00    +0.033 A 
ATOM     23  C   UNL     1      -1.426  -6.936  -6.608  0.00  0.00    +0.026 A 
ATOM     24  C   UNL     1      -2.729  -7.048  -7.054  0.00  0.00    +0.040 A 
ATOM     25  C   UNL     1      -3.049  -6.694  -8.354  0.00  0.00    +0.124 A 
ATOM     26  C   UNL     1      -2.065  -6.227  -9.209  0.00  0.00    +0.040 A 
ATOM     27  C   UNL     1      -0.762  -6.108  -8.765  0.00  0.00    +0.026 A 
ATOM     28  F   UNL     1      -4.323  -6.804  -8.788  0.00  0.00    -0.205 F 
ENDBRANCH  20  22
ENDBRANCH  18  20
ENDBRANCH   9  18
BRANCH   4  29
ATOM     29  C   UNL     1      -1.386  -4.482  -2.738  0.00  0.00    +0.141 C 
BRANCH  29  30
ATOM     30  C   UNL     1      -2.484  -3.625  -3.314  0.00  0.00    -0.030 A 
ATOM     31  C   UNL     1      -3.399  -3.019  -2.473  0.00  0.00    +0.008 A 
ATOM     32  C   UNL     1      -4.406  -2.232  -2.999  0.00  0.00    +0.038 A 
ATOM     33  C   UNL     1      -4.498  -2.052  -4.369  0.00  0.00    +0.123 A 
ATOM     34  C   UNL     1      -3.582  -2.660  -5.210  0.00  0.00    +0.038 A 
ATOM     35  C   UNL     1      -2.572  -3.442  -4.681  0.00  0.00    +0.008 A 
ATOM     36  F   UNL     1      -5.483  -1.284  -4.885  0.00  0.00    -0.205 F 
ENDBRANCH  29  30
ENDBRANCH   4  29
TORSDOF 7
