REMARK  Name = ZINC12559781
REMARK  11 active torsions:
REMARK  status: ('A' for Active; 'I' for Inactive)
REMARK    1  A    between atoms: C_1  and  C_2
REMARK    2  A    between atoms: C_2  and  C_3
REMARK    3  A    between atoms: C_2  and  C_4
REMARK    4  A    between atoms: C_2  and  P_5
REMARK    5  A    between atoms: P_5  and  C_18
REMARK    6  A    between atoms: P_5  and  N_24
REMARK    7  A    between atoms: N_6  and  C_7
REMARK    8  A    between atoms: C_7  and  C_9
REMARK    9  A    between atoms: C_12  and  N_15
REMARK   10  A    between atoms: N_24  and  C_25
REMARK   11  A    between atoms: C_29  and  C_31
REMARK                            x       y       z     vdW  Elec       q    Type
REMARK                         _______ _______ _______ _____ _____    ______ ____
ROOT
ATOM      1  P   UNL     1       0.524  -0.133  -1.877  0.00  0.00    +0.079 P 
ATOM      2  N   UNL     1      -0.459   0.605  -2.827  0.00  0.00    -0.171 NA
ENDROOT
BRANCH   1   3
ATOM      3  C   UNL     1       1.878   0.985  -1.422  0.00  0.00    +0.010 A 
ATOM      4  C   UNL     1       2.313   1.076  -0.108  0.00  0.00    +0.028 A 
ATOM      5  C   UNL     1       3.347   1.939   0.201  0.00  0.00    +0.083 A 
ATOM      6  N   UNL     1       3.918   2.670  -0.736  0.00  0.00    -0.367 N 
ATOM      7  C   UNL     1       3.531   2.610  -1.995  0.00  0.00    +0.083 A 
ATOM      8  C   UNL     1       2.507   1.765  -2.380  0.00  0.00    +0.028 A 
ATOM      9  H   UNL     1       4.642   3.269  -0.492  0.00  0.00    +0.165 HD
ENDBRANCH   1   3
BRANCH   1  11
ATOM     10  C   UNL     1      -0.643   0.565   0.505  0.00  0.00    +0.018 C 
ATOM     11  C   UNL     1      -0.363  -0.656  -0.373  0.00  0.00    +0.015 C 
ATOM     12  C   UNL     1       0.496  -1.657   0.404  0.00  0.00    +0.018 C 
ATOM     13  C   UNL     1      -1.686  -1.317  -0.765  0.00  0.00    +0.018 C 
ENDBRANCH   1  11
BRANCH   2  14
ATOM     14  C   UNL     1      -1.664   0.965  -2.390  0.00  0.00    +0.268 C 
ATOM     15  O   UNL     1      -1.961   0.803  -1.219  0.00  0.00    -0.268 OA
BRANCH  14  16
ATOM     16  C   UNL     1      -2.644   1.561  -3.327  0.00  0.00    +0.039 A 
ATOM     17  C   UNL     1      -2.309   1.743  -4.671  0.00  0.00    +0.015 A 
ATOM     18  C   UNL     1      -3.225   2.299  -5.538  0.00  0.00    +0.033 A 
ATOM     19  C   UNL     1      -4.476   2.678  -5.079  0.00  0.00    +0.126 A 
ATOM     20  C   UNL     1      -4.815   2.501  -3.747  0.00  0.00    +0.033 A 
ATOM     21  C   UNL     1      -3.910   1.940  -2.871  0.00  0.00    +0.015 A 
BRANCH  19  22
ATOM     22  N   UNL     1      -5.455   3.275  -6.014  0.00  0.00    +0.056 N 
ATOM     23  O   UNL     1      -5.162   3.431  -7.177  0.00  0.00    -0.126 OA
ATOM     24  O   UNL     1      -6.547   3.607  -5.616  0.00  0.00    -0.126 OA
ENDBRANCH  19  22
ENDBRANCH  14  16
ENDBRANCH   2  14
BRANCH   1  25
ATOM     25  N   UNL     1       1.136  -1.450  -2.638  0.00  0.00    -0.308 N 
ATOM     26  H   UNL     1       0.786  -1.717  -3.502  0.00  0.00    +0.152 HD
BRANCH  25  27
ATOM     27  C   UNL     1       2.160  -2.189  -2.041  0.00  0.00    +0.032 A 
ATOM     28  C   UNL     1       2.696  -1.780  -0.826  0.00  0.00    +0.023 A 
ATOM     29  C   UNL     1       3.709  -2.513  -0.239  0.00  0.00    +0.002 A 
ATOM     30  C   UNL     1       4.189  -3.652  -0.858  0.00  0.00    +0.012 A 
ATOM     31  C   UNL     1       3.657  -4.062  -2.067  0.00  0.00    +0.057 A 
ATOM     32  C   UNL     1       2.640  -3.337  -2.657  0.00  0.00    +0.035 A 
BRANCH  31  33
ATOM     33  C   UNL     1       4.184  -5.304  -2.738  0.00  0.00    +0.417 C 
ATOM     34  F   UNL     1       5.198  -5.864  -1.954  0.00  0.00    -0.166 F 
ATOM     35  F   UNL     1       3.146  -6.229  -2.888  0.00  0.00    -0.166 F 
ATOM     36  F   UNL     1       4.697  -4.972  -3.997  0.00  0.00    -0.166 F 
ENDBRANCH  31  33
ENDBRANCH  25  27
ENDBRANCH   1  25
TORSDOF 8
