REMARK  Name = ZINC39843665
REMARK  8 active torsions:
REMARK  status: ('A' for Active; 'I' for Inactive)
REMARK    1  A    between atoms: C_2  and  C_3
REMARK    2  A    between atoms: C_3  and  N_4
REMARK    3  A    between atoms: C_7  and  C_21
REMARK    4  A    between atoms: N_11  and  C_12
REMARK    5  A    between atoms: C_15  and  C_18
REMARK    6  A    between atoms: C_21  and  C_22
REMARK    7  A    between atoms: N_24  and  C_25
REMARK    8  A    between atoms: C_29  and  C_31
REMARK                            x       y       z     vdW  Elec       q    Type
REMARK                         _______ _______ _______ _____ _____    ______ ____
ROOT
ATOM      1  N   UNL     1      -1.324  -1.687  -1.129  0.00  0.00    -0.246 N 
ATOM      2  C   UNL     1      -1.825  -1.274  -2.280  0.00  0.00    +0.235 C 
ATOM      3  O   UNL     1      -2.268  -0.155  -2.426  0.00  0.00    -0.274 OA
ATOM      4  C   UNL     1      -1.810  -2.292  -3.410  0.00  0.00    +0.149 C 
ATOM      5  S   UNL     1      -1.036  -3.724  -2.552  0.00  0.00    -0.077 S 
ATOM      6  C   UNL     1      -0.813  -2.954  -0.955  0.00  0.00    +0.164 C 
ATOM      7  N   UNL     1      -0.287  -3.476   0.132  0.00  0.00    -0.226 NA
ENDROOT
BRANCH   7   8
ATOM      8  C   UNL     1       0.171  -4.759   0.118  0.00  0.00    +0.067 A 
ATOM      9  C   UNL     1      -0.596  -5.770  -0.475  0.00  0.00    +0.028 A 
ATOM     10  C   UNL     1      -0.138  -7.054  -0.489  0.00  0.00    +0.017 A 
ATOM     11  C   UNL     1       1.100  -7.363   0.091  0.00  0.00    +0.063 A 
ATOM     12  C   UNL     1       1.867  -6.351   0.685  0.00  0.00    +0.017 A 
ATOM     13  C   UNL     1       1.411  -5.066   0.693  0.00  0.00    +0.028 A 
BRANCH  11  14
ATOM     14  C   UNL     1       1.594  -8.747   0.078  0.00  0.00    +0.387 C 
ATOM     15  O   UNL     1       0.924  -9.630  -0.441  0.00  0.00    -0.241 OA
ATOM     16  O   UNL     1       2.675  -9.016   0.584  0.00  0.00    -0.241 OA
ENDBRANCH  11  14
ENDBRANCH   7   8
BRANCH   1  17
ATOM     17  C   UNL     1      -1.305  -0.759   0.004  0.00  0.00    +0.142 C 
BRANCH  17  19
ATOM     18  C   UNL     1      -0.042   1.331  -0.004  0.00  0.00    +0.005 C 
ATOM     19  C   UNL     1      -0.015   0.021  -0.006  0.00  0.00    -0.015 C 
ENDBRANCH  17  19
ENDBRANCH   1  17
BRANCH   4  20
ATOM     20  C   UNL     1      -0.947  -1.811  -4.579  0.00  0.00    +0.120 C 
BRANCH  20  21
ATOM     21  C   UNL     1      -1.059  -2.787  -5.721  0.00  0.00    +0.219 C 
ATOM     22  O   UNL     1      -1.760  -3.771  -5.612  0.00  0.00    -0.275 OA
ATOM     23  N   UNL     1      -0.379  -2.568  -6.864  0.00  0.00    -0.285 N 
ATOM     24  H   UNL     1       0.128  -1.748  -6.977  0.00  0.00    +0.155 HD
BRANCH  23  25
ATOM     25  C   UNL     1      -0.406  -3.521  -7.888  0.00  0.00    +0.034 A 
ATOM     26  C   UNL     1       0.722  -3.734  -8.670  0.00  0.00    +0.023 A 
ATOM     27  C   UNL     1       0.693  -4.676  -9.679  0.00  0.00    +0.002 A 
ATOM     28  C   UNL     1      -0.458  -5.406  -9.913  0.00  0.00    +0.012 A 
ATOM     29  C   UNL     1      -1.583  -5.196  -9.136  0.00  0.00    +0.057 A 
ATOM     30  C   UNL     1      -1.558  -4.260  -8.121  0.00  0.00    +0.035 A 
BRANCH  29  31
ATOM     31  C   UNL     1      -2.835  -5.994  -9.395  0.00  0.00    +0.417 C 
ATOM     32  F   UNL     1      -2.616  -6.874 -10.460  0.00  0.00    -0.166 F 
ATOM     33  F   UNL     1      -3.168  -6.722  -8.248  0.00  0.00    -0.166 F 
ATOM     34  F   UNL     1      -3.883  -5.125  -9.716  0.00  0.00    -0.166 F 
ENDBRANCH  29  31
ENDBRANCH  23  25
ENDBRANCH  20  21
ENDBRANCH   4  20
TORSDOF 8
