REMARK  Name = ZINC40823293
REMARK  10 active torsions:
REMARK  status: ('A' for Active; 'I' for Inactive)
REMARK    1  A    between atoms: C_1  and  C_2
REMARK    2  A    between atoms: C_2  and  N_3
REMARK    3  A    between atoms: N_3  and  C_4
REMARK    4  A    between atoms: C_8  and  C_10
REMARK    5  A    between atoms: C_11  and  C_13
REMARK    6  A    between atoms: C_14  and  C_36
REMARK    7  A    between atoms: N_22  and  N_23
REMARK    8  A    between atoms: C_24  and  C_26
REMARK    9  A    between atoms: C_26  and  C_27
REMARK   10  A    between atoms: C_27  and  C_28
REMARK                            x       y       z     vdW  Elec       q    Type
REMARK                         _______ _______ _______ _____ _____    ______ ____
ROOT
ATOM      1  C   UNL     1      -1.543  -0.568  -2.103  0.00  0.00    +0.193 A 
ATOM      2  C   UNL     1      -2.437  -0.797  -3.111  0.00  0.00    +0.009 A 
ATOM      3  C   UNL     1      -3.692  -0.425  -2.614  0.00  0.00    +0.043 A 
ATOM      4  C   UNL     1      -3.505   0.020  -1.313  0.00  0.00    +0.115 A 
ATOM      5  O   UNL     1      -2.210  -0.084  -1.030  0.00  0.00    -0.454 OA
ATOM      6  C   UNL     1      -4.635   0.514  -0.447  0.00  0.00    +0.075 C 
ATOM      7  C   UNL     1      -5.814   0.920  -1.335  0.00  0.00    +0.014 C 
ATOM      8  C   UNL     1      -6.192  -0.219  -2.288  0.00  0.00    +0.058 C 
ATOM      9  C   UNL     1      -5.029  -0.453  -3.240  0.00  0.00    +0.074 C 
ATOM     10  N   UNL     1      -5.199  -0.661  -4.516  0.00  0.00    -0.150 NA
ATOM     11  C   UNL     1      -2.132  -1.341  -4.483  0.00  0.00    +0.048 C 
ENDROOT
BRANCH   1  13
ATOM     12  N   UNL     1       0.663  -0.664  -1.069  0.00  0.00    -0.265 N 
ATOM     13  C   UNL     1      -0.098  -0.812  -2.171  0.00  0.00    +0.286 C 
ATOM     14  O   UNL     1       0.414  -1.148  -3.223  0.00  0.00    -0.266 OA
BRANCH  12  15
ATOM     15  C   UNL     1       2.055  -0.765  -1.161  0.00  0.00    +0.037 A 
ATOM     16  C   UNL     1       2.830  -0.782  -0.008  0.00  0.00    +0.023 A 
ATOM     17  C   UNL     1       4.204  -0.882  -0.103  0.00  0.00    +0.002 A 
ATOM     18  C   UNL     1       4.809  -0.966  -1.344  0.00  0.00    +0.003 A 
ATOM     19  C   UNL     1       4.040  -0.949  -2.494  0.00  0.00    -0.049 A 
ATOM     20  C   UNL     1       2.665  -0.855  -2.405  0.00  0.00    +0.027 A 
ATOM     21  C   UNL     1       4.704  -1.040  -3.844  0.00  0.00    +0.044 C 
ENDBRANCH  12  15
BRANCH  12  23
ATOM     22  C   UNL     1      -0.138   1.111   0.410  0.00  0.00    +0.025 C 
ATOM     23  C   UNL     1       0.033  -0.398   0.227  0.00  0.00    +0.111 C 
ENDBRANCH  12  23
ENDBRANCH   1  13
BRANCH  10  24
ATOM     24  N   UNL     1      -6.492  -0.677  -5.057  0.00  0.00    -0.105 NA
ATOM     25  C   UNL     1      -6.662  -0.885  -6.331  0.00  0.00    +0.340 C 
ATOM     26  O   UNL     1      -5.594  -1.086  -7.131  0.00  0.00    -0.262 OA
BRANCH  25  27
ATOM     27  C   UNL     1      -8.053  -0.901  -6.912  0.00  0.00    +0.398 C 
ATOM     28  F   UNL     1      -8.258  -2.105  -7.596  0.00  0.00    -0.188 F 
ATOM     29  F   UNL     1      -8.991  -0.785  -5.881  0.00  0.00    -0.188 F 
BRANCH  27  30
ATOM     30  C   UNL     1      -8.214   0.270  -7.882  0.00  0.00    +0.412 C 
ATOM     31  F   UNL     1      -8.008   1.474  -7.199  0.00  0.00    -0.189 F 
ATOM     32  F   UNL     1      -7.276   0.154  -8.914  0.00  0.00    -0.189 F 
BRANCH  30  33
ATOM     33  C   UNL     1      -9.625   0.254  -8.473  0.00  0.00    +0.461 C 
ATOM     34  F   UNL     1     -10.563   0.370  -7.441  0.00  0.00    -0.165 F 
ATOM     35  F   UNL     1      -9.772   1.325  -9.360  0.00  0.00    -0.165 F 
ATOM     36  F   UNL     1      -9.830  -0.950  -9.156  0.00  0.00    -0.165 F 
ENDBRANCH  30  33
ENDBRANCH  27  30
ENDBRANCH  25  27
ENDBRANCH  10  24
TORSDOF 7
