REMARK  Name = ZINC12416322
REMARK  5 active torsions:
REMARK  status: ('A' for Active; 'I' for Inactive)
REMARK    1  A    between atoms: C_1  and  C_2
REMARK    2  A    between atoms: C_3  and  C_29
REMARK    3  A    between atoms: C_4  and  C_20
REMARK    4  A    between atoms: C_10  and  C_15
REMARK    5  A    between atoms: N_31  and  C_32
REMARK                            x       y       z     vdW  Elec       q    Type
REMARK                         _______ _______ _______ _____ _____    ______ ____
ROOT
ATOM      1  C   UNL     1       5.673   7.074   3.812  0.00  0.00    +0.061 C 
ATOM      2  C   UNL     1       4.889   7.018   2.526  0.00  0.00    +0.014 C 
ATOM      3  C   UNL     1       5.404   7.556   1.408  0.00  0.00    +0.043 C 
ATOM      4  C   UNL     1       4.649   7.526   0.111  0.00  0.00    +0.090 C 
ATOM      5  C   UNL     1       3.548   6.496   0.149  0.00  0.00    +0.024 C 
ATOM      6  C   UNL     1       3.105   6.004   1.326  0.00  0.00    +0.016 C 
ATOM      7  N   UNL     1       3.659   6.421   2.506  0.00  0.00    -0.321 N 
ATOM      8  C   UNL     1       1.995   4.984   1.372  0.00  0.00    +0.060 C 
ATOM      9  C   UNL     1       2.042   4.116   0.112  0.00  0.00    +0.039 C 
ATOM     10  C   UNL     1       1.913   5.025  -1.114  0.00  0.00    +0.088 C 
ATOM     11  C   UNL     1       3.000   6.063  -1.071  0.00  0.00    +0.162 C 
ATOM     12  O   UNL     1       3.415   6.534  -2.111  0.00  0.00    -0.292 OA
ATOM     13  H   UNL     1       3.104   6.272   3.444  0.00  0.00    +0.152 HD
ENDROOT
BRANCH   4  14
ATOM     14  C   UNL     1       4.048   8.884  -0.143  0.00  0.00    -0.032 A 
ATOM     15  C   UNL     1       3.126   9.407   0.744  0.00  0.00    +0.008 A 
ATOM     16  C   UNL     1       2.571  10.652   0.515  0.00  0.00    +0.050 A 
ATOM     17  C   UNL     1       2.940  11.380  -0.605  0.00  0.00    +0.166 A 
ATOM     18  C   UNL     1       3.869  10.854  -1.498  0.00  0.00    +0.167 A 
ATOM     19  C   UNL     1       4.425   9.607  -1.259  0.00  0.00    +0.054 A 
ATOM     20  O   UNL     1       4.063  11.752  -2.507  0.00  0.00    -0.453 OA
ATOM     21  C   UNL     1       3.552  13.004  -2.011  0.00  0.00    +0.466 C 
ATOM     22  O   UNL     1       2.550  12.609  -1.055  0.00  0.00    -0.453 OA
ENDBRANCH   4  14
BRANCH   9  23
ATOM     23  C   UNL     1       0.903   3.130   0.134  0.00  0.00    -0.006 A 
ATOM     24  C   UNL     1       0.946   1.775   0.111  0.00  0.00    +0.011 A 
ATOM     25  C   UNL     1      -0.240   1.066   0.138  0.00  0.00    +0.008 A 
ATOM     26  C   UNL     1      -1.412   1.746   0.182  0.00  0.00    +0.045 A 
ATOM     27  S   UNL     1      -0.854   3.442   0.197  0.00  0.00    -0.101 S 
ENDBRANCH   9  23
BRANCH   3  28
ATOM     28  C   UNL     1       6.683   8.162   1.454  0.00  0.00    +0.247 C 
ATOM     29  O   UNL     1       7.262   8.283   2.518  0.00  0.00    -0.270 OA
ATOM     30  N   UNL     1       7.261   8.603   0.319  0.00  0.00    -0.282 N 
ATOM     31  H   UNL     1       6.709   8.559  -0.632  0.00  0.00    +0.155 HD
BRANCH  30  32
ATOM     32  C   UNL     1       8.562   9.117   0.350  0.00  0.00    +0.034 A 
ATOM     33  C   UNL     1       8.995   9.847   1.449  0.00  0.00    +0.026 A 
ATOM     34  C   UNL     1      10.282  10.348   1.480  0.00  0.00    +0.040 A 
ATOM     35  C   UNL     1      11.135  10.134   0.411  0.00  0.00    +0.124 A 
ATOM     36  C   UNL     1      10.703   9.412  -0.689  0.00  0.00    +0.040 A 
ATOM     37  C   UNL     1       9.420   8.904  -0.721  0.00  0.00    +0.026 A 
ATOM     38  F   UNL     1      12.391  10.631   0.441  0.00  0.00    -0.205 F 
ENDBRANCH  30  32
ENDBRANCH   3  28
TORSDOF 4
