REMARK  Name = ZINC28198341
REMARK  9 active torsions:
REMARK  status: ('A' for Active; 'I' for Inactive)
REMARK    1  A    between atoms: C_1  and  C_2
REMARK    2  A    between atoms: C_5  and  S_9
REMARK    3  A    between atoms: C_6  and  C_8
REMARK    4  A    between atoms: S_9  and  C_10
REMARK    5  A    between atoms: C_13  and  N_16
REMARK    6  A    between atoms: N_16  and  S_17
REMARK    7  A    between atoms: S_17  and  C_20
REMARK    8  A    between atoms: C_22  and  C_26
REMARK    9  A    between atoms: N_23  and  C_25
REMARK                            x       y       z     vdW  Elec       q    Type
REMARK                         _______ _______ _______ _____ _____    ______ ____
ROOT
ATOM      1  C   UNL     1      -0.020  -5.146  -1.693  0.00  0.00    +0.013 A 
ATOM      2  C   UNL     1       0.067  -4.222  -2.726  0.00  0.00    +0.017 A 
ATOM      3  C   UNL     1       0.078  -4.652  -4.038  0.00  0.00    +0.028 A 
ATOM      4  C   UNL     1       0.002  -6.009  -4.324  0.00  0.00    +0.074 A 
ATOM      5  C   UNL     1      -0.085  -6.933  -3.291  0.00  0.00    +0.028 A 
ATOM      6  C   UNL     1      -0.090  -6.503  -1.979  0.00  0.00    +0.017 A 
ENDROOT
BRANCH   1   7
ATOM      7  S   UNL     1      -0.035  -4.597  -0.018  0.00  0.00    -0.089 S 
BRANCH   7  12
ATOM      8  C   UNL     1      -5.902  -4.288   1.366  0.00  0.00    +0.044 C 
ATOM      9  C   UNL     1      -4.437  -4.364   1.020  0.00  0.00    -0.050 A 
ATOM     10  C   UNL     1      -4.048  -4.663  -0.273  0.00  0.00    +0.004 A 
ATOM     11  C   UNL     1      -2.707  -4.735  -0.593  0.00  0.00    +0.015 A 
ATOM     12  C   UNL     1      -1.747  -4.506   0.386  0.00  0.00    +0.016 A 
ATOM     13  C   UNL     1      -2.142  -4.206   1.684  0.00  0.00    -0.036 A 
ATOM     14  C   UNL     1      -3.485  -4.131   1.996  0.00  0.00    +0.007 A 
ATOM     15  C   UNL     1      -1.105  -3.957   2.749  0.00  0.00    +0.045 C 
ENDBRANCH   7  12
ENDBRANCH   1   7
BRANCH   4  16
ATOM     16  N   UNL     1       0.014  -6.445  -5.654  0.00  0.00    -0.098 NA
BRANCH  16  17
ATOM     17  S   UNL     1      -0.076  -8.063  -5.996  0.00  0.00    +0.093 S 
ATOM     18  O   UNL     1       1.122  -8.649  -5.505  0.00  0.00    -0.148 OA
ATOM     19  O   UNL     1      -1.363  -8.495  -5.577  0.00  0.00    -0.148 OA
BRANCH  17  20
ATOM     20  C   UNL     1      -0.036  -8.228  -7.750  0.00  0.00    +0.128 A 
ATOM     21  C   UNL     1      -1.144  -8.229  -8.602  0.00  0.00    +0.061 A 
ATOM     22  C   UNL     1      -0.667  -8.382  -9.887  0.00  0.00    +0.106 A 
ATOM     23  N   UNL     1       0.704  -8.471  -9.812  0.00  0.00    -0.344 N 
ATOM     24  C   UNL     1       1.075  -8.370  -8.512  0.00  0.00    +0.115 A 
ATOM     25  C   UNL     1       1.613  -8.639 -10.949  0.00  0.00    +0.149 C 
BRANCH  22  26
ATOM     26  C   UNL     1      -1.474  -8.439 -11.110  0.00  0.00    +0.258 C 
ATOM     27  O   UNL     1      -0.942  -8.668 -12.180  0.00  0.00    -0.269 OA
ATOM     28  N   UNL     1      -2.806  -8.239 -11.049  0.00  0.00    -0.324 N 
ATOM     29  H   UNL     1      -3.220  -7.985 -10.210  0.00  0.00    +0.145 HD
ATOM     30  H   UNL     1      -3.350  -8.349 -11.845  0.00  0.00    +0.145 HD
ENDBRANCH  22  26
ENDBRANCH  17  20
ENDBRANCH  16  17
ENDBRANCH   4  16
TORSDOF 6
