REMARK  Name = ZINC64928186
REMARK  8 active torsions:
REMARK  status: ('A' for Active; 'I' for Inactive)
REMARK    1  A    between atoms: C_1  and  C_2
REMARK    2  A    between atoms: C_2  and  C_3
REMARK    3  A    between atoms: N_5  and  C_6
REMARK    4  A    between atoms: C_9  and  S_12
REMARK    5  A    between atoms: S_12  and  N_15
REMARK    6  A    between atoms: C_24  and  C_26
REMARK    7  A    between atoms: C_26  and  C_27
REMARK    8  A    between atoms: N_29  and  C_30
REMARK                            x       y       z     vdW  Elec       q    Type
REMARK                         _______ _______ _______ _____ _____    ______ ____
ROOT
ATOM      1  N   UNL     1      -7.326  -4.072  -2.558  0.00  0.00    -0.168 NA
ATOM      2  C   UNL     1      -7.881  -3.221  -3.624  0.00  0.00    +0.115 C 
ATOM      3  C   UNL     1      -7.022  -3.413  -4.872  0.00  0.00    +0.052 C 
ATOM      4  C   UNL     1      -6.786  -4.876  -5.141  0.00  0.00    -0.041 A 
ATOM      5  C   UNL     1      -6.407  -5.242  -6.427  0.00  0.00    +0.004 A 
ATOM      6  C   UNL     1      -6.166  -6.564  -6.738  0.00  0.00    +0.000 A 
ATOM      7  C   UNL     1      -6.300  -7.535  -5.763  0.00  0.00    +0.000 A 
ATOM      8  C   UNL     1      -6.678  -7.175  -4.486  0.00  0.00    +0.005 A 
ATOM      9  C   UNL     1      -6.927  -5.845  -4.174  0.00  0.00    -0.025 A 
ATOM     10  C   UNL     1      -7.358  -5.523  -2.769  0.00  0.00    +0.119 C 
ENDROOT
BRANCH   1  11
ATOM     11  S   UNL     1      -6.686  -3.416  -1.178  0.00  0.00    +0.061 S 
ATOM     12  O   UNL     1      -6.639  -4.461  -0.216  0.00  0.00    -0.153 OA
ATOM     13  O   UNL     1      -7.381  -2.198  -0.947  0.00  0.00    -0.153 OA
BRANCH  11  17
ATOM     14  C   UNL     1      -2.392  -2.304  -2.092  0.00  0.00    +0.033 A 
ATOM     15  C   UNL     1      -3.416  -1.406  -2.364  0.00  0.00    +0.025 A 
ATOM     16  C   UNL     1      -4.725  -1.748  -2.084  0.00  0.00    +0.030 A 
ATOM     17  C   UNL     1      -5.015  -2.983  -1.534  0.00  0.00    +0.106 A 
ATOM     18  C   UNL     1      -3.998  -3.879  -1.261  0.00  0.00    +0.030 A 
ATOM     19  C   UNL     1      -2.688  -3.545  -1.544  0.00  0.00    +0.025 A 
BRANCH  14  22
ATOM     20  C   UNL     1      -0.212  -2.893  -2.841  0.00  0.00    +0.217 C 
ATOM     21  O   UNL     1      -0.586  -4.037  -2.987  0.00  0.00    -0.275 OA
ATOM     22  N   UNL     1      -1.065  -1.960  -2.375  0.00  0.00    -0.286 N 
ATOM     23  H   UNL     1      -0.760  -1.050  -2.235  0.00  0.00    +0.155 HD
BRANCH  20  25
ATOM     24  C   UNL     1       1.957  -3.748  -3.684  0.00  0.00    +0.013 C 
ATOM     25  C   UNL     1       1.206  -2.514  -3.181  0.00  0.00    +0.093 C 
ENDBRANCH  20  25
ENDBRANCH  14  22
ENDBRANCH  11  17
ENDBRANCH   1  11
BRANCH  10  26
ATOM     26  C   UNL     1      -6.410  -6.202  -1.778  0.00  0.00    +0.121 C 
BRANCH  26  27
ATOM     27  C   UNL     1      -7.177  -6.604  -0.545  0.00  0.00    +0.219 C 
ATOM     28  O   UNL     1      -8.377  -6.436  -0.495  0.00  0.00    -0.275 OA
ATOM     29  N   UNL     1      -6.529  -7.151   0.503  0.00  0.00    -0.285 N 
ATOM     30  H   UNL     1      -5.560  -7.160   0.523  0.00  0.00    +0.155 HD
BRANCH  29  31
ATOM     31  C   UNL     1      -7.256  -7.705   1.563  0.00  0.00    +0.033 A 
ATOM     32  C   UNL     1      -6.717  -7.720   2.843  0.00  0.00    +0.025 A 
ATOM     33  C   UNL     1      -7.436  -8.267   3.888  0.00  0.00    +0.022 A 
ATOM     34  C   UNL     1      -8.693  -8.801   3.659  0.00  0.00    +0.041 A 
ATOM     35  C   UNL     1      -9.232  -8.788   2.385  0.00  0.00    +0.022 A 
ATOM     36  C   UNL     1      -8.519  -8.236   1.338  0.00  0.00    +0.025 A 
ATOM     37 CL   UNL     1      -9.594  -9.489   4.974  0.00  0.00    -0.084 Cl
ENDBRANCH  29  31
ENDBRANCH  26  27
ENDBRANCH  10  26
TORSDOF 7
