REMARK  Name = ZINC34762182
REMARK  11 active torsions:
REMARK  status: ('A' for Active; 'I' for Inactive)
REMARK    1  A    between atoms: C_1  and  C_2
REMARK    2  A    between atoms: C_2  and  C_3
REMARK    3  A    between atoms: C_4  and  C_32
REMARK    4  A    between atoms: C_8  and  N_17
REMARK    5  A    between atoms: C_10  and  S_12
REMARK    6  A    between atoms: S_12  and  C_13
REMARK    7  A    between atoms: C_13  and  C_14
REMARK    8  A    between atoms: N_20  and  C_23
REMARK    9  A    between atoms: C_23  and  C_24
REMARK   10  A    between atoms: C_27  and  C_31
REMARK   11  A    between atoms: C_29  and  C_30
REMARK                            x       y       z     vdW  Elec       q    Type
REMARK                         _______ _______ _______ _____ _____    ______ ____
ROOT
ATOM      1  C   UNL     1      -0.717   1.873   3.632  0.00  0.00    -0.025 A 
ATOM      2  C   UNL     1      -0.071   2.638   4.524  0.00  0.00    -0.007 A 
ATOM      3  S   UNL     1       0.860   1.461   5.486  0.00  0.00    -0.073 S 
ATOM      4  C   UNL     1       0.356  -0.028   4.665  0.00  0.00    +0.115 A 
ATOM      5  C   UNL     1      -0.529   0.432   3.665  0.00  0.00    +0.051 A 
ATOM      6  C   UNL     1      -1.099  -0.577   2.840  0.00  0.00    +0.134 A 
ATOM      7  N   UNL     1      -0.781  -1.843   3.053  0.00  0.00    -0.206 NA
ATOM      8  C   UNL     1       0.057  -2.208   4.016  0.00  0.00    +0.191 A 
ATOM      9  N   UNL     1       0.626  -1.310   4.809  0.00  0.00    -0.214 NA
ATOM     10  C   UNL     1      -0.120   4.137   4.676  0.00  0.00    +0.052 C 
ENDROOT
BRANCH   6  11
ATOM     11  N   UNL     1      -1.977  -0.237   1.827  0.00  0.00    -0.318 N 
ATOM     12  C   UNL     1      -1.495  -0.003   0.457  0.00  0.00    +0.088 C 
ATOM     13  C   UNL     1      -2.349  -0.834  -0.507  0.00  0.00    -0.059 C 
ATOM     14  N   UNL     1      -3.768  -0.517  -0.300  0.00  0.00    +0.384 N 
ATOM     15  C   UNL     1      -4.181  -0.927   1.048  0.00  0.00    -0.059 C 
ATOM     16  C   UNL     1      -3.419  -0.106   2.087  0.00  0.00    +0.088 C 
ATOM     17  H   UNL     1      -3.908   0.477  -0.406  0.00  0.00    -0.081 HD
BRANCH  14  18
ATOM     18  C   UNL     1      -4.577  -1.231  -1.297  0.00  0.00    -0.043 C 
BRANCH  18  19
ATOM     19  C   UNL     1      -6.019  -0.813  -1.166  0.00  0.00    -0.061 A 
ATOM     20  C   UNL     1      -6.913  -1.617  -0.484  0.00  0.00    +0.002 A 
ATOM     21  C   UNL     1      -8.235  -1.234  -0.364  0.00  0.00    +0.003 A 
ATOM     22  C   UNL     1      -8.664  -0.045  -0.925  0.00  0.00    -0.050 A 
ATOM     23  C   UNL     1      -7.770   0.760  -1.605  0.00  0.00    +0.007 A 
ATOM     24  C   UNL     1      -6.447   0.378  -1.722  0.00  0.00    -0.049 A 
ATOM     25  C   UNL     1      -5.471   1.259  -2.460  0.00  0.00    +0.044 C 
ATOM     26  C   UNL     1     -10.106   0.372  -0.794  0.00  0.00    +0.044 C 
ENDBRANCH  18  19
ENDBRANCH  14  18
ENDBRANCH   6  11
BRANCH   1  28
ATOM     27  C   UNL     1      -3.013   2.719   3.233  0.00  0.00    +0.009 C 
ATOM     28  C   UNL     1      -1.632   2.499   2.612  0.00  0.00    +0.033 C 
ENDBRANCH   1  28
BRANCH   8  29
ATOM     29  S   UNL     1       0.429  -3.916   4.235  0.00  0.00    -0.077 S 
BRANCH  29  30
ATOM     30  C   UNL     1       1.587  -3.936   5.631  0.00  0.00    +0.172 C 
BRANCH  30  31
ATOM     31  C   UNL     1       1.992  -5.357   5.928  0.00  0.00    +0.221 C 
ATOM     32  O   UNL     1       1.543  -6.267   5.263  0.00  0.00    -0.275 OA
ATOM     33  N   UNL     1       2.852  -5.617   6.932  0.00  0.00    -0.329 N 
ATOM     34  H   UNL     1       3.211  -4.890   7.464  0.00  0.00    +0.145 HD
ATOM     35  H   UNL     1       3.113  -6.532   7.123  0.00  0.00    +0.145 HD
ENDBRANCH  30  31
ENDBRANCH  29  30
ENDBRANCH   8  29
TORSDOF 7
