REMARK  Name = ZINC39684187
REMARK  11 active torsions:
REMARK  status: ('A' for Active; 'I' for Inactive)
REMARK    1  A    between atoms: C_1  and  C_2
REMARK    2  A    between atoms: C_7  and  C_11
REMARK    3  A    between atoms: C_11  and  C_12
REMARK    4  A    between atoms: C_12  and  N_13
REMARK    5  A    between atoms: C_14  and  C_16
REMARK    6  A    between atoms: C_27  and  C_29
REMARK    7  A    between atoms: C_32  and  C_39
REMARK    8  A    between atoms: N_34  and  C_35
REMARK    9  A    between atoms: C_35  and  C_36
REMARK   10  A    between atoms: C_35  and  C_37
REMARK   11  A    between atoms: C_35  and  C_38
REMARK                            x       y       z     vdW  Elec       q    Type
REMARK                         _______ _______ _______ _____ _____    ______ ____
ROOT
ATOM      1  C   UNL     1      -8.693   3.269  -7.782  0.00  0.00    +0.100 C 
ATOM      2  C   UNL     1      -9.521   3.538  -6.506  0.00  0.00    +0.121 C 
ATOM      3  N   UNL     1     -10.647   2.577  -6.582  0.00  0.00    -0.299 N 
ATOM      4  C   UNL     1     -10.037   1.335  -7.114  0.00  0.00    +0.115 C 
ATOM      5  C   UNL     1      -9.033   1.823  -8.178  0.00  0.00    -0.004 C 
ATOM      6  C   UNL     1      -7.777   0.958  -8.152  0.00  0.00    -0.010 C 
ATOM      7  C   UNL     1      -8.130  -0.462  -8.605  0.00  0.00    -0.082 C 
ATOM      8  N   UNL     1      -8.691  -0.419  -9.961  0.00  0.00    +0.379 N 
ATOM      9  C   UNL     1      -9.950   0.337  -9.958  0.00  0.00    -0.082 C 
ATOM     10  C   UNL     1      -9.674   1.790  -9.562  0.00  0.00    -0.010 C 
ATOM     11  C   UNL     1     -11.935   2.785  -6.244  0.00  0.00    +0.238 C 
ATOM     12  O   UNL     1     -12.746   1.891  -6.364  0.00  0.00    -0.273 OA
ATOM     13  H   UNL     1      -8.034   0.027 -10.582  0.00  0.00    -0.086 HD
ATOM     14  H   UNL     1      -8.866  -1.360 -10.280  0.00  0.00    -0.086 HD
ENDROOT
BRANCH  11  15
ATOM     15  C   UNL     1     -12.368   4.130  -5.718  0.00  0.00    +0.184 C 
ATOM     16  C   UNL     1     -12.154   4.211  -4.192  0.00  0.00    +0.085 C 
ATOM     17  C   UNL     1     -13.547   4.424  -3.644  0.00  0.00    +0.036 C 
ATOM     18  N   UNL     1     -14.383   4.461  -4.598  0.00  0.00    -0.192 NA
ATOM     19  N   UNL     1     -13.822   4.303  -5.868  0.00  0.00    -0.238 N 
ATOM     20  C   UNL     1     -13.890   4.570  -2.183  0.00  0.00    +0.062 C 
BRANCH  19  21
ATOM     21  C   UNL     1     -14.555   4.308  -7.136  0.00  0.00    +0.044 C 
ATOM     22  C   UNL     1     -13.601   3.954  -8.278  0.00  0.00    +0.033 C 
ATOM     23  C   UNL     1     -15.684   3.276  -7.077  0.00  0.00    +0.033 C 
ATOM     24  C   UNL     1     -15.147   5.698  -7.378  0.00  0.00    +0.033 C 
ENDBRANCH  19  21
ENDBRANCH  11  15
BRANCH   1  26
ATOM     25  N   UNL     1      -6.372   3.792  -8.461  0.00  0.00    -0.315 N 
ATOM     26  C   UNL     1      -7.221   3.401  -7.489  0.00  0.00    +0.218 C 
ATOM     27  O   UNL     1      -6.799   3.154  -6.379  0.00  0.00    -0.275 OA
ATOM     28  H   UNL     1      -6.709   3.989  -9.349  0.00  0.00    +0.149 HD
BRANCH  25  29
ATOM     29  C   UNL     1      -4.941   3.919  -8.176  0.00  0.00    +0.109 C 
BRANCH  29  30
ATOM     30  C   UNL     1      -4.208   4.375  -9.439  0.00  0.00    +0.056 C 
BRANCH  30  37
ATOM     31  C   UNL     1       1.961   3.863  -8.434  0.00  0.00    +0.046 C 
ATOM     32  C   UNL     1       0.636   3.244  -8.801  0.00  0.00    -0.027 A 
ATOM     33  C   UNL     1       0.559   1.900  -9.094  0.00  0.00    +0.005 A 
ATOM     34  C   UNL     1      -0.654   1.318  -9.434  0.00  0.00    +0.001 A 
ATOM     35  C   UNL     1      -1.794   2.069  -9.483  0.00  0.00    +0.010 A 
ATOM     36  C   UNL     1      -1.739   3.433  -9.190  0.00  0.00    +0.003 A 
ATOM     37  C   UNL     1      -2.736   4.506  -9.146  0.00  0.00    -0.021 A 
ATOM     38  C   UNL     1      -2.088   5.628  -8.796  0.00  0.00    +0.087 A 
ATOM     39  N   UNL     1      -0.758   5.362  -8.612  0.00  0.00    -0.360 N 
ATOM     40  C   UNL     1      -0.513   4.026  -8.839  0.00  0.00    +0.050 A 
ATOM     41  H   UNL     1      -0.089   6.016  -8.355  0.00  0.00    +0.165 HD
ENDBRANCH  30  37
ENDBRANCH  29  30
ENDBRANCH  25  29
ENDBRANCH   1  26
TORSDOF 6
