REMARK  Name = ZINC20923064
REMARK  8 active torsions:
REMARK  status: ('A' for Active; 'I' for Inactive)
REMARK    1  A    between atoms: C_2  and  C_3
REMARK    2  A    between atoms: C_3  and  N_4
REMARK    3  A    between atoms: C_5  and  C_24
REMARK    4  A    between atoms: C_8  and  S_9
REMARK    5  A    between atoms: S_9  and  C_10
REMARK    6  A    between atoms: C_10  and  C_11
REMARK    7  A    between atoms: N_13  and  N_14
REMARK    8  A    between atoms: C_15  and  C_17
REMARK                            x       y       z     vdW  Elec       q    Type
REMARK                         _______ _______ _______ _____ _____    ______ ____
ROOT
ATOM      1  S   UNL     1       1.028   3.696   1.779  0.00  0.00    -0.077 S 
ENDROOT
BRANCH   1   6
ATOM      2  N   UNL     1      -0.600   1.468   1.320  0.00  0.00    -0.298 N 
ATOM      3  C   UNL     1      -1.771   0.971   1.844  0.00  0.00    +0.165 A 
ATOM      4  N   UNL     1      -2.160   1.806   2.778  0.00  0.00    -0.128 NA
ATOM      5  N   UNL     1      -1.326   2.779   2.873  0.00  0.00    -0.122 NA
ATOM      6  C   UNL     1      -0.348   2.620   2.009  0.00  0.00    +0.193 A 
BRANCH   3   7
ATOM      7  C   UNL     1      -2.459  -0.271   1.433  0.00  0.00    +0.019 A 
ATOM      8  C   UNL     1      -2.179  -0.851   0.195  0.00  0.00    +0.012 A 
ATOM      9  C   UNL     1      -2.821  -2.012  -0.181  0.00  0.00    +0.016 A 
ATOM     10  C   UNL     1      -3.750  -2.597   0.662  0.00  0.00    +0.018 A 
ATOM     11  C   UNL     1      -4.037  -2.024   1.889  0.00  0.00    +0.016 A 
ATOM     12  C   UNL     1      -3.397  -0.865   2.279  0.00  0.00    +0.012 A 
ATOM     13 BR   UNL     1      -4.631  -4.185   0.136  0.00  0.00    -0.050 Br
ENDBRANCH   3   7
BRANCH   2  14
ATOM     14  C   UNL     1       0.211   0.882   0.250  0.00  0.00    +0.152 C 
BRANCH  14  16
ATOM     15  C   UNL     1       0.655   2.019  -1.864  0.00  0.00    +0.005 C 
ATOM     16  C   UNL     1      -0.223   1.448  -1.077  0.00  0.00    -0.013 C 
ENDBRANCH  14  16
ENDBRANCH   2  14
ENDBRANCH   1   6
BRANCH   1  17
ATOM     17  C   UNL     1       0.656   4.954   3.027  0.00  0.00    +0.174 C 
BRANCH  17  18
ATOM     18  C   UNL     1       1.731   6.010   3.012  0.00  0.00    +0.239 C 
ATOM     19  O   UNL     1       2.658   5.920   2.235  0.00  0.00    -0.273 OA
ATOM     20  N   UNL     1       1.663   7.053   3.863  0.00  0.00    -0.233 N 
ATOM     21  H   UNL     1       0.823   7.133   4.568  0.00  0.00    +0.173 HD
BRANCH  20  22
ATOM     22  N   UNL     1       2.663   8.034   3.849  0.00  0.00    -0.230 N 
ATOM     23  C   UNL     1       2.594   9.077   4.700  0.00  0.00    +0.260 C 
ATOM     24  O   UNL     1       1.666   9.166   5.479  0.00  0.00    -0.269 OA
ATOM     25  H   UNL     1       3.503   7.953   3.144  0.00  0.00    +0.173 HD
BRANCH  23  26
ATOM     26  C   UNL     1       3.649  10.113   4.686  0.00  0.00    +0.038 A 
ATOM     27  C   UNL     1       4.720  10.010   3.796  0.00  0.00    +0.014 A 
ATOM     28  C   UNL     1       5.697  10.982   3.783  0.00  0.00    +0.021 A 
ATOM     29  C   UNL     1       5.625  12.053   4.658  0.00  0.00    +0.041 A 
ATOM     30  C   UNL     1       4.568  12.157   5.547  0.00  0.00    +0.021 A 
ATOM     31  C   UNL     1       3.581  11.194   5.566  0.00  0.00    +0.014 A 
ATOM     32 CL   UNL     1       6.863  13.270   4.641  0.00  0.00    -0.084 Cl
ENDBRANCH  23  26
ENDBRANCH  20  22
ENDBRANCH  17  18
ENDBRANCH   1  17
TORSDOF 8
