REMARK  Name = ZINC51730211
REMARK  6 active torsions:
REMARK  status: ('A' for Active; 'I' for Inactive)
REMARK    1  A    between atoms: C_1  and  C_2
REMARK    2  A    between atoms: N_6  and  C_11
REMARK    3  A    between atoms: C_7  and  C_10
REMARK    4  A    between atoms: C_14  and  S_18
REMARK    5  A    between atoms: C_16  and  N_17
REMARK    6  A    between atoms: S_18  and  N_21
REMARK                            x       y       z     vdW  Elec       q    Type
REMARK                         _______ _______ _______ _____ _____    ______ ____
ROOT
ATOM      1  C   UNL     1       2.345  -3.439  -0.038  0.00  0.00    +0.051 A 
ATOM      2  C   UNL     1       3.655  -2.985  -0.043  0.00  0.00    +0.027 A 
ATOM      3  C   UNL     1       4.701  -3.890  -0.057  0.00  0.00    +0.030 A 
ATOM      4  C   UNL     1       4.444  -5.249  -0.067  0.00  0.00    +0.107 A 
ATOM      5  C   UNL     1       3.141  -5.710  -0.063  0.00  0.00    +0.053 A 
ATOM      6  C   UNL     1       2.086  -4.810  -0.043  0.00  0.00    +0.048 A 
ENDROOT
BRANCH   1  11
ATOM      7  C   UNL     1      -0.019   1.526   0.010  0.00  0.00    +0.007 C 
ATOM      8  C   UNL     1       0.002  -0.004   0.002  0.00  0.00    -0.011 C 
ATOM      9  C   UNL     1       0.718  -0.497  -1.258  0.00  0.00    +0.022 C 
ATOM     10  C   UNL     1       0.706  -2.029  -1.280  0.00  0.00    +0.106 C 
ATOM     11  N   UNL     1       1.285  -2.525  -0.024  0.00  0.00    -0.326 N 
ATOM     12  C   UNL     1       0.730  -2.043   1.248  0.00  0.00    +0.071 C 
ATOM     13  C   UNL     1       0.742  -0.511   1.242  0.00  0.00    +0.025 C 
ATOM     14  C   UNL     1      -0.706  -2.547   1.406  0.00  0.00    +0.028 C 
ENDBRANCH   1  11
BRANCH   6  15
ATOM     15  N   UNL     1       0.766  -5.275  -0.034  0.00  0.00    -0.356 N 
ATOM     16  H   UNL     1       0.029  -4.644  -0.024  0.00  0.00    +0.142 HD
ATOM     17  H   UNL     1       0.587  -6.229  -0.037  0.00  0.00    +0.142 HD
ENDBRANCH   6  15
BRANCH   4  18
ATOM     18  S   UNL     1       5.782  -6.395  -0.086  0.00  0.00    +0.056 S 
ATOM     19  O   UNL     1       5.276  -7.600  -0.644  0.00  0.00    -0.153 OA
ATOM     20  O   UNL     1       6.897  -5.709  -0.638  0.00  0.00    -0.153 OA
BRANCH  18  21
ATOM     21  N   UNL     1       6.164  -6.727   1.491  0.00  0.00    -0.204 NA
ATOM     22  H   UNL     1       5.668  -6.305   2.209  0.00  0.00    +0.144 HD
ATOM     23  H   UNL     1       6.884  -7.345   1.696  0.00  0.00    +0.144 HD
ENDBRANCH  18  21
ENDBRANCH   4  18
TORSDOF 4
