REMARK  Name = ZINC04476910
REMARK  5 active torsions:
REMARK  status: ('A' for Active; 'I' for Inactive)
REMARK    1  A    between atoms: C_6  and  C_7
REMARK    2  A    between atoms: N_9  and  C_17
REMARK    3  A    between atoms: C_10  and  C_12
REMARK    4  A    between atoms: C_10  and  O_16
REMARK    5  A    between atoms: C_17  and  N_19
REMARK                            x       y       z     vdW  Elec       q    Type
REMARK                         _______ _______ _______ _____ _____    ______ ____
ROOT
ATOM      1  C   UNL     1       1.619  -0.499  -0.127  0.00  0.00    +0.071 C 
ATOM      2  N   UNL     1       0.366  -0.223  -0.011  0.00  0.00    -0.179 NA
ATOM      3  N   UNL     1       0.093   1.137   0.117  0.00  0.00    -0.164 N 
ATOM      4  C   UNL     1       1.361   1.883   0.081  0.00  0.00    +0.256 C 
ATOM      5  C   UNL     1       2.424   0.780  -0.086  0.00  0.00    +0.124 C 
ENDROOT
BRANCH   1  11
ATOM      6  C   UNL     1       3.562  -2.031  -0.400  0.00  0.00    +0.011 A 
ATOM      7  C   UNL     1       4.082  -3.301  -0.534  0.00  0.00    +0.020 A 
ATOM      8  C   UNL     1       3.238  -4.399  -0.557  0.00  0.00    +0.041 A 
ATOM      9  C   UNL     1       1.868  -4.230  -0.441  0.00  0.00    +0.020 A 
ATOM     10  C   UNL     1       1.336  -2.966  -0.301  0.00  0.00    +0.011 A 
ATOM     11  C   UNL     1       2.182  -1.854  -0.277  0.00  0.00    -0.002 A 
ATOM     12 CL   UNL     1       3.900  -5.994  -0.733  0.00  0.00    -0.084 Cl
ENDBRANCH   1  11
BRANCH   4  13
ATOM     13  C   UNL     1       1.576   2.644   1.391  0.00  0.00    +0.438 C 
ATOM     14  F   UNL     1       1.444   1.762   2.469  0.00  0.00    -0.166 F 
ATOM     15  F   UNL     1       2.857   3.204   1.400  0.00  0.00    -0.166 F 
ATOM     16  F   UNL     1       0.621   3.661   1.502  0.00  0.00    -0.166 F 
ENDBRANCH   4  13
BRANCH   4  17
ATOM     17  O   UNL     1       1.385   2.779  -1.032  0.00  0.00    -0.363 OA
ATOM     18  H   UNL     1       0.692   3.453  -1.011  0.00  0.00    +0.212 HD
ENDBRANCH   4  17
BRANCH   3  19
ATOM     19  C   UNL     1      -1.133   1.682   0.248  0.00  0.00    +0.153 C 
ATOM     20  S   UNL     1      -1.304   3.376   0.421  0.00  0.00    -0.017 S 
BRANCH  19  21
ATOM     21  N   UNL     1      -2.225   0.892   0.242  0.00  0.00    -0.339 N 
ATOM     22  H   UNL     1      -2.129  -0.069   0.144  0.00  0.00    +0.144 HD
ATOM     23  H   UNL     1      -3.108   1.283   0.336  0.00  0.00    +0.144 HD
ENDBRANCH  19  21
ENDBRANCH   3  19
TORSDOF 5
