REMARK  Name = ZINC33264252
REMARK  7 active torsions:
REMARK  status: ('A' for Active; 'I' for Inactive)
REMARK    1  A    between atoms: C_1  and  C_2
REMARK    2  A    between atoms: C_7  and  N_8
REMARK    3  A    between atoms: C_9  and  C_11
REMARK    4  A    between atoms: C_15  and  C_17
REMARK    5  A    between atoms: N_26  and  C_27
REMARK    6  A    between atoms: C_27  and  C_28
REMARK    7  A    between atoms: C_27  and  C_29
REMARK                            x       y       z     vdW  Elec       q    Type
REMARK                         _______ _______ _______ _____ _____    ______ ____
ROOT
ATOM      1  C   UNL     1       1.282   3.450   0.057  0.00  0.00    +0.037 A 
ATOM      2  C   UNL     1       0.127   4.224   0.182  0.00  0.00    +0.013 A 
ATOM      3  C   UNL     1       0.230   5.593   0.314  0.00  0.00    +0.001 A 
ATOM      4  C   UNL     1       1.473   6.201   0.310  0.00  0.00    +0.004 A 
ATOM      5  C   UNL     1       2.621   5.440   0.180  0.00  0.00    -0.042 A 
ATOM      6  C   UNL     1       2.533   4.069   0.054  0.00  0.00    +0.017 A 
ENDROOT
BRANCH   5   7
ATOM      7  C   UNL     1       3.971   6.110   0.178  0.00  0.00    +0.036 C 
ATOM      8  C   UNL     1       4.048   7.098  -0.988  0.00  0.00    +0.011 C 
ATOM      9  C   UNL     1       5.430   7.755  -1.011  0.00  0.00    +0.020 C 
ATOM     10  C   UNL     1       5.645   8.529   0.293  0.00  0.00    +0.109 C 
ATOM     11  N   UNL     1       5.430   7.617   1.425  0.00  0.00    -0.285 N 
ATOM     12  C   UNL     1       4.170   6.865   1.496  0.00  0.00    +0.117 C 
ATOM     13  C   UNL     1       6.370   7.473   2.380  0.00  0.00    +0.302 C 
ATOM     14  O   UNL     1       7.367   8.168   2.360  0.00  0.00    -0.253 OA
ATOM     15  N   UNL     1       6.204   6.559   3.357  0.00  0.00    -0.297 N 
ATOM     16  H   UNL     1       5.265   5.990   3.423  0.00  0.00    +0.150 HD
BRANCH  15  17
ATOM     17  C   UNL     1       7.274   6.325   4.329  0.00  0.00    +0.068 C 
ATOM     18  C   UNL     1       7.163   7.343   5.465  0.00  0.00    +0.027 C 
ATOM     19  C   UNL     1       7.145   4.910   4.898  0.00  0.00    +0.027 C 
ENDBRANCH  15  17
ENDBRANCH   5   7
BRANCH   1  21
ATOM     20  N   UNL     1      -0.029   1.387  -0.075  0.00  0.00    -0.281 N 
ATOM     21  C   UNL     1       1.180   1.981  -0.079  0.00  0.00    +0.248 C 
ATOM     22  O   UNL     1       2.187   1.310  -0.193  0.00  0.00    -0.270 OA
ATOM     23  H   UNL     1      -0.943   1.998  -0.047  0.00  0.00    +0.155 HD
BRANCH  20  30
ATOM     24  C   UNL     1      -2.161   0.149   1.346  0.00  0.00    +0.045 C 
ATOM     25  C   UNL     1      -1.148  -0.653   0.571  0.00  0.00    -0.029 A 
ATOM     26  C   UNL     1      -1.237  -2.031   0.537  0.00  0.00    +0.005 A 
ATOM     27  C   UNL     1      -0.307  -2.768  -0.173  0.00  0.00    +0.000 A 
ATOM     28  C   UNL     1       0.715  -2.129  -0.851  0.00  0.00    +0.002 A 
ATOM     29  C   UNL     1       0.807  -0.751  -0.825  0.00  0.00    +0.023 A 
ATOM     30  C   UNL     1      -0.123  -0.008  -0.108  0.00  0.00    +0.037 A 
ENDBRANCH  20  30
ENDBRANCH   1  21
TORSDOF 4
