REMARK  Name = ZINC13398013
REMARK  6 active torsions:
REMARK  status: ('A' for Active; 'I' for Inactive)
REMARK    1  A    between atoms: C_3  and  N_28
REMARK    2  A    between atoms: C_6  and  C_7
REMARK    3  A    between atoms: N_9  and  C_10
REMARK    4  A    between atoms: C_13  and  S_16
REMARK    5  A    between atoms: S_16  and  N_19
REMARK    6  A    between atoms: C_23  and  C_26
REMARK                            x       y       z     vdW  Elec       q    Type
REMARK                         _______ _______ _______ _____ _____    ______ ____
ROOT
ATOM      1  C   UNL     1       5.859  -0.672   0.110  0.00  0.00    +0.034 A 
ATOM      2  C   UNL     1       5.758  -2.056   0.047  0.00  0.00    +0.025 A 
ATOM      3  C   UNL     1       6.888  -2.836   0.199  0.00  0.00    +0.030 A 
ATOM      4  C   UNL     1       8.116  -2.242   0.424  0.00  0.00    +0.106 A 
ATOM      5  C   UNL     1       8.218  -0.864   0.493  0.00  0.00    +0.030 A 
ATOM      6  C   UNL     1       7.093  -0.078   0.337  0.00  0.00    +0.025 A 
ENDROOT
BRANCH   1   9
ATOM      7  C   UNL     1       4.809   1.317  -0.663  0.00  0.00    +0.248 C 
ATOM      8  O   UNL     1       5.860   1.664  -1.167  0.00  0.00    -0.270 OA
ATOM      9  N   UNL     1       4.718   0.121  -0.049  0.00  0.00    -0.282 N 
ATOM     10  H   UNL     1       3.861  -0.190   0.283  0.00  0.00    +0.155 HD
BRANCH   7  16
ATOM     11  C   UNL     1       3.726   3.448  -1.361  0.00  0.00    +0.015 A 
ATOM     12  C   UNL     1       2.627   4.275  -1.416  0.00  0.00    +0.024 A 
ATOM     13  C   UNL     1       1.425   3.877  -0.840  0.00  0.00    +0.036 A 
ATOM     14  C   UNL     1       1.329   2.642  -0.206  0.00  0.00    +0.024 A 
ATOM     15  C   UNL     1       2.424   1.810  -0.146  0.00  0.00    +0.015 A 
ATOM     16  C   UNL     1       3.633   2.207  -0.724  0.00  0.00    +0.037 A 
BRANCH  13  17
ATOM     17  N   UNL     1       0.315   4.719  -0.894  0.00  0.00    -0.271 N 
ATOM     18  C   UNL     1       0.338   6.086  -1.428  0.00  0.00    +0.114 C 
ATOM     19  C   UNL     1      -0.946   6.759  -0.894  0.00  0.00    +0.029 C 
ATOM     20  C   UNL     1      -1.869   5.540  -0.664  0.00  0.00    +0.098 C 
ATOM     21  C   UNL     1      -0.915   4.382  -0.469  0.00  0.00    +0.220 C 
ATOM     22  O   UNL     1      -1.215   3.307   0.006  0.00  0.00    -0.275 OA
ENDBRANCH  13  17
ENDBRANCH   7  16
ENDBRANCH   1   9
BRANCH   4  23
ATOM     23  S   UNL     1       9.553  -3.241   0.625  0.00  0.00    +0.061 S 
ATOM     24  O   UNL     1       9.283  -4.476  -0.025  0.00  0.00    -0.153 OA
ATOM     25  O   UNL     1      10.665  -2.426   0.282  0.00  0.00    -0.153 OA
BRANCH  23  26
ATOM     26  N   UNL     1       9.694  -3.577   2.241  0.00  0.00    -0.176 NA
ATOM     27  C   UNL     1      10.464  -2.693   3.125  0.00  0.00    +0.109 C 
ATOM     28  C   UNL     1       9.570  -2.283   4.305  0.00  0.00    +0.018 C 
ATOM     29  C   UNL     1       9.030  -3.541   4.990  0.00  0.00    +0.017 C 
ATOM     30  C   UNL     1       8.182  -4.340   3.998  0.00  0.00    +0.118 C 
ATOM     31  C   UNL     1       9.056  -4.770   2.815  0.00  0.00    +0.124 C 
BRANCH  30  32
ATOM     32  C   UNL     1       7.625  -5.561   4.682  0.00  0.00    +0.360 C 
ATOM     33  O   UNL     1       7.898  -6.663   4.268  0.00  0.00    -0.246 OA
ATOM     34  O   UNL     1       6.826  -5.426   5.752  0.00  0.00    -0.246 OA
ENDBRANCH  30  32
ENDBRANCH  23  26
ENDBRANCH   4  23
TORSDOF 6
