REMARK  Name = ZINC08185779
REMARK  9 active torsions:
REMARK  status: ('A' for Active; 'I' for Inactive)
REMARK    1  A    between atoms: C_1  and  C_2
REMARK    2  A    between atoms: C_2  and  C_4
REMARK    3  A    between atoms: C_2  and  N_54
REMARK    4  A    between atoms: C_9  and  C_11
REMARK    5  A    between atoms: C_9  and  C_12
REMARK    6  A    between atoms: C_9  and  N_54
REMARK    7  A    between atoms: N_14  and  C_15
REMARK    8  A    between atoms: C_18  and  S_21
REMARK    9  A    between atoms: S_21  and  N_24
REMARK                            x       y       z     vdW  Elec       q    Type
REMARK                         _______ _______ _______ _____ _____    ______ ____
ROOT
ATOM      1  C   UNL     1      -2.326   1.271   0.553  0.00  0.00    +0.203 C 
ATOM      2  O   UNL     1      -2.349   0.168   1.057  0.00  0.00    -0.277 OA
ATOM      3  N   UNL     1      -1.167   1.773   0.083  0.00  0.00    -0.287 N 
ATOM      4  H   UNL     1      -1.133   2.683  -0.252  0.00  0.00    +0.155 HD
ENDROOT
BRANCH   3   5
ATOM      5  C   UNL     1      -0.013   0.981   0.078  0.00  0.00    +0.033 A 
ATOM      6  C   UNL     1       1.233   1.566   0.265  0.00  0.00    +0.025 A 
ATOM      7  C   UNL     1       2.370   0.783   0.254  0.00  0.00    +0.030 A 
ATOM      8  C   UNL     1       2.270  -0.582   0.056  0.00  0.00    +0.106 A 
ATOM      9  C   UNL     1       1.031  -1.167  -0.131  0.00  0.00    +0.030 A 
ATOM     10  C   UNL     1      -0.110  -0.390  -0.121  0.00  0.00    +0.025 A 
BRANCH   8  11
ATOM     11  S   UNL     1       3.724  -1.578   0.043  0.00  0.00    +0.061 S 
ATOM     12  O   UNL     1       4.708  -0.869   0.784  0.00  0.00    -0.153 OA
ATOM     13  O   UNL     1       3.316  -2.896   0.383  0.00  0.00    -0.153 OA
BRANCH  11  14
ATOM     14  N   UNL     1       4.261  -1.638  -1.522  0.00  0.00    -0.177 NA
ATOM     15  C   UNL     1       3.803  -2.697  -2.431  0.00  0.00    +0.109 C 
ATOM     16  C   UNL     1       3.238  -2.041  -3.700  0.00  0.00    +0.017 C 
ATOM     17  C   UNL     1       4.295  -1.112  -4.301  0.00  0.00    +0.003 C 
ATOM     18  C   UNL     1       4.635  -0.006  -3.298  0.00  0.00    +0.017 C 
ATOM     19  C   UNL     1       5.211  -0.636  -2.026  0.00  0.00    +0.109 C 
ENDBRANCH  11  14
ENDBRANCH   8  11
ENDBRANCH   3   5
BRANCH   1  20
ATOM     20  C   UNL     1      -3.593   2.080   0.453  0.00  0.00    +0.014 C 
ATOM     21  C   UNL     1      -3.422   3.394   1.218  0.00  0.00    -0.004 C 
BRANCH  20  22
ATOM     22  N   UNL     1      -4.711   1.319   1.041  0.00  0.00    +0.391 N 
ATOM     23  H   UNL     1      -4.364   0.763   1.831  0.00  0.00    -0.084 HD
ATOM     24  H   UNL     1      -5.429   1.974   1.373  0.00  0.00    -0.084 HD
BRANCH  22  26
ATOM     25  C   UNL     1      -6.343   1.182  -0.787  0.00  0.00    -0.008 C 
ATOM     26  C   UNL     1      -5.303   0.417   0.035  0.00  0.00    -0.036 C 
BRANCH  26  27
ATOM     27  C   UNL     1      -5.968  -0.738   0.736  0.00  0.00    -0.024 A 
ATOM     28  C   UNL     1      -5.992  -2.048   0.389  0.00  0.00    +0.009 A 
ATOM     29  C   UNL     1      -6.671  -2.943   1.195  0.00  0.00    +0.008 A 
ATOM     30  C   UNL     1      -7.301  -2.483   2.303  0.00  0.00    +0.045 A 
ATOM     31  S   UNL     1      -6.937  -0.736   2.236  0.00  0.00    -0.103 S 
ENDBRANCH  26  27
ENDBRANCH  22  26
ENDBRANCH  20  22
ENDBRANCH   1  20
TORSDOF 7
