REMARK  Name = ZINC58908331
REMARK  7 active torsions:
REMARK  status: ('A' for Active; 'I' for Inactive)
REMARK    1  A    between atoms: C_1  and  O_2
REMARK    2  A    between atoms: O_2  and  C_3
REMARK    3  A    between atoms: C_3  and  C_5
REMARK    4  A    between atoms: C_9  and  N_10
REMARK    5  A    between atoms: C_11  and  C_13
REMARK    6  A    between atoms: C_17  and  N_19
REMARK    7  A    between atoms: C_20  and  C_22
REMARK                            x       y       z     vdW  Elec       q    Type
REMARK                         _______ _______ _______ _____ _____    ______ ____
ROOT
ATOM      1  N   UNL     1      -1.651  -2.356   2.042  0.00  0.00    -0.275 N 
ATOM      2  C   UNL     1      -2.514  -3.221   2.611  0.00  0.00    +0.249 C 
ATOM      3  O   UNL     1      -2.383  -4.416   2.433  0.00  0.00    -0.270 OA
ATOM      4  H   UNL     1      -1.756  -1.402   2.183  0.00  0.00    +0.156 HD
ENDROOT
BRANCH   1   9
ATOM      5  C   UNL     1       0.361  -2.097   0.598  0.00  0.00    +0.091 A 
ATOM      6  C   UNL     1       1.353  -2.838  -0.168  0.00  0.00    -0.021 A 
ATOM      7  C   UNL     1       1.178  -4.176  -0.140  0.00  0.00    -0.004 A 
ATOM      8  S   UNL     1      -0.249  -4.424   0.879  0.00  0.00    -0.077 S 
ATOM      9  C   UNL     1      -0.614  -2.830   1.256  0.00  0.00    +0.087 A 
ATOM     10  C   UNL     1       2.000  -5.220  -0.829  0.00  0.00    +0.043 C 
ATOM     11  C   UNL     1       3.486  -4.957  -0.550  0.00  0.00    +0.005 C 
ATOM     12  C   UNL     1       4.026  -4.024  -1.630  0.00  0.00    +0.001 C 
ATOM     13  C   UNL     1       2.937  -3.054  -2.082  0.00  0.00    +0.005 C 
ATOM     14  C   UNL     1       2.494  -2.169  -0.920  0.00  0.00    +0.037 C 
BRANCH   5  15
ATOM     15  C   UNL     1       0.394  -0.635   0.673  0.00  0.00    +0.342 C 
ATOM     16  O   UNL     1       1.027  -0.086   1.556  0.00  0.00    -0.245 OA
BRANCH  15  18
ATOM     17  C   UNL     1      -0.199   1.524  -0.101  0.00  0.00    +0.280 C 
ATOM     18  O   UNL     1      -0.276   0.103  -0.235  0.00  0.00    -0.464 OA
ENDBRANCH  15  18
ENDBRANCH   5  15
ENDBRANCH   1   9
BRANCH   2  19
ATOM     19  C   UNL     1      -3.621  -2.715   3.450  0.00  0.00    +0.039 A 
ATOM     20  C   UNL     1      -3.778  -1.342   3.650  0.00  0.00    +0.013 A 
ATOM     21  C   UNL     1      -4.812  -0.873   4.433  0.00  0.00    +0.003 A 
ATOM     22  C   UNL     1      -5.696  -1.758   5.022  0.00  0.00    +0.023 A 
ATOM     23  C   UNL     1      -5.549  -3.126   4.830  0.00  0.00    +0.034 A 
ATOM     24  C   UNL     1      -4.516  -3.607   4.039  0.00  0.00    +0.036 A 
BRANCH  23  25
ATOM     25  N   UNL     1      -6.446  -4.018   5.428  0.00  0.00    -0.283 N 
ATOM     26  C   UNL     1      -6.020  -5.230   5.835  0.00  0.00    +0.246 C 
ATOM     27  O   UNL     1      -4.843  -5.513   5.771  0.00  0.00    -0.273 OA
ATOM     28  H   UNL     1      -7.374  -3.763   5.551  0.00  0.00    +0.155 HD
BRANCH  26  29
ATOM     29  C   UNL     1      -7.008  -6.234   6.371  0.00  0.00    +0.204 C 
ATOM     30  C   UNL     1      -7.975  -6.689   5.249  0.00  0.00    +0.043 C 
ATOM     31  C   UNL     1      -8.409  -8.082   5.780  0.00  0.00    +0.031 C 
ATOM     32  C   UNL     1      -7.128  -8.578   6.484  0.00  0.00    +0.161 C 
ATOM     33  O   UNL     1      -6.328  -7.428   6.789  0.00  0.00    -0.367 OA
ENDBRANCH  26  29
ENDBRANCH  23  25
ENDBRANCH   2  19
TORSDOF 6
