REMARK  Name = ZINC08712472
REMARK  14 active torsions:
REMARK  status: ('A' for Active; 'I' for Inactive)
REMARK    1  A    between atoms: C_1  and  C_2
REMARK    2  A    between atoms: C_4  and  C_45
REMARK    3  A    between atoms: C_6  and  S_8
REMARK    4  A    between atoms: S_8  and  C_9
REMARK    5  A    between atoms: C_9  and  C_10
REMARK    6  A    between atoms: N_12  and  C_13
REMARK    7  A    between atoms: N_12  and  C_25
REMARK    8  A    between atoms: C_13  and  C_14
REMARK    9  A    between atoms: C_16  and  C_19
REMARK   10  A    between atoms: C_25  and  C_27
REMARK   11  A    between atoms: C_25  and  C_34
REMARK   12  A    between atoms: N_36  and  C_37
REMARK   13  A    between atoms: C_40  and  O_43
REMARK   14  A    between atoms: O_43  and  C_44
REMARK                            x       y       z     vdW  Elec       q    Type
REMARK                         _______ _______ _______ _____ _____    ______ ____
ROOT
ATOM      1  C   UNL     1      -6.164   2.234  -1.312  0.00  0.00    +0.227 C 
ATOM      2  O   UNL     1      -5.756   2.989  -0.455  0.00  0.00    -0.275 OA
ATOM      3  N   UNL     1      -6.573   0.994  -0.978  0.00  0.00    -0.283 N 
ENDROOT
BRANCH   1   4
ATOM      4  C   UNL     1      -6.214   2.682  -2.750  0.00  0.00    +0.173 C 
BRANCH   4   5
ATOM      5  S   UNL     1      -5.462   4.322  -2.896  0.00  0.00    -0.077 S 
BRANCH   5  11
ATOM      6  C   UNL     1      -7.046   2.761  -7.506  0.00  0.00    +0.066 C 
ATOM      7  C   UNL     1      -6.386   3.828  -6.670  0.00  0.00    +0.043 A 
ATOM      8  C   UNL     1      -5.937   5.001  -7.258  0.00  0.00    +0.046 A 
ATOM      9  C   UNL     1      -5.336   5.957  -6.454  0.00  0.00    +0.043 A 
ATOM     10  N   UNL     1      -5.210   5.723  -5.158  0.00  0.00    -0.227 NA
ATOM     11  C   UNL     1      -5.650   4.591  -4.627  0.00  0.00    +0.189 A 
ATOM     12  N   UNL     1      -6.224   3.655  -5.369  0.00  0.00    -0.227 NA
ATOM     13  C   UNL     1      -4.832   7.246  -7.049  0.00  0.00    +0.066 C 
ENDBRANCH   5  11
ENDBRANCH   4   5
ENDBRANCH   1   4
BRANCH   3  14
ATOM     14  C   UNL     1      -6.421   0.518   0.399  0.00  0.00    +0.171 C 
BRANCH  14  15
ATOM     15  C   UNL     1      -5.037  -0.047   0.586  0.00  0.00    +0.096 A 
ATOM     16  N   UNL     1      -3.923   0.586   0.862  0.00  0.00    -0.242 NA
ATOM     17  C   UNL     1      -2.775  -0.061   0.991  0.00  0.00    +0.078 A 
ATOM     18  C   UNL     1      -2.785  -1.421   0.839  0.00  0.00    +0.075 A 
ATOM     19  S   UNL     1      -4.516  -1.701   0.497  0.00  0.00    -0.078 S 
BRANCH  17  20
ATOM     20  C   UNL     1      -1.518   0.665   1.298  0.00  0.00    +0.001 A 
ATOM     21  C   UNL     1      -0.305  -0.020   1.333  0.00  0.00    +0.010 A 
ATOM     22  C   UNL     1       0.862   0.661   1.612  0.00  0.00    +0.001 A 
ATOM     23  C   UNL     1       0.828   2.021   1.864  0.00  0.00    +0.000 A 
ATOM     24  C   UNL     1      -0.373   2.705   1.836  0.00  0.00    +0.001 A 
ATOM     25  C   UNL     1      -1.547   2.034   1.558  0.00  0.00    +0.010 A 
ENDBRANCH  17  20
ENDBRANCH  14  15
ENDBRANCH   3  14
BRANCH   3  26
ATOM     26  C   UNL     1      -7.170   0.121  -1.993  0.00  0.00    +0.166 C 
BRANCH  26  27
ATOM     27  C   UNL     1      -6.333  -1.152  -2.127  0.00  0.00    +0.023 C 
ATOM     28  C   UNL     1      -4.934  -0.797  -2.646  0.00  0.00    +0.010 C 
ATOM     29  C   UNL     1      -4.067  -2.057  -2.601  0.00  0.00    +0.027 C 
ATOM     30  C   UNL     1      -4.788  -3.205  -3.244  0.00  0.00    -0.031 C 
ATOM     31  C   UNL     1      -6.063  -3.225  -3.470  0.00  0.00    -0.031 C 
ATOM     32  C   UNL     1      -6.995  -2.100  -3.129  0.00  0.00    +0.032 C 
ENDBRANCH  26  27
BRANCH  26  33
ATOM     33  C   UNL     1      -8.574  -0.241  -1.581  0.00  0.00    +0.238 C 
ATOM     34  O   UNL     1      -8.927  -0.087  -0.431  0.00  0.00    -0.273 OA
ATOM     35  N   UNL     1      -9.436  -0.736  -2.491  0.00  0.00    -0.284 N 
ATOM     36  H   UNL     1      -9.136  -0.918  -3.395  0.00  0.00    +0.155 HD
BRANCH  35  37
ATOM     37  C   UNL     1     -10.767  -0.988  -2.131  0.00  0.00    +0.034 A 
ATOM     38  C   UNL     1     -11.408  -0.159  -1.219  0.00  0.00    +0.027 A 
ATOM     39  C   UNL     1     -12.720  -0.405  -0.868  0.00  0.00    +0.047 A 
ATOM     40  C   UNL     1     -13.395  -1.485  -1.418  0.00  0.00    +0.120 A 
ATOM     41  C   UNL     1     -12.754  -2.316  -2.324  0.00  0.00    +0.047 A 
ATOM     42  C   UNL     1     -11.442  -2.068  -2.680  0.00  0.00    +0.027 A 
BRANCH  40  43
ATOM     43  O   UNL     1     -14.686  -1.730  -1.067  0.00  0.00    -0.495 OA
ATOM     44  C   UNL     1     -15.284  -0.834  -0.129  0.00  0.00    +0.277 C 
ENDBRANCH  40  43
ENDBRANCH  35  37
ENDBRANCH  26  33
ENDBRANCH   3  26
TORSDOF 11
