REMARK  Name = ZINC00711715
REMARK  7 active torsions:
REMARK  status: ('A' for Active; 'I' for Inactive)
REMARK    1  A    between atoms: C_3  and  C_6
REMARK    2  A    between atoms: C_10  and  C_21
REMARK    3  A    between atoms: C_11  and  O_20
REMARK    4  A    between atoms: C_15  and  N_19
REMARK    5  A    between atoms: C_16  and  C_17
REMARK    6  A    between atoms: N_22  and  C_23
REMARK    7  A    between atoms: C_25  and  C_30
REMARK                            x       y       z     vdW  Elec       q    Type
REMARK                         _______ _______ _______ _____ _____    ______ ____
ROOT
ATOM      1  C   UNL     1       3.599   0.625  -0.029  0.00  0.00    +0.134 C 
ATOM      2  C   UNL     1       4.093  -0.097   1.197  0.00  0.00    +0.011 A 
ATOM      3  C   UNL     1       4.082   0.552   2.413  0.00  0.00    +0.021 A 
ATOM      4  C   UNL     1       4.538  -0.102   3.562  0.00  0.00    +0.035 A 
ATOM      5  C   UNL     1       5.007  -1.423   3.469  0.00  0.00    +0.129 A 
ATOM      6  C   UNL     1       5.013  -2.062   2.244  0.00  0.00    +0.092 A 
ATOM      7  C   UNL     1       4.557  -1.404   1.107  0.00  0.00    +0.138 A 
ATOM      8  O   UNL     1       4.574  -2.053  -0.083  0.00  0.00    -0.441 OA
ATOM      9  C   UNL     1       4.521  -1.354  -1.229  0.00  0.00    +0.199 C 
ATOM     10  C   UNL     1       4.068  -0.082  -1.269  0.00  0.00    +0.101 C 
ENDROOT
BRANCH   1  13
ATOM     11  C   UNL     1      -0.016   1.341   0.009  0.00  0.00    +0.041 A 
ATOM     12  C   UNL     1       1.331   1.769  -0.001  0.00  0.00    +0.045 A 
ATOM     13  C   UNL     1       2.092   0.660  -0.014  0.00  0.00    +0.117 A 
ATOM     14  O   UNL     1       1.282  -0.411  -0.012  0.00  0.00    -0.467 OA
ATOM     15  C   UNL     1       0.002  -0.004   0.002  0.00  0.00    +0.195 A 
ENDBRANCH   1  13
BRANCH   9  16
ATOM     16  N   UNL     1       4.939  -1.951  -2.393  0.00  0.00    -0.328 N 
ATOM     17  H   UNL     1       5.266  -2.864  -2.379  0.00  0.00    +0.145 HD
ATOM     18  H   UNL     1       4.907  -1.460  -3.228  0.00  0.00    +0.145 HD
ENDBRANCH   9  16
BRANCH  10  19
ATOM     19  C   UNL     1       4.036   0.606  -2.525  0.00  0.00    +0.101 C 
ATOM     20  N   UNL     1       4.010   1.153  -3.520  0.00  0.00    -0.191 NA
ENDBRANCH  10  19
BRANCH   5  21
ATOM     21  O   UNL     1       5.452  -2.067   4.577  0.00  0.00    -0.506 OA
ATOM     22  H   UNL     1       4.764  -2.555   5.051  0.00  0.00    +0.292 HD
ENDBRANCH   5  21
BRANCH   4  23
ATOM     23  C   UNL     1       4.527   0.589   4.858  0.00  0.00    +0.123 C 
ATOM     24  N   UNL     1       4.953  -0.025   5.927  0.00  0.00    -0.253 NA
BRANCH  24  25
ATOM     25  C   UNL     1       4.943   0.619   7.135  0.00  0.00    +0.083 A 
ATOM     26  C   UNL     1       3.864   1.434   7.487  0.00  0.00    +0.041 A 
ATOM     27  C   UNL     1       3.860   2.079   8.706  0.00  0.00    +0.057 A 
ATOM     28  C   UNL     1       4.921   1.921   9.580  0.00  0.00    +0.014 A 
ATOM     29  C   UNL     1       5.993   1.116   9.239  0.00  0.00    +0.022 A 
ATOM     30  C   UNL     1       6.009   0.459   8.025  0.00  0.00    +0.066 A 
ATOM     31 CL   UNL     1       7.351  -0.556   7.601  0.00  0.00    -0.081 Cl
BRANCH  27  32
ATOM     32  C   UNL     1       2.697   2.958   9.087  0.00  0.00    +0.417 C 
ATOM     33  F   UNL     1       1.732   2.194   9.752  0.00  0.00    -0.166 F 
ATOM     34  F   UNL     1       3.143   3.982   9.930  0.00  0.00    -0.166 F 
ATOM     35  F   UNL     1       2.136   3.516   7.933  0.00  0.00    -0.166 F 
ENDBRANCH  27  32
ENDBRANCH  24  25
ENDBRANCH   4  23
TORSDOF 7
