REMARK  Name = ZINC59045348
REMARK  9 active torsions:
REMARK  status: ('A' for Active; 'I' for Inactive)
REMARK    1  A    between atoms: C_1  and  C_2
REMARK    2  A    between atoms: C_2  and  S_3
REMARK    3  A    between atoms: S_3  and  C_4
REMARK    4  A    between atoms: C_9  and  N_10
REMARK    5  A    between atoms: C_11  and  C_13
REMARK    6  A    between atoms: C_13  and  S_14
REMARK    7  A    between atoms: S_14  and  C_15
REMARK    8  A    between atoms: C_18  and  C_21
REMARK    9  A    between atoms: N_19  and  N_20
REMARK                            x       y       z     vdW  Elec       q    Type
REMARK                         _______ _______ _______ _____ _____    ______ ____
ROOT
ATOM      1  S   UNL     1      -7.613  -4.160  -0.284  0.00  0.00    -0.075 S 
ENDROOT
BRANCH   1   2
ATOM      2  C   UNL     1      -9.146  -3.299  -0.390  0.00  0.00    +0.209 A 
ATOM      3  N   UNL     1      -9.310  -1.995  -0.389  0.00  0.00    -0.121 NA
ATOM      4  N   UNL     1     -10.559  -1.707  -0.480  0.00  0.00    -0.127 NA
ATOM      5  C   UNL     1     -11.270  -2.809  -0.544  0.00  0.00    +0.182 A 
ATOM      6  N   UNL     1     -10.386  -3.863  -0.494  0.00  0.00    -0.224 N 
BRANCH   5   7
ATOM      7  C   UNL     1     -12.741  -2.901  -0.655  0.00  0.00    +0.021 A 
ATOM      8  C   UNL     1     -13.389  -4.109  -0.396  0.00  0.00    +0.013 A 
ATOM      9  C   UNL     1     -14.762  -4.188  -0.501  0.00  0.00    +0.016 A 
ATOM     10  C   UNL     1     -15.497  -3.072  -0.864  0.00  0.00    +0.018 A 
ATOM     11  C   UNL     1     -14.860  -1.871  -1.122  0.00  0.00    +0.016 A 
ATOM     12  C   UNL     1     -13.488  -1.777  -1.014  0.00  0.00    +0.013 A 
ATOM     13 BR   UNL     1     -17.379  -3.190  -1.006  0.00  0.00    -0.050 Br
ENDBRANCH   5   7
BRANCH   6  14
ATOM     14  N   UNL     1     -10.687  -5.194  -0.538  0.00  0.00    -0.295 N 
ATOM     15  H   UNL     1     -10.839  -5.561   0.390  0.00  0.00    +0.163 HD
ATOM     16  H   UNL     1     -11.485  -5.366  -1.130  0.00  0.00    +0.163 HD
ENDBRANCH   6  14
ENDBRANCH   1   2
BRANCH   1  17
ATOM     17  C   UNL     1      -6.375  -2.839  -0.169  0.00  0.00    +0.173 C 
BRANCH  17  19
ATOM     18  N   UNL     1      -3.916  -2.651   0.025  0.00  0.00    -0.284 N 
ATOM     19  C   UNL     1      -4.999  -3.447  -0.071  0.00  0.00    +0.228 C 
ATOM     20  O   UNL     1      -4.867  -4.653  -0.078  0.00  0.00    -0.275 OA
ATOM     21  H   UNL     1      -4.026  -1.691   0.112  0.00  0.00    +0.155 HD
BRANCH  18  27
ATOM     22  C   UNL     1      -1.562  -2.533   0.587  0.00  0.00    +0.029 A 
ATOM     23  C   UNL     1      -0.293  -3.095   0.562  0.00  0.00    +0.016 A 
ATOM     24  C   UNL     1      -0.091  -4.318  -0.048  0.00  0.00    +0.001 A 
ATOM     25  C   UNL     1      -1.150  -4.986  -0.636  0.00  0.00    +0.002 A 
ATOM     26  C   UNL     1      -2.418  -4.434  -0.616  0.00  0.00    +0.024 A 
ATOM     27  C   UNL     1      -2.631  -3.209  -0.001  0.00  0.00    +0.047 A 
BRANCH  22  28
ATOM     28  S   UNL     1      -1.823  -0.974   1.365  0.00  0.00    -0.124 S 
BRANCH  28  30
ATOM     29  C   UNL     1      -0.262   0.853   2.671  0.00  0.00    +0.015 C 
ATOM     30  C   UNL     1      -0.178  -0.502   1.965  0.00  0.00    +0.071 C 
ENDBRANCH  28  30
ENDBRANCH  22  28
ENDBRANCH  18  27
ENDBRANCH  17  19
ENDBRANCH   1  17
TORSDOF 8
