REMARK  Name = ZINC57316268
REMARK  7 active torsions:
REMARK  status: ('A' for Active; 'I' for Inactive)
REMARK    1  A    between atoms: C_1  and  C_2
REMARK    2  A    between atoms: C_2  and  C_3
REMARK    3  A    between atoms: C_9  and  C_11
REMARK    4  A    between atoms: C_15  and  N_17
REMARK    5  A    between atoms: N_17  and  C_18
REMARK    6  A    between atoms: C_18  and  N_20
REMARK    7  A    between atoms: C_21  and  C_23
REMARK                            x       y       z     vdW  Elec       q    Type
REMARK                         _______ _______ _______ _____ _____    ______ ____
ROOT
ATOM      1  C   UNL     1       5.752  -0.809  -0.512  0.00  0.00    +0.011 A 
ATOM      2  C   UNL     1       5.814  -0.697   0.878  0.00  0.00    +0.011 A 
ATOM      3  C   UNL     1       6.994  -0.965   1.540  0.00  0.00    +0.002 A 
ATOM      4  C   UNL     1       8.119  -1.345   0.832  0.00  0.00    +0.023 A 
ATOM      5  C   UNL     1       8.068  -1.459  -0.552  0.00  0.00    +0.033 A 
ATOM      6  C   UNL     1       6.884  -1.197  -1.226  0.00  0.00    +0.034 A 
ENDROOT
BRANCH   1  13
ATOM      7  C   UNL     1       0.916   0.457  -1.474  0.00  0.00    +0.155 A 
ATOM      8  N   UNL     1       0.426   0.484  -2.681  0.00  0.00    -0.132 NA
ATOM      9  N   UNL     1       1.331   0.145  -3.533  0.00  0.00    -0.120 NA
ATOM     10  C   UNL     1       2.438  -0.113  -2.905  0.00  0.00    +0.218 A 
ATOM     11  N   UNL     1       2.240   0.077  -1.559  0.00  0.00    -0.190 N 
ATOM     12  N   UNL     1       3.333  -0.151  -0.733  0.00  0.00    -0.156 NA
ATOM     13  C   UNL     1       4.487  -0.523  -1.225  0.00  0.00    +0.132 A 
ATOM     14  S   UNL     1       4.141  -0.607  -2.975  0.00  0.00    -0.026 S 
BRANCH   7  16
ATOM     15  C   UNL     1       0.306   2.285   0.087  0.00  0.00    +0.012 C 
ATOM     16  C   UNL     1       0.170   0.790  -0.207  0.00  0.00    +0.075 C 
ENDBRANCH   7  16
ENDBRANCH   1  13
BRANCH   5  17
ATOM     17  N   UNL     1       9.208  -1.844  -1.265  0.00  0.00    -0.297 N 
ATOM     18  H   UNL     1       9.776  -2.553  -0.926  0.00  0.00    +0.154 HD
BRANCH  17  19
ATOM     19  C   UNL     1       9.519  -1.228  -2.423  0.00  0.00    +0.141 C 
ATOM     20  S   UNL     1       8.600   0.117  -2.950  0.00  0.00    -0.018 S 
BRANCH  19  21
ATOM     21  N   UNL     1      10.553  -1.671  -3.166  0.00  0.00    -0.264 N 
ATOM     22  C   UNL     1      10.863  -1.055  -4.324  0.00  0.00    +0.250 C 
ATOM     23  O   UNL     1      10.211  -0.100  -4.698  0.00  0.00    -0.270 OA
ATOM     24  H   UNL     1      11.073  -2.433  -2.867  0.00  0.00    +0.157 HD
BRANCH  22  25
ATOM     25  C   UNL     1      11.996  -1.540  -5.138  0.00  0.00    +0.038 A 
ATOM     26  C   UNL     1      12.744  -2.641  -4.714  0.00  0.00    +0.013 A 
ATOM     27  C   UNL     1      13.800  -3.090  -5.479  0.00  0.00    +0.002 A 
ATOM     28  C   UNL     1      14.120  -2.453  -6.665  0.00  0.00    +0.015 A 
ATOM     29  C   UNL     1      13.384  -1.361  -7.091  0.00  0.00    +0.019 A 
ATOM     30  C   UNL     1      12.320  -0.905  -6.338  0.00  0.00    +0.028 A 
ATOM     31 BR   UNL     1      13.830  -0.497  -8.713  0.00  0.00    -0.050 Br
ENDBRANCH  22  25
ENDBRANCH  19  21
ENDBRANCH  17  19
ENDBRANCH   5  17
TORSDOF 6
