REMARK  Name = ZINC02170042
REMARK  12 active torsions:
REMARK  status: ('A' for Active; 'I' for Inactive)
REMARK    1  A    between atoms: C_1  and  C_2
REMARK    2  A    between atoms: C_2  and  C_36
REMARK    3  A    between atoms: C_6  and  C_21
REMARK    4  A    between atoms: C_8  and  C_19
REMARK    5  A    between atoms: C_9  and  N_18
REMARK    6  A    between atoms: N_10  and  N_11
REMARK    7  A    between atoms: N_11  and  C_12
REMARK    8  A    between atoms: C_24  and  O_29
REMARK    9  A    between atoms: C_25  and  O_27
REMARK   10  A    between atoms: O_27  and  C_28
REMARK   11  A    between atoms: O_29  and  C_30
REMARK   12  A    between atoms: C_30  and  C_31
REMARK                            x       y       z     vdW  Elec       q    Type
REMARK                         _______ _______ _______ _____ _____    ______ ____
ROOT
ATOM      1  C   UNL     1      -0.019   1.526   0.010  0.00  0.00    +0.011 C 
ATOM      2  C   UNL     1       0.002  -0.004   0.002  0.00  0.00    -0.023 C 
ATOM      3  C   UNL     1       0.740  -0.501  -1.243  0.00  0.00    +0.060 C 
ATOM      4  C   UNL     1       2.167  -0.012  -1.216  0.00  0.00    +0.040 C 
ATOM      5  C   UNL     1       2.813   0.180  -0.046  0.00  0.00    +0.026 C 
ATOM      6  C   UNL     1       4.244   0.657  -0.021  0.00  0.00    +0.098 C 
ATOM      7  C   UNL     1       4.632   1.271  -1.334  0.00  0.00    +0.078 C 
ATOM      8  C   UNL     1       3.906   1.040  -2.458  0.00  0.00    +0.119 C 
ATOM      9  N   UNL     1       2.792   0.237  -2.408  0.00  0.00    -0.211 N 
ATOM     10  C   UNL     1       2.173  -0.055   1.183  0.00  0.00    +0.162 C 
ATOM     11  O   UNL     1       2.787   0.117   2.217  0.00  0.00    -0.292 OA
ATOM     12  C   UNL     1       0.743  -0.516   1.242  0.00  0.00    +0.086 C 
ATOM     13  C   UNL     1      -1.432  -0.538   0.003  0.00  0.00    +0.011 C 
ENDROOT
BRANCH   6  14
ATOM     14  C   UNL     1       5.150  -0.513   0.263  0.00  0.00    -0.031 A 
ATOM     15  C   UNL     1       5.172  -1.594  -0.599  0.00  0.00    +0.008 A 
ATOM     16  C   UNL     1       6.001  -2.670  -0.343  0.00  0.00    +0.050 A 
ATOM     17  C   UNL     1       6.813  -2.667   0.780  0.00  0.00    +0.162 A 
ATOM     18  C   UNL     1       6.791  -1.579   1.648  0.00  0.00    +0.162 A 
ATOM     19  C   UNL     1       5.961  -0.501   1.382  0.00  0.00    +0.054 A 
BRANCH  18  20
ATOM     20  O   UNL     1       7.587  -1.571   2.751  0.00  0.00    -0.491 OA
ATOM     21  C   UNL     1       7.512  -0.421   3.596  0.00  0.00    +0.277 C 
ENDBRANCH  18  20
BRANCH  17  22
ATOM     22  O   UNL     1       7.629  -3.724   1.034  0.00  0.00    -0.484 OA
BRANCH  22  23
ATOM     23  C   UNL     1       7.599  -4.806   0.100  0.00  0.00    +0.256 C 
BRANCH  23  24
ATOM     24  C   UNL     1       8.561  -5.879   0.543  0.00  0.00    +0.006 C 
ATOM     25  C   UNL     1       8.195  -7.136   0.520  0.00  0.00    +0.007 C 
ENDBRANCH  23  24
ENDBRANCH  22  23
ENDBRANCH  17  22
ENDBRANCH   6  14
BRANCH   8  26
ATOM     26  N   UNL     1       4.287   1.609  -3.650  0.00  0.00    -0.344 N 
ATOM     27  H   UNL     1       5.074   2.176  -3.687  0.00  0.00    +0.144 HD
ATOM     28  H   UNL     1       3.770   1.444  -4.453  0.00  0.00    +0.144 HD
ENDBRANCH   8  26
BRANCH   9  29
ATOM     29  N   UNL     1       2.290  -0.330  -3.586  0.00  0.00    -0.259 N 
ATOM     30  H   UNL     1       2.431  -1.273  -3.768  0.00  0.00    +0.171 HD
BRANCH  29  31
ATOM     31  C   UNL     1       1.588   0.460  -4.498  0.00  0.00    +0.045 A 
ATOM     32  C   UNL     1       1.391   1.811  -4.242  0.00  0.00    +0.024 A 
ATOM     33  C   UNL     1       0.697   2.590  -5.146  0.00  0.00    +0.002 A 
ATOM     34  C   UNL     1       0.197   2.027  -6.306  0.00  0.00    +0.000 A 
ATOM     35  C   UNL     1       0.392   0.683  -6.565  0.00  0.00    +0.002 A 
ATOM     36  C   UNL     1       1.090  -0.101  -5.668  0.00  0.00    +0.024 A 
ENDBRANCH  29  31
ENDBRANCH   9  29
BRANCH   7  37
ATOM     37  C   UNL     1       5.787   2.116  -1.402  0.00  0.00    +0.099 C 
ATOM     38  N   UNL     1       6.703   2.786  -1.456  0.00  0.00    -0.191 NA
ENDBRANCH   7  37
TORSDOF 9
