REMARK  Name = ZINC40378555
REMARK  6 active torsions:
REMARK  status: ('A' for Active; 'I' for Inactive)
REMARK    1  A    between atoms: C_1  and  C_2
REMARK    2  A    between atoms: C_5  and  S_17
REMARK    3  A    between atoms: C_7  and  N_8
REMARK    4  A    between atoms: C_9  and  C_11
REMARK    5  A    between atoms: C_12  and  C_16
REMARK    6  A    between atoms: S_17  and  N_20
REMARK                            x       y       z     vdW  Elec       q    Type
REMARK                         _______ _______ _______ _____ _____    ______ ____
ROOT
ATOM      1  C   UNL     1      -0.009   1.492   0.004  0.00  0.00    +0.045 C 
ATOM      2  C   UNL     1       0.015  -0.014   0.002  0.00  0.00    -0.029 A 
ATOM      3  C   UNL     1       0.028  -0.704  -1.195  0.00  0.00    +0.007 A 
ATOM      4  C   UNL     1       0.050  -2.087  -1.197  0.00  0.00    +0.029 A 
ATOM      5  C   UNL     1       0.061  -2.783  -0.003  0.00  0.00    +0.107 A 
ATOM      6  C   UNL     1       0.049  -2.100   1.197  0.00  0.00    +0.052 A 
ATOM      7  C   UNL     1       0.032  -0.711   1.203  0.00  0.00    +0.038 A 
ENDROOT
BRANCH   7   8
ATOM      8  N   UNL     1       0.025  -0.015   2.417  0.00  0.00    -0.281 N 
ATOM      9  C   UNL     1      -0.632  -0.521   3.479  0.00  0.00    +0.257 C 
ATOM     10  O   UNL     1      -1.150  -1.620   3.408  0.00  0.00    -0.269 OA
ATOM     11  H   UNL     1       0.492   0.831   2.493  0.00  0.00    +0.155 HD
BRANCH   9  12
ATOM     12  C   UNL     1      -0.723   0.254   4.721  0.00  0.00    +0.096 A 
ATOM     13  C   UNL     1      -1.331  -0.066   5.915  0.00  0.00    +0.058 A 
ATOM     14  N   UNL     1      -1.255   0.829   6.869  0.00  0.00    -0.252 NA
ATOM     15  C   UNL     1      -0.630   1.971   6.694  0.00  0.00    +0.156 A 
ATOM     16  S   UNL     1      -0.070   1.870   5.109  0.00  0.00    -0.071 S 
ATOM     17  C   UNL     1      -2.049  -1.376   6.114  0.00  0.00    +0.067 C 
ENDBRANCH   9  12
ENDBRANCH   7   8
BRANCH   5  18
ATOM     18  S   UNL     1       0.089  -4.545  -0.011  0.00  0.00    +0.056 S 
ATOM     19  O   UNL     1      -0.455  -4.966   1.232  0.00  0.00    -0.153 OA
ATOM     20  O   UNL     1      -0.455  -4.954  -1.259  0.00  0.00    -0.153 OA
BRANCH  18  21
ATOM     21  N   UNL     1       1.679  -5.009  -0.013  0.00  0.00    -0.204 NA
ATOM     22  H   UNL     1       2.380  -4.339  -0.010  0.00  0.00    +0.144 HD
ATOM     23  H   UNL     1       1.909  -5.952  -0.018  0.00  0.00    +0.144 HD
ENDBRANCH  18  21
ENDBRANCH   5  18
TORSDOF 4
