REMARK  Name = ZINC09064673
REMARK  8 active torsions:
REMARK  status: ('A' for Active; 'I' for Inactive)
REMARK    1  A    between atoms: C_1  and  C_2
REMARK    2  A    between atoms: C_5  and  C_29
REMARK    3  A    between atoms: C_7  and  N_8
REMARK    4  A    between atoms: N_8  and  C_9
REMARK    5  A    between atoms: C_9  and  N_11
REMARK    6  A    between atoms: C_12  and  C_14
REMARK    7  A    between atoms: C_17  and  N_23
REMARK    8  A    between atoms: C_18  and  N_20
REMARK                            x       y       z     vdW  Elec       q    Type
REMARK                         _______ _______ _______ _____ _____    ______ ____
ROOT
ATOM      1  N   UNL     1       3.525   5.899  -0.204  0.00  0.00    -0.264 N 
ATOM      2  C   UNL     1       3.516   7.243  -0.299  0.00  0.00    +0.250 C 
ATOM      3  O   UNL     1       2.461   7.847  -0.286  0.00  0.00    -0.270 OA
ATOM      4  H   UNL     1       4.367   5.418  -0.214  0.00  0.00    +0.157 HD
ENDROOT
BRANCH   2   5
ATOM      5  C   UNL     1       4.787   7.982  -0.418  0.00  0.00    +0.039 A 
ATOM      6  C   UNL     1       6.002   7.290  -0.427  0.00  0.00    +0.015 A 
ATOM      7  C   UNL     1       7.178   7.975  -0.543  0.00  0.00    +0.026 A 
ATOM      8  C   UNL     1       7.173   9.364  -0.641  0.00  0.00    +0.060 A 
ATOM      9  C   UNL     1       5.968  10.062  -0.627  0.00  0.00    +0.148 A 
ATOM     10  C   UNL     1       4.779   9.377  -0.517  0.00  0.00    +0.047 A 
BRANCH   8  11
ATOM     11  N   UNL     1       8.374  10.055  -0.752  0.00  0.00    -0.328 N 
ATOM     12  C   UNL     1       9.063   9.714  -2.003  0.00  0.00    +0.105 C 
ATOM     13  C   UNL     1      10.303  10.597  -2.162  0.00  0.00    +0.019 C 
ATOM     14  C   UNL     1      11.236  10.378  -0.967  0.00  0.00    +0.003 C 
ATOM     15  C   UNL     1      10.479  10.694   0.326  0.00  0.00    +0.019 C 
ATOM     16  C   UNL     1       9.234   9.808   0.412  0.00  0.00    +0.105 C 
ENDBRANCH   8  11
BRANCH   9  17
ATOM     17  N   UNL     1       5.966  11.538  -0.732  0.00  0.00    +0.058 N 
ATOM     18  O   UNL     1       4.912  12.148  -0.719  0.00  0.00    -0.126 OA
ATOM     19  O   UNL     1       7.019  12.143  -0.829  0.00  0.00    -0.126 OA
ENDBRANCH   9  17
ENDBRANCH   2   5
BRANCH   1  20
ATOM     20  C   UNL     1       2.364   5.224  -0.095  0.00  0.00    +0.141 C 
ATOM     21  S   UNL     1       0.878   6.073  -0.077  0.00  0.00    -0.018 S 
BRANCH  20  22
ATOM     22  N   UNL     1       2.373   3.879  -0.000  0.00  0.00    -0.296 N 
ATOM     23  H   UNL     1       3.215   3.403   0.070  0.00  0.00    +0.154 HD
BRANCH  22  30
ATOM     24  C   UNL     1       2.048   1.786   1.894  0.00  0.00    +0.045 C 
ATOM     25  C   UNL     1       0.966   2.138   0.907  0.00  0.00    -0.029 A 
ATOM     26  C   UNL     1      -0.224   1.434   0.909  0.00  0.00    +0.006 A 
ATOM     27  C   UNL     1      -1.218   1.747   0.005  0.00  0.00    +0.015 A 
ATOM     28  C   UNL     1      -1.028   2.785  -0.910  0.00  0.00    +0.065 A 
ATOM     29  C   UNL     1       0.172   3.496  -0.912  0.00  0.00    +0.038 A 
ATOM     30  C   UNL     1       1.167   3.170  -0.003  0.00  0.00    +0.036 A 
BRANCH  28  31
ATOM     31  C   UNL     1      -2.093   3.126  -1.876  0.00  0.00    +0.387 C 
ATOM     32  O   UNL     1      -1.923   4.027  -2.674  0.00  0.00    -0.241 OA
ATOM     33  O   UNL     1      -3.251   2.439  -1.872  0.00  0.00    -0.241 OA
ENDBRANCH  28  31
ENDBRANCH  22  30
ENDBRANCH  20  22
ENDBRANCH   1  20
TORSDOF 7
