REMARK  Name = ZINC03011436
REMARK  5 active torsions:
REMARK  status: ('A' for Active; 'I' for Inactive)
REMARK    1  A    between atoms: C_1  and  C_2
REMARK    2  A    between atoms: C_3  and  N_9
REMARK    3  A    between atoms: C_10  and  C_12
REMARK    4  A    between atoms: C_17  and  C_30
REMARK    5  A    between atoms: C_20  and  C_23
REMARK                            x       y       z     vdW  Elec       q    Type
REMARK                         _______ _______ _______ _____ _____    ______ ____
ROOT
ATOM      1  C   UNL     1       0.190   0.095  -4.850  0.00  0.00    +0.149 A 
ATOM      2  C   UNL     1       0.298  -0.471  -6.141  0.00  0.00    +0.078 A 
ATOM      3  C   UNL     1       0.361   0.543  -7.026  0.00  0.00    +0.119 A 
ATOM      4  N   UNL     1       0.293   1.718  -6.333  0.00  0.00    -0.238 N 
ATOM      5  N   UNL     1       0.182   1.410  -4.977  0.00  0.00    -0.164 NA
ATOM      6  C   UNL     1       0.327   3.039  -6.966  0.00  0.00    +0.215 C 
ATOM      7  C   UNL     1      -0.037   2.888  -8.448  0.00  0.00    +0.063 C 
ATOM      8  C   UNL     1       0.807   1.776  -9.082  0.00  0.00    +0.104 C 
ATOM      9  N   UNL     1       0.476   0.500  -8.418  0.00  0.00    -0.322 N 
ATOM     10  H   UNL     1       0.345  -0.320  -8.919  0.00  0.00    +0.148 HD
ENDROOT
BRANCH   8  11
ATOM     11  C   UNL     1       0.497   1.682 -10.553  0.00  0.00    -0.027 A 
ATOM     12  C   UNL     1      -0.640   1.020 -10.979  0.00  0.00    +0.007 A 
ATOM     13  C   UNL     1      -0.925   0.933 -12.329  0.00  0.00    +0.020 A 
ATOM     14  C   UNL     1      -0.072   1.509 -13.254  0.00  0.00    +0.041 A 
ATOM     15  C   UNL     1       1.065   2.172 -12.827  0.00  0.00    +0.020 A 
ATOM     16  C   UNL     1       1.346   2.263 -11.477  0.00  0.00    +0.007 A 
ATOM     17 CL   UNL     1      -0.429   1.400 -14.949  0.00  0.00    -0.084 Cl
ENDBRANCH   8  11
BRANCH   1  19
ATOM     18  N   UNL     1      -0.010   0.011  -2.413  0.00  0.00    -0.280 N 
ATOM     19  C   UNL     1       0.095  -0.654  -3.580  0.00  0.00    +0.268 C 
ATOM     20  O   UNL     1       0.112  -1.869  -3.589  0.00  0.00    -0.268 OA
ATOM     21  H   UNL     1      -0.104   0.976  -2.411  0.00  0.00    +0.155 HD
BRANCH  18  24
ATOM     22  C   UNL     1      -1.264   1.189  -0.146  0.00  0.00    +0.047 C 
ATOM     23  C   UNL     1      -0.583  -0.153  -0.073  0.00  0.00    -0.011 A 
ATOM     24  C   UNL     1       0.017  -0.692  -1.204  0.00  0.00    +0.038 A 
ATOM     25  C   UNL     1       0.643  -1.929  -1.132  0.00  0.00    +0.023 A 
ATOM     26  C   UNL     1       0.667  -2.621   0.064  0.00  0.00    +0.003 A 
ATOM     27  C   UNL     1       0.070  -2.084   1.188  0.00  0.00    +0.020 A 
ATOM     28  C   UNL     1      -0.551  -0.848   1.122  0.00  0.00    +0.046 A 
ATOM     29 CL   UNL     1      -1.294  -0.173   2.538  0.00  0.00    -0.083 Cl
ENDBRANCH  18  24
ENDBRANCH   1  19
BRANCH   6  30
ATOM     30  C   UNL     1      -0.682   3.963  -6.280  0.00  0.00    +0.412 C 
ATOM     31  F   UNL     1      -0.353   4.088  -4.926  0.00  0.00    -0.168 F 
ATOM     32  F   UNL     1      -0.648   5.223  -6.887  0.00  0.00    -0.168 F 
ATOM     33  F   UNL     1      -1.966   3.422  -6.401  0.00  0.00    -0.168 F 
ENDBRANCH   6  30
TORSDOF 4
