REMARK  Name = ZINC14276161
REMARK  6 active torsions:
REMARK  status: ('A' for Active; 'I' for Inactive)
REMARK    1  A    between atoms: C_8  and  C_10
REMARK    2  A    between atoms: N_12  and  C_13
REMARK    3  A    between atoms: C_16  and  N_19
REMARK    4  A    between atoms: N_19  and  C_20
REMARK    5  A    between atoms: C_20  and  N_22
REMARK    6  A    between atoms: C_23  and  C_25
REMARK                            x       y       z     vdW  Elec       q    Type
REMARK                         _______ _______ _______ _____ _____    ______ ____
ROOT
ATOM      1  C   UNL     1      -6.970  -0.506   0.220  0.00  0.00    +0.034 A 
ATOM      2  C   UNL     1      -7.107   0.876   0.216  0.00  0.00    +0.025 A 
ATOM      3  C   UNL     1      -5.986   1.681   0.200  0.00  0.00    +0.025 A 
ATOM      4  C   UNL     1      -4.720   1.109   0.188  0.00  0.00    +0.033 A 
ATOM      5  C   UNL     1      -4.583  -0.273   0.186  0.00  0.00    +0.025 A 
ATOM      6  C   UNL     1      -5.704  -1.078   0.207  0.00  0.00    +0.025 A 
ENDROOT
BRANCH   1   9
ATOM      7  C   UNL     1      -9.212  -0.952  -0.441  0.00  0.00    +0.284 C 
ATOM      8  O   UNL     1      -9.240   0.116  -1.023  0.00  0.00    -0.266 OA
ATOM      9  N   UNL     1      -8.107  -1.323   0.236  0.00  0.00    -0.279 N 
ATOM     10  H   UNL     1      -8.099  -2.155   0.735  0.00  0.00    +0.155 HD
BRANCH   7  18
ATOM     11  C   UNL     1     -14.256  -4.248  -0.874  0.00  0.00    +0.001 A 
ATOM     12  C   UNL     1     -13.522  -5.125  -0.088  0.00  0.00    +0.004 A 
ATOM     13  C   UNL     1     -12.238  -4.814   0.303  0.00  0.00    +0.047 A 
ATOM     14  C   UNL     1     -11.667  -3.609  -0.090  0.00  0.00    +0.136 A 
ATOM     15  C   UNL     1     -12.416  -2.723  -0.887  0.00  0.00    +0.021 A 
ATOM     16  C   UNL     1     -13.716  -3.058  -1.273  0.00  0.00    +0.011 A 
ATOM     17  C   UNL     1     -11.547  -1.571  -1.123  0.00  0.00    +0.063 A 
ATOM     18  C   UNL     1     -10.383  -1.839  -0.476  0.00  0.00    +0.191 A 
ATOM     19  O   UNL     1     -10.463  -3.044   0.126  0.00  0.00    -0.450 OA
ENDBRANCH   7  18
ENDBRANCH   1   9
BRANCH   4  20
ATOM     20  N   UNL     1      -3.583   1.926   0.172  0.00  0.00    -0.297 N 
ATOM     21  H   UNL     1      -2.842   1.714  -0.417  0.00  0.00    +0.154 HD
BRANCH  20  22
ATOM     22  C   UNL     1      -3.518   3.006   0.976  0.00  0.00    +0.141 C 
ATOM     23  S   UNL     1      -4.862   3.434   1.945  0.00  0.00    -0.018 S 
BRANCH  22  24
ATOM     24  N   UNL     1      -2.394   3.749   1.016  0.00  0.00    -0.264 N 
ATOM     25  C   UNL     1      -2.329   4.829   1.819  0.00  0.00    +0.250 C 
ATOM     26  O   UNL     1      -3.283   5.133   2.507  0.00  0.00    -0.270 OA
ATOM     27  H   UNL     1      -1.632   3.506   0.467  0.00  0.00    +0.157 HD
BRANCH  25  28
ATOM     28  C   UNL     1      -1.094   5.640   1.868  0.00  0.00    +0.038 A 
ATOM     29  C   UNL     1       0.006   5.290   1.083  0.00  0.00    +0.013 A 
ATOM     30  C   UNL     1       1.154   6.054   1.130  0.00  0.00    +0.002 A 
ATOM     31  C   UNL     1       1.220   7.159   1.960  0.00  0.00    +0.015 A 
ATOM     32  C   UNL     1       0.135   7.509   2.744  0.00  0.00    +0.019 A 
ATOM     33  C   UNL     1      -1.021   6.756   2.703  0.00  0.00    +0.028 A 
ATOM     34 BR   UNL     1       0.237   9.022   3.875  0.00  0.00    -0.050 Br
ENDBRANCH  25  28
ENDBRANCH  22  24
ENDBRANCH  20  22
ENDBRANCH   4  20
TORSDOF 6
