REMARK  Name = ZINC62826859
REMARK  3 active torsions:
REMARK  status: ('A' for Active; 'I' for Inactive)
REMARK    1  A    between atoms: C_3  and  C_17
REMARK    2  A    between atoms: C_4  and  N_8
REMARK    3  A    between atoms: C_9  and  C_11
REMARK                            x       y       z     vdW  Elec       q    Type
REMARK                         _______ _______ _______ _____ _____    ______ ____
ROOT
ATOM      1  N   UNL     1       3.622  -0.658  -0.059  0.00  0.00    -0.285 N 
ATOM      2  C   UNL     1       3.654  -1.993   0.125  0.00  0.00    +0.203 C 
ATOM      3  O   UNL     1       2.618  -2.616   0.223  0.00  0.00    -0.277 OA
ATOM      4  H   UNL     1       4.446  -0.171  -0.215  0.00  0.00    +0.155 HD
ENDROOT
BRANCH   1   8
ATOM      5  C   UNL     1      -0.018   1.376   0.043  0.00  0.00    +0.002 A 
ATOM      6  C   UNL     1       1.032   1.831   0.812  0.00  0.00    +0.017 A 
ATOM      7  C   UNL     1       2.257   1.158   0.787  0.00  0.00    +0.085 A 
ATOM      8  C   UNL     1       2.408   0.021  -0.024  0.00  0.00    +0.062 A 
ATOM      9  C   UNL     1       1.338  -0.422  -0.791  0.00  0.00    +0.040 A 
ATOM     10  C   UNL     1       0.134   0.254  -0.755  0.00  0.00    +0.017 A 
ATOM     11 BR   UNL     1       1.530  -1.952  -1.886  0.00  0.00    -0.048 Br
BRANCH   7  12
ATOM     12  C   UNL     1       3.382   1.638   1.604  0.00  0.00    +0.388 C 
ATOM     13  O   UNL     1       3.282   2.686   2.228  0.00  0.00    -0.241 OA
ATOM     14  O   UNL     1       4.418   0.990   1.661  0.00  0.00    -0.241 OA
ENDBRANCH   7  12
ENDBRANCH   1   8
BRANCH   2  15
ATOM     15  C   UNL     1       4.976  -2.711   0.209  0.00  0.00    +0.016 C 
ATOM     16  C   UNL     1       5.780  -2.218   1.437  0.00  0.00    -0.009 C 
ATOM     17  C   UNL     1       6.712  -3.429   1.708  0.00  0.00    -0.020 C 
ATOM     18  C   UNL     1       5.820  -4.639   1.357  0.00  0.00    -0.082 C 
ATOM     19  N   UNL     1       4.763  -4.155   0.448  0.00  0.00    +0.387 N 
ATOM     20  H   UNL     1       3.859  -4.299   0.872  0.00  0.00    -0.085 HD
ATOM     21  H   UNL     1       4.810  -4.655  -0.427  0.00  0.00    -0.085 HD
ENDBRANCH   2  15
TORSDOF 3
