REMARK  Name = ZINC39684955
REMARK  6 active torsions:
REMARK  status: ('A' for Active; 'I' for Inactive)
REMARK    1  A    between atoms: C_3  and  C_36
REMARK    2  A    between atoms: C_6  and  C_7
REMARK    3  A    between atoms: C_7  and  N_8
REMARK    4  A    between atoms: C_9  and  C_11
REMARK    5  A    between atoms: C_22  and  C_24
REMARK    6  A    between atoms: C_27  and  C_29
REMARK                            x       y       z     vdW  Elec       q    Type
REMARK                         _______ _______ _______ _____ _____    ______ ____
ROOT
ATOM      1  C   UNL     1      -3.318  -1.935  -3.024  0.00  0.00    +0.100 C 
ATOM      2  C   UNL     1      -3.722  -0.607  -3.701  0.00  0.00    +0.121 C 
ATOM      3  N   UNL     1      -4.888  -0.957  -4.546  0.00  0.00    -0.294 N 
ATOM      4  C   UNL     1      -5.664  -1.916  -3.725  0.00  0.00    +0.115 C 
ATOM      5  C   UNL     1      -4.595  -2.792  -3.041  0.00  0.00    -0.004 C 
ATOM      6  C   UNL     1      -4.365  -4.068  -3.845  0.00  0.00    -0.010 C 
ATOM      7  C   UNL     1      -5.630  -4.929  -3.800  0.00  0.00    -0.082 C 
ATOM      8  N   UNL     1      -5.952  -5.256  -2.405  0.00  0.00    +0.379 N 
ATOM      9  C   UNL     1      -6.262  -4.029  -1.661  0.00  0.00    -0.082 C 
ATOM     10  C   UNL     1      -5.024  -3.130  -1.617  0.00  0.00    -0.010 C 
ATOM     11  C   UNL     1      -5.177  -0.504  -5.782  0.00  0.00    +0.282 C 
ATOM     12  O   UNL     1      -6.182  -0.889  -6.351  0.00  0.00    -0.267 OA
ATOM     13  H   UNL     1      -6.750  -5.873  -2.382  0.00  0.00    -0.086 HD
ATOM     14  H   UNL     1      -5.162  -5.716  -1.978  0.00  0.00    -0.086 HD
ENDROOT
BRANCH  11  15
ATOM     15  C   UNL     1      -4.282   0.450  -6.441  0.00  0.00    +0.190 A 
ATOM     16  C   UNL     1      -4.461   0.994  -7.695  0.00  0.00    +0.055 A 
ATOM     17  C   UNL     1      -3.377   1.847  -7.923  0.00  0.00    +0.050 A 
ATOM     18  C   UNL     1      -2.584   1.795  -6.812  0.00  0.00    +0.136 A 
ATOM     19  O   UNL     1      -3.142   0.955  -5.924  0.00  0.00    -0.450 OA
BRANCH  18  20
ATOM     20  C   UNL     1      -1.325   2.542  -6.617  0.00  0.00    +0.017 A 
ATOM     21  C   UNL     1      -0.856   3.397  -7.617  0.00  0.00    +0.014 A 
ATOM     22  C   UNL     1       0.320   4.092  -7.429  0.00  0.00    +0.039 A 
ATOM     23  C   UNL     1       1.035   3.944  -6.250  0.00  0.00    +0.123 A 
ATOM     24  C   UNL     1       0.574   3.097  -5.255  0.00  0.00    +0.039 A 
ATOM     25  C   UNL     1      -0.604   2.401  -5.430  0.00  0.00    +0.014 A 
ATOM     26  F   UNL     1       2.187   4.628  -6.072  0.00  0.00    -0.205 F 
ENDBRANCH  18  20
ENDBRANCH  11  15
BRANCH   1  28
ATOM     27  N   UNL     1      -1.975  -2.510  -1.028  0.00  0.00    -0.311 N 
ATOM     28  C   UNL     1      -2.871  -1.687  -1.606  0.00  0.00    +0.218 C 
ATOM     29  O   UNL     1      -3.319  -0.746  -0.985  0.00  0.00    -0.275 OA
ATOM     30  H   UNL     1      -1.617  -3.263  -1.524  0.00  0.00    +0.149 HD
BRANCH  27  31
ATOM     31  C   UNL     1      -1.541  -2.269   0.350  0.00  0.00    +0.139 C 
BRANCH  31  37
ATOM     32  C   UNL     1       0.807  -3.115   0.537  0.00  0.00    +0.006 A 
ATOM     33  C   UNL     1       1.725  -4.076   0.906  0.00  0.00    +0.019 A 
ATOM     34  C   UNL     1       1.289  -5.262   1.500  0.00  0.00    +0.052 A 
ATOM     35  C   UNL     1      -0.075  -5.467   1.716  0.00  0.00    +0.019 A 
ATOM     36  C   UNL     1      -0.982  -4.497   1.343  0.00  0.00    +0.006 A 
ATOM     37  C   UNL     1      -0.543  -3.324   0.755  0.00  0.00    -0.030 A 
BRANCH  34  38
ATOM     38  C   UNL     1       2.237  -6.264   1.884  0.00  0.00    +0.099 C 
ATOM     39  N   UNL     1       2.989  -7.059   2.189  0.00  0.00    -0.191 NA
ENDBRANCH  34  38
ENDBRANCH  31  37
ENDBRANCH  27  31
ENDBRANCH   1  28
TORSDOF 6
