REMARK  Name = ZINC43668769
REMARK  7 active torsions:
REMARK  status: ('A' for Active; 'I' for Inactive)
REMARK    1  A    between atoms: C_1  and  C_2
REMARK    2  A    between atoms: C_4  and  N_17
REMARK    3  A    between atoms: N_5  and  C_7
REMARK    4  A    between atoms: C_7  and  C_9
REMARK    5  A    between atoms: C_7  and  C_14
REMARK    6  A    between atoms: C_14  and  C_15
REMARK    7  A    between atoms: C_14  and  C_16
REMARK                            x       y       z     vdW  Elec       q    Type
REMARK                         _______ _______ _______ _____ _____    ______ ____
ROOT
ATOM      1  C   UNL     1      -0.018   1.503   0.010  0.00  0.00    +0.069 C 
ATOM      2  C   UNL     1       0.002  -0.004   0.002  0.00  0.00    +0.076 A 
ATOM      3  C   UNL     1       0.008  -0.815  -1.136  0.00  0.00    +0.080 A 
ATOM      4  C   UNL     1       0.027  -2.113  -0.724  0.00  0.00    +0.129 A 
ATOM      5  N   UNL     1       0.034  -2.109   0.634  0.00  0.00    -0.241 N 
ATOM      6  N   UNL     1       0.023  -0.775   1.059  0.00  0.00    -0.173 NA
ATOM      7 BR   UNL     1      -0.009  -0.216  -2.930  0.00  0.00    -0.045 Br
ENDROOT
BRANCH   4   8
ATOM      8  N   UNL     1       0.039  -3.238  -1.545  0.00  0.00    -0.342 N 
ATOM      9  H   UNL     1       0.033  -3.135  -2.510  0.00  0.00    +0.144 HD
ATOM     10  H   UNL     1       0.052  -4.125  -1.152  0.00  0.00    +0.144 HD
ENDBRANCH   4   8
BRANCH   5  11
ATOM     11  C   UNL     1       0.053  -3.291   1.500  0.00  0.00    +0.148 C 
BRANCH  11  12
ATOM     12  C   UNL     1       1.288  -3.259   2.365  0.00  0.00    +0.014 A 
ATOM     13  C   UNL     1       2.304  -4.153   2.434  0.00  0.00    +0.013 A 
ATOM     14  C   UNL     1       3.346  -3.916   3.311  0.00  0.00    +0.008 A 
ATOM     15  C   UNL     1       3.322  -2.796   4.074  0.00  0.00    +0.045 A 
ATOM     16  S   UNL     1       1.794  -2.030   3.556  0.00  0.00    -0.099 S 
ENDBRANCH  11  12
BRANCH  11  17
ATOM     17  C   UNL     1      -1.192  -3.293   2.389  0.00  0.00    +0.012 C 
ATOM     18  C   UNL     1      -2.445  -3.325   1.512  0.00  0.00    +0.010 C 
ATOM     19  C   UNL     1      -1.171  -4.526   3.294  0.00  0.00    +0.010 C 
ENDBRANCH  11  17
ENDBRANCH   5  11
TORSDOF 4
