REMARK  Name = ZINC14544861
REMARK  5 active torsions:
REMARK  status: ('A' for Active; 'I' for Inactive)
REMARK    1  A    between atoms: C_4  and  C_7
REMARK    2  A    between atoms: C_7  and  N_8
REMARK    3  A    between atoms: N_8  and  S_9
REMARK    4  A    between atoms: S_9  and  C_12
REMARK    5  A    between atoms: C_25  and  C_28
REMARK                            x       y       z     vdW  Elec       q    Type
REMARK                         _______ _______ _______ _____ _____    ______ ____
ROOT
ATOM      1  C   UNL     1      -1.571   2.658  -1.502  0.00  0.00    +0.106 A 
ATOM      2  C   UNL     1      -1.089   3.951  -1.588  0.00  0.00    +0.030 A 
ATOM      3  C   UNL     1      -1.167   4.642  -2.780  0.00  0.00    +0.025 A 
ATOM      4  C   UNL     1      -1.737   4.047  -3.899  0.00  0.00    +0.031 A 
ATOM      5  C   UNL     1      -2.237   2.744  -3.800  0.00  0.00    -0.018 A 
ATOM      6  C   UNL     1      -2.148   2.060  -2.607  0.00  0.00    +0.034 A 
ATOM      7  C   UNL     1      -2.861   2.158  -5.006  0.00  0.00    +0.049 C 
ATOM      8  C   UNL     1      -2.884   0.692  -5.245  0.00  0.00    -0.023 C 
ATOM      9  C   UNL     1      -2.848   0.475  -6.554  0.00  0.00    -0.030 C 
ATOM     10  C   UNL     1      -2.763   1.806  -7.303  0.00  0.00    +0.033 C 
ATOM     11  C   UNL     1      -2.088   2.689  -6.250  0.00  0.00    +0.029 C 
ATOM     12  C   UNL     1      -2.397   4.174  -6.316  0.00  0.00    +0.107 C 
ATOM     13  N   UNL     1      -1.789   4.761  -5.103  0.00  0.00    -0.336 N 
ATOM     14  H   UNL     1      -1.419   5.658  -5.141  0.00  0.00    +0.147 HD
ENDROOT
BRANCH  12  15
ATOM     15  C   UNL     1      -1.783   4.779  -7.552  0.00  0.00    -0.002 A 
ATOM     16  C   UNL     1      -0.596   5.401  -7.631  0.00  0.00    +0.089 A 
ATOM     17  N   UNL     1      -0.371   5.817  -8.915  0.00  0.00    -0.360 N 
ATOM     18  H   UNL     1       0.421   6.288  -9.218  0.00  0.00    +0.165 HD
ATOM     19  C   UNL     1      -1.440   5.472  -9.713  0.00  0.00    +0.047 A 
ATOM     20  C   UNL     1      -2.370   4.806  -8.894  0.00  0.00    +0.005 A 
ATOM     21  C   UNL     1      -3.566   4.336  -9.439  0.00  0.00    +0.010 A 
ATOM     22  C   UNL     1      -3.827   4.524 -10.767  0.00  0.00    +0.001 A 
ATOM     23  C   UNL     1      -2.912   5.179 -11.579  0.00  0.00    +0.002 A 
ATOM     24  C   UNL     1      -1.726   5.652 -11.062  0.00  0.00    +0.026 A 
ENDBRANCH  12  15
BRANCH   1  25
ATOM     25  S   UNL     1      -1.456   1.774   0.019  0.00  0.00    +0.059 S 
ATOM     26  O   UNL     1      -2.475   0.784  -0.009  0.00  0.00    -0.153 OA
ATOM     27  O   UNL     1      -1.369   2.749   1.049  0.00  0.00    -0.153 OA
BRANCH  25  28
ATOM     28  N   UNL     1      -0.011   0.966   0.007  0.00  0.00    -0.186 NA
ATOM     29  H   UNL     1       0.002  -0.004   0.002  0.00  0.00    +0.148 HD
BRANCH  28  30
ATOM     30  C   UNL     1       1.248   1.716  -0.001  0.00  0.00    +0.141 C 
BRANCH  30  34
ATOM     31  C   UNL     1       4.471  -0.903   0.997  0.00  0.00    +0.000 A 
ATOM     32  C   UNL     1       4.097  -0.740  -0.324  0.00  0.00    +0.000 A 
ATOM     33  C   UNL     1       3.054   0.108  -0.646  0.00  0.00    +0.005 A 
ATOM     34  C   UNL     1       2.385   0.791   0.351  0.00  0.00    -0.032 A 
ATOM     35  C   UNL     1       2.763   0.632   1.671  0.00  0.00    +0.005 A 
ATOM     36  C   UNL     1       3.803  -0.219   1.995  0.00  0.00    +0.000 A 
ENDBRANCH  30  34
ENDBRANCH  28  30
ENDBRANCH  25  28
ENDBRANCH   1  25
TORSDOF 5
