REMARK  Name = ZINC39992669
REMARK  9 active torsions:
REMARK  status: ('A' for Active; 'I' for Inactive)
REMARK    1  A    between atoms: C_4  and  O_7
REMARK    2  A    between atoms: O_7  and  C_8
REMARK    3  A    between atoms: C_12  and  C_14
REMARK    4  A    between atoms: C_15  and  C_16
REMARK    5  A    between atoms: C_15  and  C_18
REMARK    6  A    between atoms: N_20  and  C_21
REMARK    7  A    between atoms: C_22  and  C_30
REMARK    8  A    between atoms: N_32  and  C_33
REMARK    9  A    between atoms: C_33  and  C_34
REMARK                            x       y       z     vdW  Elec       q    Type
REMARK                         _______ _______ _______ _____ _____    ______ ____
ROOT
ATOM      1  C   UNL     1       7.248  -6.590  -0.642  0.00  0.00    +0.259 C 
ATOM      2  O   UNL     1       8.285  -5.956  -0.633  0.00  0.00    -0.269 OA
ATOM      3  N   UNL     1       7.274  -7.923  -0.843  0.00  0.00    -0.275 N 
ATOM      4  H   UNL     1       6.447  -8.429  -0.849  0.00  0.00    +0.156 HD
ENDROOT
BRANCH   3   5
ATOM      5  C   UNL     1       8.484  -8.570  -1.039  0.00  0.00    +0.085 A 
ATOM      6  C   UNL     1       8.701  -9.920  -1.264  0.00  0.00    +0.069 A 
ATOM      7  C   UNL     1      10.078 -10.351  -1.440  0.00  0.00    -0.023 A 
ATOM      8  C   UNL     1      10.983  -9.352  -1.359  0.00  0.00    -0.004 A 
ATOM      9  S   UNL     1      10.022  -7.896  -1.067  0.00  0.00    -0.077 S 
ATOM     10  C   UNL     1      12.470  -9.473  -1.496  0.00  0.00    +0.043 C 
ATOM     11  C   UNL     1      12.847 -10.956  -1.366  0.00  0.00    +0.005 C 
ATOM     12  C   UNL     1      11.925 -11.782  -2.268  0.00  0.00    +0.005 C 
ATOM     13  C   UNL     1      10.506 -11.788  -1.697  0.00  0.00    +0.037 C 
BRANCH   6  14
ATOM     14  C   UNL     1       7.590 -10.874  -1.320  0.00  0.00    +0.247 C 
ATOM     15  O   UNL     1       7.045 -11.111  -2.382  0.00  0.00    -0.270 OA
ATOM     16  N   UNL     1       7.171 -11.489  -0.196  0.00  0.00    -0.309 N 
ATOM     17  H   UNL     1       7.605 -11.300   0.650  0.00  0.00    +0.149 HD
BRANCH  16  18
ATOM     18  C   UNL     1       6.060 -12.442  -0.253  0.00  0.00    +0.136 C 
BRANCH  18  19
ATOM     19  C   UNL     1       5.787 -12.991   1.149  0.00  0.00    +0.135 C 
ATOM     20  C   UNL     1       4.700 -14.085   1.081  0.00  0.00    +0.035 C 
ATOM     21  C   UNL     1       3.867 -13.802   2.360  0.00  0.00    +0.031 C 
ATOM     22  C   UNL     1       3.967 -12.258   2.441  0.00  0.00    +0.160 C 
ATOM     23  O   UNL     1       5.298 -11.944   1.995  0.00  0.00    -0.375 OA
ENDBRANCH  18  19
ENDBRANCH  16  18
ENDBRANCH   6  14
ENDBRANCH   3   5
BRANCH   1  25
ATOM     24  C   UNL     1       5.936  -4.553  -0.230  0.00  0.00    +0.032 C 
ATOM     25  C   UNL     1       5.963  -5.904  -0.433  0.00  0.00    +0.114 C 
BRANCH  24  30
ATOM     26  C   UNL     1       2.576  -3.920   1.315  0.00  0.00    +0.129 A 
ATOM     27  C   UNL     1       2.307  -2.638   0.849  0.00  0.00    +0.046 A 
ATOM     28  C   UNL     1       3.217  -1.986   0.036  0.00  0.00    +0.004 A 
ATOM     29  C   UNL     1       4.398  -2.601  -0.319  0.00  0.00    +0.008 A 
ATOM     30  C   UNL     1       4.680  -3.892   0.145  0.00  0.00    -0.020 A 
ATOM     31  C   UNL     1       3.759  -4.548   0.971  0.00  0.00    +0.054 A 
BRANCH  26  32
ATOM     32  O   UNL     1       1.677  -4.554   2.113  0.00  0.00    -0.456 OA
BRANCH  32  36
ATOM     33  C   UNL     1       2.395  -4.609   6.175  0.00  0.00    +0.000 A 
ATOM     34  C   UNL     1       3.318  -4.037   5.319  0.00  0.00    +0.004 A 
ATOM     35  C   UNL     1       3.080  -4.018   3.958  0.00  0.00    +0.046 A 
ATOM     36  C   UNL     1       1.914  -4.572   3.451  0.00  0.00    +0.128 A 
ATOM     37  C   UNL     1       0.989  -5.145   4.312  0.00  0.00    +0.046 A 
ATOM     38  C   UNL     1       1.232  -5.162   5.672  0.00  0.00    +0.004 A 
ENDBRANCH  32  36
ENDBRANCH  26  32
ENDBRANCH  24  30
BRANCH  25  39
ATOM     39  C   UNL     1       4.741  -6.651  -0.443  0.00  0.00    +0.104 C 
ATOM     40  N   UNL     1       3.772  -7.244  -0.451  0.00  0.00    -0.191 NA
ENDBRANCH  25  39
ENDBRANCH   1  25
TORSDOF 9
