REMARK  Name = ZINC08893902
REMARK  9 active torsions:
REMARK  status: ('A' for Active; 'I' for Inactive)
REMARK    1  A    between atoms: C_1  and  C_2
REMARK    2  A    between atoms: C_5  and  S_8
REMARK    3  A    between atoms: S_8  and  N_11
REMARK    4  A    between atoms: C_15  and  C_17
REMARK    5  A    between atoms: N_19  and  C_20
REMARK    6  A    between atoms: C_21  and  C_31
REMARK    7  A    between atoms: C_26  and  C_30
REMARK    8  A    between atoms: C_34  and  O_36
REMARK    9  A    between atoms: O_36  and  C_37
REMARK                            x       y       z     vdW  Elec       q    Type
REMARK                         _______ _______ _______ _____ _____    ______ ____
ROOT
ATOM      1  C   UNL     1      -1.556   2.790  -5.779  0.00  0.00    +0.236 C 
ATOM      2  O   UNL     1      -2.659   3.100  -5.382  0.00  0.00    -0.274 OA
ATOM      3  N   UNL     1      -0.643   2.296  -4.919  0.00  0.00    -0.278 N 
ATOM      4  H   UNL     1       0.239   2.048  -5.237  0.00  0.00    +0.155 HD
ENDROOT
BRANCH   3   5
ATOM      5  C   UNL     1      -0.966   2.141  -3.580  0.00  0.00    +0.084 A 
ATOM      6  C   UNL     1      -0.171   1.654  -2.551  0.00  0.00    +0.069 A 
ATOM      7  C   UNL     1      -0.755   1.593  -1.222  0.00  0.00    -0.023 A 
ATOM      8  C   UNL     1      -2.032   2.025  -1.135  0.00  0.00    -0.004 A 
ATOM      9  S   UNL     1      -2.461   2.508  -2.783  0.00  0.00    -0.077 S 
ATOM     10  C   UNL     1      -2.886   2.078   0.095  0.00  0.00    +0.046 C 
ATOM     11  C   UNL     1      -2.224   1.217   1.180  0.00  0.00    -0.009 C 
ATOM     12  C   UNL     1      -0.734   1.582   1.262  0.00  0.00    +0.008 C 
ATOM     13  C   UNL     1      -0.013   1.086   0.008  0.00  0.00    +0.037 C 
ATOM     14  C   UNL     1      -2.892   1.490   2.530  0.00  0.00    +0.008 C 
BRANCH   6  15
ATOM     15  C   UNL     1       1.206   1.218  -2.796  0.00  0.00    +0.255 C 
ATOM     16  O   UNL     1       1.434   0.061  -3.094  0.00  0.00    -0.270 OA
ATOM     17  N   UNL     1       2.220   2.100  -2.692  0.00  0.00    -0.217 N 
ATOM     18  C   UNL     1       3.487   1.699  -2.918  0.00  0.00    +0.407 C 
ATOM     19  O   UNL     1       3.715   0.544  -3.215  0.00  0.00    -0.226 OA
ATOM     20  H   UNL     1       2.039   3.023  -2.455  0.00  0.00    +0.161 HD
BRANCH  18  21
ATOM     21  O   UNL     1       4.500   2.579  -2.814  0.00  0.00    -0.453 OA
ATOM     22  C   UNL     1       5.838   2.078  -3.071  0.00  0.00    +0.282 C 
ENDBRANCH  18  21
ENDBRANCH   6  15
ENDBRANCH   3   5
BRANCH   1  27
ATOM     23  N   UNL     1      -2.354   3.511  -7.966  0.00  0.00    -0.165 NA
ATOM     24  C   UNL     1      -2.742   2.562  -9.025  0.00  0.00    +0.110 C 
ATOM     25  C   UNL     1      -2.220   1.188  -8.536  0.00  0.00    +0.019 C 
ATOM     26  C   UNL     1      -0.882   1.585  -7.859  0.00  0.00    +0.031 C 
ATOM     27  C   UNL     1      -1.204   2.959  -7.235  0.00  0.00    +0.166 C 
BRANCH  23  28
ATOM     28  S   UNL     1      -3.092   4.960  -7.651  0.00  0.00    +0.062 S 
ATOM     29  O   UNL     1      -4.417   4.859  -8.155  0.00  0.00    -0.153 OA
ATOM     30  O   UNL     1      -2.816   5.269  -6.292  0.00  0.00    -0.153 OA
BRANCH  28  35
ATOM     31  C   UNL     1      -0.296   9.147 -10.976  0.00  0.00    +0.044 C 
ATOM     32  C   UNL     1      -0.995   8.102 -10.145  0.00  0.00    -0.050 A 
ATOM     33  C   UNL     1      -2.084   7.424 -10.660  0.00  0.00    +0.005 A 
ATOM     34  C   UNL     1      -2.725   6.465  -9.899  0.00  0.00    +0.029 A 
ATOM     35  C   UNL     1      -2.276   6.183  -8.622  0.00  0.00    +0.106 A 
ATOM     36  C   UNL     1      -1.190   6.864  -8.105  0.00  0.00    +0.029 A 
ATOM     37  C   UNL     1      -0.546   7.820  -8.868  0.00  0.00    +0.005 A 
ENDBRANCH  28  35
ENDBRANCH  23  28
ENDBRANCH   1  27
TORSDOF 6
