REMARK  Name = ZINC21208709
REMARK  6 active torsions:
REMARK  status: ('A' for Active; 'I' for Inactive)
REMARK    1  A    between atoms: C_6  and  C_7
REMARK    2  A    between atoms: C_8  and  C_13
REMARK    3  A    between atoms: N_15  and  C_16
REMARK    4  A    between atoms: C_19  and  N_22
REMARK    5  A    between atoms: N_25  and  C_26
REMARK    6  A    between atoms: C_26  and  C_27
REMARK                            x       y       z     vdW  Elec       q    Type
REMARK                         _______ _______ _______ _____ _____    ______ ____
ROOT
ATOM      1  C   UNL     1       3.688  -3.340   0.063  0.00  0.00    +0.034 A 
ATOM      2  C   UNL     1       2.773  -4.385   0.076  0.00  0.00    +0.025 A 
ATOM      3  C   UNL     1       3.217  -5.690   0.145  0.00  0.00    +0.025 A 
ATOM      4  C   UNL     1       4.577  -5.958   0.212  0.00  0.00    +0.035 A 
ATOM      5  C   UNL     1       5.492  -4.914   0.204  0.00  0.00    +0.025 A 
ATOM      6  C   UNL     1       5.049  -3.608   0.129  0.00  0.00    +0.025 A 
ENDROOT
BRANCH   4   7
ATOM      7  N   UNL     1       5.028  -7.283   0.287  0.00  0.00    -0.269 N 
ATOM      8  C   UNL     1       4.373  -8.256  -0.377  0.00  0.00    +0.304 C 
ATOM      9  O   UNL     1       3.344  -8.000  -0.972  0.00  0.00    -0.253 OA
ATOM     10  N   UNL     1       4.858  -9.514  -0.380  0.00  0.00    -0.297 N 
ATOM     11  H   UNL     1       5.916  -7.529   0.888  0.00  0.00    +0.156 HD
ATOM     12  H   UNL     1       5.788  -9.746   0.159  0.00  0.00    +0.150 HD
BRANCH  10  13
ATOM     13  C   UNL     1       4.146 -10.571  -1.101  0.00  0.00    +0.137 C 
BRANCH  13  14
ATOM     14  C   UNL     1       4.902 -11.892  -0.947  0.00  0.00    +0.135 C 
ATOM     15  C   UNL     1       4.161 -13.012  -1.702  0.00  0.00    +0.035 C 
ATOM     16  C   UNL     1       5.202 -13.537  -2.720  0.00  0.00    +0.031 C 
ATOM     17  C   UNL     1       6.538 -13.068  -2.089  0.00  0.00    +0.160 C 
ATOM     18  O   UNL     1       6.211 -11.777  -1.529  0.00  0.00    -0.375 OA
ENDBRANCH  13  14
ENDBRANCH  10  13
ENDBRANCH   4   7
BRANCH   1  21
ATOM     19  C   UNL     1       2.125  -1.721  -0.713  0.00  0.00    +0.252 C 
ATOM     20  O   UNL     1       1.564  -2.588  -1.356  0.00  0.00    -0.270 OA
ATOM     21  N   UNL     1       3.238  -2.016  -0.012  0.00  0.00    -0.281 N 
ATOM     22  H   UNL     1       3.793  -1.217   0.501  0.00  0.00    +0.155 HD
BRANCH  19  24
ATOM     23  C   UNL     1       0.397   0.134  -1.403  0.00  0.00    +0.105 A 
ATOM     24  C   UNL     1       1.589  -0.350  -0.700  0.00  0.00    +0.082 A 
ATOM     25  C   UNL     1       2.108   0.735  -0.024  0.00  0.00    +0.118 A 
ATOM     26  N   UNL     1       1.323   1.793  -0.276  0.00  0.00    -0.283 N 
ATOM     27  H   UNL     1       1.558   2.771   0.169  0.00  0.00    +0.188 HD
ATOM     28  N   UNL     1       0.278   1.412  -1.122  0.00  0.00    -0.173 NA
BRANCH  23  34
ATOM     29  C   UNL     1       0.017  -1.684  -3.067  0.00  0.00    +0.013 A 
ATOM     30  C   UNL     1      -0.825  -2.429  -3.866  0.00  0.00    +0.039 A 
ATOM     31  C   UNL     1      -2.184  -2.162  -3.883  0.00  0.00    +0.123 A 
ATOM     32  C   UNL     1      -2.705  -1.149  -3.094  0.00  0.00    +0.039 A 
ATOM     33  C   UNL     1      -1.872  -0.402  -2.288  0.00  0.00    +0.013 A 
ATOM     34  C   UNL     1      -0.503  -0.667  -2.268  0.00  0.00    +0.003 A 
ATOM     35  F   UNL     1      -3.004  -2.891  -4.671  0.00  0.00    -0.205 F 
ENDBRANCH  23  34
ENDBRANCH  19  24
ENDBRANCH   1  21
TORSDOF 6
