REMARK  Name = ZINC12246639
REMARK  9 active torsions:
REMARK  status: ('A' for Active; 'I' for Inactive)
REMARK    1  A    between atoms: C_1  and  C_2
REMARK    2  A    between atoms: C_2  and  C_4
REMARK    3  A    between atoms: C_2  and  N_58
REMARK    4  A    between atoms: C_4  and  C_5
REMARK    5  A    between atoms: C_10  and  N_58
REMARK    6  A    between atoms: N_13  and  C_16
REMARK    7  A    between atoms: C_20  and  N_22
REMARK    8  A    between atoms: N_22  and  S_23
REMARK    9  A    between atoms: S_23  and  C_26
REMARK                            x       y       z     vdW  Elec       q    Type
REMARK                         _______ _______ _______ _____ _____    ______ ____
ROOT
ATOM      1  C   UNL     1      -1.910   1.461  -7.463  0.00  0.00    +0.031 A 
ATOM      2  C   UNL     1      -2.267   0.456  -8.355  0.00  0.00    +0.023 A 
ATOM      3  C   UNL     1      -2.166   0.670  -9.716  0.00  0.00    +0.004 A 
ATOM      4  C   UNL     1      -1.700   1.879 -10.195  0.00  0.00    +0.024 A 
ATOM      5  C   UNL     1      -1.336   2.886  -9.310  0.00  0.00    +0.050 A 
ATOM      6  C   UNL     1      -1.441   2.677  -7.942  0.00  0.00    +0.047 A 
ENDROOT
BRANCH   1  10
ATOM      7  C   UNL     1      -1.458  -0.016  -3.551  0.00  0.00    -0.069 C 
ATOM      8  C   UNL     1      -0.918   1.373  -3.901  0.00  0.00    +0.003 C 
ATOM      9  C   UNL     1      -0.731   1.476  -5.417  0.00  0.00    +0.103 C 
ATOM     10  N   UNL     1      -2.017   1.246  -6.088  0.00  0.00    -0.330 N 
ATOM     11  C   UNL     1      -2.532  -0.100  -5.804  0.00  0.00    +0.103 C 
ATOM     12  C   UNL     1      -2.773  -0.248  -4.300  0.00  0.00    +0.003 C 
BRANCH   7  13
ATOM     13  N   UNL     1      -1.706  -0.098  -2.099  0.00  0.00    +0.383 N 
ATOM     14  H   UNL     1      -2.030   0.815  -1.759  0.00  0.00    -0.085 HD
ATOM     15  H   UNL     1      -2.426  -0.807  -1.918  0.00  0.00    -0.085 HD
BRANCH  13  17
ATOM     16  C   UNL     1      -0.319  -1.993  -1.387  0.00  0.00    -0.013 C 
ATOM     17  C   UNL     1      -0.468  -0.471  -1.389  0.00  0.00    -0.070 C 
BRANCH  17  18
ATOM     18  C   UNL     1      -0.543   0.037   0.052  0.00  0.00    +0.028 C 
BRANCH  18  19
ATOM     19  C   UNL     1      -0.566   1.544   0.053  0.00  0.00    +0.008 A 
ATOM     20  C   UNL     1      -1.622   2.395  -0.000  0.00  0.00    +0.122 A 
ATOM     21  N   UNL     1      -1.383   3.690   0.018  0.00  0.00    -0.255 NA
ATOM     22  C   UNL     1      -0.159   4.160   0.076  0.00  0.00    +0.156 A 
ATOM     23  S   UNL     1       0.790   2.706   0.119  0.00  0.00    -0.080 S 
ENDBRANCH  18  19
ENDBRANCH  17  18
ENDBRANCH  13  17
ENDBRANCH   7  13
ENDBRANCH   1  10
BRANCH   5  24
ATOM     24  N   UNL     1      -0.864   4.108  -9.796  0.00  0.00    -0.216 N 
ATOM     25  H   UNL     1      -1.205   4.939  -9.430  0.00  0.00    +0.174 HD
BRANCH  24  26
ATOM     26  S   UNL     1       0.276   4.137 -10.996  0.00  0.00    +0.072 S 
ATOM     27  O   UNL     1      -0.217   3.316 -12.045  0.00  0.00    -0.150 OA
ATOM     28  O   UNL     1       0.622   5.501 -11.194  0.00  0.00    -0.150 OA
BRANCH  26  29
ATOM     29  C   UNL     1       1.716   3.339 -10.366  0.00  0.00    +0.109 A 
ATOM     30  C   UNL     1       2.634   4.057  -9.623  0.00  0.00    +0.031 A 
ATOM     31  C   UNL     1       3.761   3.431  -9.124  0.00  0.00    +0.040 A 
ATOM     32  C   UNL     1       3.975   2.087  -9.378  0.00  0.00    +0.124 A 
ATOM     33  C   UNL     1       3.057   1.370 -10.127  0.00  0.00    +0.040 A 
ATOM     34  C   UNL     1       1.928   1.997 -10.620  0.00  0.00    +0.031 A 
ATOM     35  F   UNL     1       5.078   1.475  -8.895  0.00  0.00    -0.205 F 
ENDBRANCH  26  29
ENDBRANCH  24  26
ENDBRANCH   5  24
TORSDOF 8
