REMARK  Name = ZINC44785210
REMARK  5 active torsions:
REMARK  status: ('A' for Active; 'I' for Inactive)
REMARK    1  A    between atoms: C_1  and  C_2
REMARK    2  A    between atoms: C_6  and  C_10
REMARK    3  A    between atoms: C_11  and  C_13
REMARK    4  A    between atoms: C_13  and  C_20
REMARK    5  A    between atoms: N_21  and  O_22
REMARK                            x       y       z     vdW  Elec       q    Type
REMARK                         _______ _______ _______ _____ _____    ______ ____
ROOT
ATOM      1  C   UNL     1      -0.017  -2.106  -3.393  0.00  0.00    +0.105 C 
ATOM      2  C   UNL     1      -1.244  -1.300  -3.061  0.00  0.00    +0.024 C 
ATOM      3  C   UNL     1      -1.968  -1.820  -1.805  0.00  0.00    +0.001 C 
ATOM      4  C   UNL     1      -2.043  -3.358  -1.751  0.00  0.00    +0.000 C 
ATOM      5  C   UNL     1      -2.368  -3.966  -3.088  0.00  0.00    +0.000 C 
ATOM      6  C   UNL     1      -1.046  -4.340  -3.790  0.00  0.00    +0.001 C 
ATOM      7  C   UNL     1      -0.406  -3.192  -4.416  0.00  0.00    +0.024 C 
ENDROOT
BRANCH   1  16
ATOM      8  C   UNL     1       4.369  -4.306  -4.636  0.00  0.00    +0.039 C 
ATOM      9  C   UNL     1       3.681  -3.792  -3.371  0.00  0.00    +0.133 C 
ATOM     10  C   UNL     1       2.163  -3.952  -3.512  0.00  0.00    +0.139 C 
ATOM     11  N   UNL     1       1.539  -3.628  -2.219  0.00  0.00    -0.293 N 
ATOM     12  C   UNL     1       2.067  -4.286  -1.013  0.00  0.00    +0.099 C 
ATOM     13  C   UNL     1       3.590  -4.110  -0.993  0.00  0.00    +0.182 C 
ATOM     14  O   UNL     1       4.131  -4.546  -2.242  0.00  0.00    -0.373 OA
ATOM     15  C   UNL     1       1.720  -5.776  -1.046  0.00  0.00    +0.030 C 
ATOM     16  C   UNL     1       0.515  -2.755  -2.142  0.00  0.00    +0.229 C 
ATOM     17  O   UNL     1       0.022  -2.493  -1.065  0.00  0.00    -0.275 OA
ENDBRANCH   1  16
BRANCH   1  18
ATOM     18  C   UNL     1       1.038  -1.207  -3.985  0.00  0.00    +0.147 C 
ATOM     19  N   UNL     1       1.391  -1.352  -5.219  0.00  0.00    -0.076 NA
ATOM     20  N   UNL     1       1.626  -0.232  -3.211  0.00  0.00    -0.343 N 
ATOM     21  H   UNL     1       1.310  -0.074  -2.307  0.00  0.00    +0.144 HD
ATOM     22  H   UNL     1       2.356   0.298  -3.569  0.00  0.00    +0.144 HD
BRANCH  19  23
ATOM     23  O   UNL     1       2.383  -0.508  -5.776  0.00  0.00    -0.408 OA
ATOM     24  H   UNL     1       2.580  -0.692  -6.704  0.00  0.00    +0.328 HD
ENDBRANCH  19  23
ENDBRANCH   1  18
TORSDOF 3
