REMARK  Name = ZINC35545040
REMARK  7 active torsions:
REMARK  status: ('A' for Active; 'I' for Inactive)
REMARK    1  A    between atoms: C_1  and  O_2
REMARK    2  A    between atoms: O_2  and  C_3
REMARK    3  A    between atoms: C_6  and  N_11
REMARK    4  A    between atoms: C_8  and  O_9
REMARK    5  A    between atoms: O_9  and  C_10
REMARK    6  A    between atoms: C_12  and  C_14
REMARK    7  A    between atoms: C_19  and  C_36
REMARK                            x       y       z     vdW  Elec       q    Type
REMARK                         _______ _______ _______ _____ _____    ______ ____
ROOT
ATOM      1  C   UNL     1      -7.377  -2.571   0.258  0.00  0.00    +0.101 C 
ATOM      2  C   UNL     1      -7.607  -3.437  -0.980  0.00  0.00    +0.051 C 
ATOM      3  C   UNL     1      -7.684  -2.540  -2.189  0.00  0.00    -0.025 A 
ATOM      4  C   UNL     1      -7.289  -3.023  -3.423  0.00  0.00    +0.017 A 
ATOM      5  C   UNL     1      -7.346  -2.205  -4.536  0.00  0.00    +0.055 A 
ATOM      6  C   UNL     1      -7.798  -0.903  -4.417  0.00  0.00    +0.014 A 
ATOM      7  C   UNL     1      -8.196  -0.419  -3.188  0.00  0.00    +0.024 A 
ATOM      8  C   UNL     1      -8.145  -1.242  -2.066  0.00  0.00    +0.033 A 
ATOM      9  N   UNL     1      -8.582  -0.727  -0.834  0.00  0.00    -0.323 N 
ATOM     10  C   UNL     1      -8.489  -1.523   0.375  0.00  0.00    +0.103 C 
ATOM     11  C   UNL     1      -8.236  -0.694   1.623  0.00  0.00    +0.129 C 
ATOM     12  N   UNL     1      -8.845   0.620   1.565  0.00  0.00    -0.313 N 
ATOM     13  C   UNL     1      -8.838   1.432   0.359  0.00  0.00    +0.125 C 
ATOM     14  C   UNL     1      -9.175   0.609  -0.860  0.00  0.00    +0.124 C 
ATOM     15  C   UNL     1      -9.460   1.123   2.705  0.00  0.00    +0.099 A 
ATOM     16  C   UNL     1     -10.155   2.326   2.640  0.00  0.00    +0.042 A 
ATOM     17  C   UNL     1     -10.762   2.815   3.783  0.00  0.00    +0.005 A 
ATOM     18  C   UNL     1     -10.653   2.081   4.957  0.00  0.00    +0.018 A 
ATOM     19  C   UNL     1      -9.948   0.894   4.949  0.00  0.00    +0.084 A 
ATOM     20  N   UNL     1      -9.383   0.449   3.843  0.00  0.00    -0.350 N 
ATOM     21  H   UNL     1      -8.897  -0.390   3.864  0.00  0.00    +0.166 HD
ENDROOT
BRANCH   1  23
ATOM     22  N   UNL     1      -4.914  -2.602   0.034  0.00  0.00    -0.285 N 
ATOM     23  C   UNL     1      -6.045  -1.877   0.143  0.00  0.00    +0.222 C 
ATOM     24  O   UNL     1      -5.990  -0.665   0.150  0.00  0.00    -0.275 OA
ATOM     25  H   UNL     1      -4.963  -3.569  -0.036  0.00  0.00    +0.155 HD
BRANCH  22  29
ATOM     26  C   UNL     1      -1.208  -0.686  -0.012  0.00  0.00    +0.162 A 
ATOM     27  C   UNL     1      -2.307  -0.086  -0.605  0.00  0.00    +0.051 A 
ATOM     28  C   UNL     1      -3.534  -0.720  -0.590  0.00  0.00    +0.027 A 
ATOM     29  C   UNL     1      -3.669  -1.961   0.019  0.00  0.00    +0.037 A 
ATOM     30  C   UNL     1      -2.570  -2.564   0.615  0.00  0.00    +0.072 A 
ATOM     31  C   UNL     1      -1.339  -1.931   0.595  0.00  0.00    +0.163 A 
BRANCH  26  33
ATOM     32  C   UNL     1       0.062   1.215  -0.668  0.00  0.00    +0.277 C 
ATOM     33  O   UNL     1       0.001  -0.061  -0.028  0.00  0.00    -0.491 OA
ENDBRANCH  26  33
BRANCH  31  34
ATOM     34  O   UNL     1      -0.259  -2.524   1.174  0.00  0.00    -0.491 OA
ATOM     35  C   UNL     1      -0.467  -3.802   1.778  0.00  0.00    +0.277 C 
ENDBRANCH  31  34
ENDBRANCH  22  29
ENDBRANCH   1  23
BRANCH   5  36
ATOM     36  C   UNL     1      -6.916  -2.733  -5.880  0.00  0.00    +0.417 C 
ATOM     37  F   UNL     1      -8.015  -3.302  -6.531  0.00  0.00    -0.166 F 
ATOM     38  F   UNL     1      -6.408  -1.683  -6.653  0.00  0.00    -0.166 F 
ATOM     39  F   UNL     1      -5.924  -3.704  -5.704  0.00  0.00    -0.166 F 
ENDBRANCH   5  36
TORSDOF 5
