REMARK  Name = ZINC02235176
REMARK  6 active torsions:
REMARK  status: ('A' for Active; 'I' for Inactive)
REMARK    1  A    between atoms: C_9  and  C_22
REMARK    2  A    between atoms: C_10  and  N_21
REMARK    3  A    between atoms: N_11  and  C_14
REMARK    4  A    between atoms: C_22  and  O_24
REMARK    5  A    between atoms: O_24  and  C_25
REMARK    6  A    between atoms: C_25  and  C_26
REMARK                            x       y       z     vdW  Elec       q    Type
REMARK                         _______ _______ _______ _____ _____    ______ ____
ROOT
ATOM      1  C   UNL     1       7.776  -0.470  -4.758  0.00  0.00    +0.002 A 
ATOM      2  C   UNL     1       6.700   0.336  -5.129  0.00  0.00    +0.002 A 
ATOM      3  C   UNL     1       5.630   0.499  -4.305  0.00  0.00    +0.030 A 
ATOM      4  C   UNL     1       5.601  -0.152  -3.058  0.00  0.00    +0.092 A 
ATOM      5  C   UNL     1       6.695  -0.972  -2.681  0.00  0.00    +0.090 A 
ATOM      6  C   UNL     1       7.784  -1.115  -3.561  0.00  0.00    +0.030 A 
ATOM      7  N   UNL     1       6.693  -1.602  -1.500  0.00  0.00    -0.241 NA
ATOM      8  C   UNL     1       5.665  -1.457  -0.688  0.00  0.00    +0.125 A 
ATOM      9  C   UNL     1       5.324  -1.979   0.646  0.00  0.00    +0.126 A 
ATOM     10  C   UNL     1       4.081  -1.444   0.973  0.00  0.00    +0.119 A 
ATOM     11  N   UNL     1       3.624  -0.652  -0.036  0.00  0.00    -0.280 N 
ATOM     12  C   UNL     1       4.534  -0.610  -1.075  0.00  0.00    +0.167 A 
ATOM     13  N   UNL     1       4.553   0.002  -2.240  0.00  0.00    -0.225 NA
ENDROOT
BRANCH  11  14
ATOM     14  C   UNL     1       2.400   0.031  -0.021  0.00  0.00    +0.050 A 
ATOM     15  C   UNL     1       1.207  -0.679  -0.013  0.00  0.00    +0.029 A 
ATOM     16  C   UNL     1       0.002  -0.004   0.002  0.00  0.00    +0.040 A 
ATOM     17  C   UNL     1      -0.017   1.381   0.010  0.00  0.00    +0.124 A 
ATOM     18  C   UNL     1       1.172   2.091   0.002  0.00  0.00    +0.040 A 
ATOM     19  C   UNL     1       2.379   1.419  -0.013  0.00  0.00    +0.029 A 
ATOM     20  F   UNL     1      -1.196   2.039   0.019  0.00  0.00    -0.205 F 
ENDBRANCH  11  14
BRANCH  10  21
ATOM     21  N   UNL     1       3.411  -1.683   2.144  0.00  0.00    -0.343 N 
ATOM     22  H   UNL     1       2.545  -1.275   2.299  0.00  0.00    +0.144 HD
ATOM     23  H   UNL     1       3.803  -2.261   2.818  0.00  0.00    +0.144 HD
ENDBRANCH  10  21
BRANCH   9  24
ATOM     24  C   UNL     1       6.108  -2.849   1.442  0.00  0.00    +0.345 C 
ATOM     25  O   UNL     1       6.916  -2.392   2.229  0.00  0.00    -0.245 OA
BRANCH  24  26
ATOM     26  O   UNL     1       5.960  -4.185   1.327  0.00  0.00    -0.458 OA
BRANCH  26  27
ATOM     27  C   UNL     1       6.784  -5.003   2.160  0.00  0.00    +0.264 C 
BRANCH  27  28
ATOM     28  C   UNL     1       6.476  -6.478   1.891  0.00  0.00    +0.156 C 
ATOM     29  C   UNL     1       7.277  -7.366   2.867  0.00  0.00    +0.037 C 
ATOM     30  C   UNL     1       7.700  -8.554   1.960  0.00  0.00    +0.031 C 
ATOM     31  C   UNL     1       7.902  -7.832   0.604  0.00  0.00    +0.160 C 
ATOM     32  O   UNL     1       6.880  -6.823   0.561  0.00  0.00    -0.373 OA
ENDBRANCH  27  28
ENDBRANCH  26  27
ENDBRANCH  24  26
ENDBRANCH   9  24
TORSDOF 6
