REMARK  Name = ZINC13361301
REMARK  7 active torsions:
REMARK  status: ('A' for Active; 'I' for Inactive)
REMARK    1  A    between atoms: C_1  and  C_2
REMARK    2  A    between atoms: C_5  and  S_10
REMARK    3  A    between atoms: C_7  and  C_8
REMARK    4  A    between atoms: S_10  and  N_13
REMARK    5  A    between atoms: N_13  and  N_14
REMARK    6  A    between atoms: C_15  and  C_17
REMARK    7  A    between atoms: C_24  and  C_27
REMARK                            x       y       z     vdW  Elec       q    Type
REMARK                         _______ _______ _______ _____ _____    ______ ____
ROOT
ATOM      1  N   UNL     1      -4.788   1.619   0.212  0.00  0.00    -0.108 NA
ATOM      2  H   UNL     1      -4.925   1.030  -0.546  0.00  0.00    +0.172 HD
ENDROOT
BRANCH   1   3
ATOM      3  N   UNL     1      -3.503   2.094   0.508  0.00  0.00    -0.227 N 
ATOM      4  C   UNL     1      -2.489   1.224   0.690  0.00  0.00    +0.265 C 
ATOM      5  O   UNL     1      -2.690   0.028   0.597  0.00  0.00    -0.268 OA
ATOM      6  H   UNL     1      -3.343   3.047   0.582  0.00  0.00    +0.171 HD
BRANCH   4   7
ATOM      7  C   UNL     1      -1.145   1.721   1.000  0.00  0.00    +0.076 A 
ATOM      8  C   UNL     1       0.018   1.007   1.220  0.00  0.00    +0.024 A 
ATOM      9  C   UNL     1       1.178   1.715   1.492  0.00  0.00    -0.036 A 
ATOM     10  C   UNL     1       1.074   3.076   1.526  0.00  0.00    -0.006 A 
ATOM     11  S   UNL     1      -0.583   3.404   1.193  0.00  0.00    -0.088 S 
ATOM     12  C   UNL     1       2.172   4.059   1.796  0.00  0.00    +0.043 C 
ATOM     13  C   UNL     1       3.517   3.331   1.665  0.00  0.00    +0.009 C 
ATOM     14  C   UNL     1       3.448   2.021   2.455  0.00  0.00    -0.009 C 
ATOM     15  C   UNL     1       2.520   1.033   1.747  0.00  0.00    +0.039 C 
ATOM     16  C   UNL     1       4.849   1.416   2.561  0.00  0.00    +0.008 C 
ENDBRANCH   4   7
ENDBRANCH   1   3
BRANCH   1  17
ATOM     17  S   UNL     1      -6.073   2.065   1.157  0.00  0.00    +0.074 S 
ATOM     18  O   UNL     1      -7.238   1.550   0.527  0.00  0.00    -0.152 OA
ATOM     19  O   UNL     1      -5.724   1.740   2.496  0.00  0.00    -0.152 OA
BRANCH  17  24
ATOM     20  C   UNL     1      -6.503   8.086   0.865  0.00  0.00    +0.044 C 
ATOM     21  C   UNL     1      -6.393   6.585   0.941  0.00  0.00    -0.036 A 
ATOM     22  C   UNL     1      -7.068   5.795   0.033  0.00  0.00    +0.006 A 
ATOM     23  C   UNL     1      -6.968   4.417   0.101  0.00  0.00    +0.029 A 
ATOM     24  C   UNL     1      -6.192   3.821   1.079  0.00  0.00    +0.108 A 
ATOM     25  C   UNL     1      -5.517   4.598   1.997  0.00  0.00    +0.044 A 
ATOM     26  C   UNL     1      -5.609   5.990   1.931  0.00  0.00    +0.068 A 
BRANCH  26  27
ATOM     27  C   UNL     1      -4.884   6.829   2.907  0.00  0.00    +0.387 C 
ATOM     28  O   UNL     1      -5.054   8.031   2.919  0.00  0.00    -0.241 OA
ATOM     29  O   UNL     1      -4.034   6.260   3.784  0.00  0.00    -0.241 OA
ENDBRANCH  26  27
ENDBRANCH  17  24
ENDBRANCH   1  17
TORSDOF 5
