REMARK  Name = ZINC12899684
REMARK  5 active torsions:
REMARK  status: ('A' for Active; 'I' for Inactive)
REMARK    1  A    between atoms: C_1  and  C_2
REMARK    2  A    between atoms: C_2  and  C_26
REMARK    3  A    between atoms: N_5  and  N_9
REMARK    4  A    between atoms: C_10  and  C_12
REMARK    5  A    between atoms: N_17  and  C_19
REMARK                            x       y       z     vdW  Elec       q    Type
REMARK                         _______ _______ _______ _____ _____    ______ ____
ROOT
ATOM      1  N   UNL     1      -2.671   4.671   1.269  0.00  0.00    -0.223 N 
ATOM      2  C   UNL     1      -3.206   5.182   0.142  0.00  0.00    +0.235 C 
ATOM      3  O   UNL     1      -3.229   4.519  -0.873  0.00  0.00    -0.274 OA
ATOM      4  H   UNL     1      -2.652   5.201   2.081  0.00  0.00    +0.174 HD
ENDROOT
BRANCH   1   9
ATOM      5  C   UNL     1      -0.013   1.086   0.008  0.00  0.00    +0.047 C 
ATOM      6  C   UNL     1      -0.729   1.579   1.267  0.00  0.00    +0.137 C 
ATOM      7  C   UNL     1      -0.825   3.092   1.267  0.00  0.00    +0.267 C 
ATOM      8  O   UNL     1       0.092   3.884   1.267  0.00  0.00    -0.271 OA
ATOM      9  N   UNL     1      -2.143   3.373   1.268  0.00  0.00    -0.137 N 
ATOM     10  C   UNL     1      -2.885   2.260   1.268  0.00  0.00    +0.327 C 
ATOM     11  O   UNL     1      -4.101   2.258   1.269  0.00  0.00    -0.251 OA
ATOM     12  N   UNL     1      -2.135   1.139   1.269  0.00  0.00    -0.280 N 
ATOM     13  H   UNL     1      -2.455   0.224   1.271  0.00  0.00    +0.152 HD
BRANCH   6  14
ATOM     14  C   UNL     1      -0.019   1.093   2.504  0.00  0.00    -0.015 A 
ATOM     15  C   UNL     1       0.979   1.861   3.075  0.00  0.00    +0.006 A 
ATOM     16  C   UNL     1       1.627   1.417   4.213  0.00  0.00    +0.000 A 
ATOM     17  C   UNL     1       1.284   0.200   4.773  0.00  0.00    +0.000 A 
ATOM     18  C   UNL     1       0.291  -0.570   4.199  0.00  0.00    +0.000 A 
ATOM     19  C   UNL     1      -0.361  -0.124   3.064  0.00  0.00    +0.006 A 
ENDBRANCH   6  14
ENDBRANCH   1   9
BRANCH   2  20
ATOM     20  C   UNL     1      -3.774   6.578   0.144  0.00  0.00    +0.103 C 
ATOM     21  C   UNL     1      -4.999   6.676   1.082  0.00  0.00    +0.110 C 
ATOM     22  C   UNL     1      -5.942   7.615   0.363  0.00  0.00    +0.221 C 
ATOM     23  O   UNL     1      -6.888   8.176   0.875  0.00  0.00    -0.275 OA
ATOM     24  N   UNL     1      -5.579   7.739  -0.925  0.00  0.00    -0.268 N 
ATOM     25  C   UNL     1      -4.397   6.922  -1.227  0.00  0.00    +0.127 C 
BRANCH  24  26
ATOM     26  C   UNL     1      -6.242   8.544  -1.860  0.00  0.00    +0.072 A 
ATOM     27  C   UNL     1      -7.281   8.019  -2.617  0.00  0.00    +0.026 A 
ATOM     28  C   UNL     1      -7.937   8.817  -3.535  0.00  0.00    +0.002 A 
ATOM     29  C   UNL     1      -7.554  10.134  -3.708  0.00  0.00    +0.003 A 
ATOM     30  C   UNL     1      -6.517  10.660  -2.959  0.00  0.00    +0.040 A 
ATOM     31  C   UNL     1      -5.859   9.869  -2.035  0.00  0.00    +0.145 A 
ATOM     32  F   UNL     1      -4.846  10.383  -1.304  0.00  0.00    -0.204 F 
ENDBRANCH  24  26
ENDBRANCH   2  20
TORSDOF 4
