REMARK  Name = ZINC35397150
REMARK  10 active torsions:
REMARK  status: ('A' for Active; 'I' for Inactive)
REMARK    1  A    between atoms: C_1  and  C_2
REMARK    2  A    between atoms: C_2  and  C_3
REMARK    3  A    between atoms: C_2  and  C_4
REMARK    4  A    between atoms: C_2  and  C_5
REMARK    5  A    between atoms: C_8  and  C_11
REMARK    6  A    between atoms: N_16  and  C_19
REMARK    7  A    between atoms: C_21  and  S_22
REMARK    8  A    between atoms: S_22  and  C_23
REMARK    9  A    between atoms: C_23  and  C_24
REMARK   10  A    between atoms: N_26  and  C_27
REMARK                            x       y       z     vdW  Elec       q    Type
REMARK                         _______ _______ _______ _____ _____    ______ ____
ROOT
ATOM      1  C   UNL     1       2.453  -1.163  -5.458  0.00  0.00    +0.100 C 
ATOM      2  N   UNL     1       3.692  -0.922  -5.768  0.00  0.00    -0.251 NA
ATOM      3  C   UNL     1       4.080  -1.894  -6.794  0.00  0.00    +0.150 C 
ATOM      4  C   UNL     1       5.242  -2.752  -6.293  0.00  0.00    +0.035 C 
ATOM      5  C   UNL     1       6.475  -1.866  -6.097  0.00  0.00    -0.075 C 
ATOM      6  N   UNL     1       6.834  -1.234  -7.372  0.00  0.00    +0.378 N 
ATOM      7  C   UNL     1       5.750  -0.346  -7.812  0.00  0.00    -0.075 C 
ATOM      8  C   UNL     1       4.488  -1.169  -8.077  0.00  0.00    +0.035 C 
ATOM      9  C   UNL     1       8.065  -0.452  -7.199  0.00  0.00    -0.096 C 
ATOM     10  N   UNL     1       2.904  -2.733  -7.041  0.00  0.00    -0.246 NA
ATOM     11  C   UNL     1       1.957  -2.309  -6.256  0.00  0.00    +0.120 C 
ATOM     12  H   UNL     1       6.986  -1.947  -8.069  0.00  0.00    -0.082 HD
ENDROOT
BRANCH   1  16
ATOM     13  C   UNL     1       0.180   0.992  -2.585  0.00  0.00    -0.042 A 
ATOM     14  C   UNL     1      -0.462   0.342  -3.625  0.00  0.00    +0.005 A 
ATOM     15  C   UNL     1       0.270  -0.359  -4.560  0.00  0.00    +0.010 A 
ATOM     16  C   UNL     1       1.661  -0.412  -4.457  0.00  0.00    +0.003 A 
ATOM     17  C   UNL     1       2.302   0.246  -3.407  0.00  0.00    +0.010 A 
ATOM     18  C   UNL     1       1.559   0.948  -2.481  0.00  0.00    +0.005 A 
BRANCH  13  20
ATOM     19  C   UNL     1      -0.206   3.227  -1.583  0.00  0.00    +0.015 C 
ATOM     20  C   UNL     1      -0.626   1.756  -1.567  0.00  0.00    -0.013 C 
ATOM     21  C   UNL     1      -0.377   1.169  -0.176  0.00  0.00    +0.015 C 
ATOM     22  C   UNL     1      -2.114   1.647  -1.907  0.00  0.00    +0.015 C 
ENDBRANCH  13  20
ENDBRANCH   1  16
BRANCH  11  23
ATOM     23  S   UNL     1       0.334  -2.988  -6.160  0.00  0.00    -0.095 S 
BRANCH  23  24
ATOM     24  C   UNL     1       0.354  -4.345  -7.365  0.00  0.00    +0.172 C 
BRANCH  24  25
ATOM     25  C   UNL     1      -0.993  -5.020  -7.383  0.00  0.00    +0.228 C 
ATOM     26  O   UNL     1      -1.879  -4.625  -6.656  0.00  0.00    -0.275 OA
ATOM     27  N   UNL     1      -1.212  -6.063  -8.209  0.00  0.00    -0.283 N 
ATOM     28  H   UNL     1      -0.481  -6.431  -8.730  0.00  0.00    +0.155 HD
BRANCH  27  29
ATOM     29  C   UNL     1      -2.496  -6.615  -8.314  0.00  0.00    +0.069 A 
ATOM     30  C   UNL     1      -3.604  -5.877  -7.923  0.00  0.00    +0.029 A 
ATOM     31  C   UNL     1      -4.869  -6.423  -8.027  0.00  0.00    +0.040 A 
ATOM     32  C   UNL     1      -5.033  -7.706  -8.521  0.00  0.00    +0.126 A 
ATOM     33  C   UNL     1      -3.929  -8.446  -8.911  0.00  0.00    +0.078 A 
ATOM     34  C   UNL     1      -2.662  -7.902  -8.815  0.00  0.00    +0.147 A 
ATOM     35  F   UNL     1      -1.585  -8.621  -9.201  0.00  0.00    -0.203 F 
ATOM     36  F   UNL     1      -6.271  -8.238  -8.622  0.00  0.00    -0.205 F 
ENDBRANCH  27  29
ENDBRANCH  24  25
ENDBRANCH  23  24
ENDBRANCH  11  23
TORSDOF 6
