REMARK  Name = ZINC09236845
REMARK  7 active torsions:
REMARK  status: ('A' for Active; 'I' for Inactive)
REMARK    1  A    between atoms: C_1  and  C_2
REMARK    2  A    between atoms: C_8  and  C_26
REMARK    3  A    between atoms: C_10  and  C_13
REMARK    4  A    between atoms: N_15  and  C_16
REMARK    5  A    between atoms: C_20  and  C_22
REMARK    6  A    between atoms: C_29  and  O_32
REMARK    7  A    between atoms: O_32  and  C_33
REMARK                            x       y       z     vdW  Elec       q    Type
REMARK                         _______ _______ _______ _____ _____    ______ ____
ROOT
ATOM      1  C   UNL     1      -1.776  -0.867   0.238  0.00  0.00    +0.090 C 
ATOM      2  C   UNL     1      -0.508  -0.052   0.207  0.00  0.00    +0.148 A 
ATOM      3  N   UNL     1       0.710  -0.518   0.212  0.00  0.00    -0.132 NA
ATOM      4  N   UNL     1       1.557   0.453   0.184  0.00  0.00    -0.121 NA
ATOM      5  C   UNL     1       0.915   1.588   0.164  0.00  0.00    +0.209 A 
ATOM      6  N   UNL     1      -0.422   1.310   0.170  0.00  0.00    -0.225 N 
ATOM      7  N   UNL     1      -1.444   2.205   0.134  0.00  0.00    -0.272 N 
ATOM      8  C   UNL     1      -1.070   3.542   0.597  0.00  0.00    +0.140 C 
ATOM      9  C   UNL     1       0.058   4.114  -0.271  0.00  0.00    +0.166 C 
ATOM     10  S   UNL     1       1.587   3.220   0.142  0.00  0.00    -0.069 S 
ATOM     11  H   UNL     1      -1.860   2.243  -0.784  0.00  0.00    +0.167 HD
ENDROOT
BRANCH   8  12
ATOM     12  C   UNL     1      -2.270   4.450   0.516  0.00  0.00    -0.024 A 
ATOM     13  C   UNL     1      -3.114   4.384  -0.578  0.00  0.00    +0.009 A 
ATOM     14  C   UNL     1      -4.217   5.211  -0.652  0.00  0.00    +0.046 A 
ATOM     15  C   UNL     1      -4.473   6.118   0.366  0.00  0.00    +0.120 A 
ATOM     16  C   UNL     1      -3.622   6.186   1.460  0.00  0.00    +0.046 A 
ATOM     17  C   UNL     1      -2.523   5.353   1.532  0.00  0.00    +0.009 A 
BRANCH  15  18
ATOM     18  O   UNL     1      -5.554   6.937   0.293  0.00  0.00    -0.495 OA
ATOM     19  C   UNL     1      -6.386   6.811  -0.862  0.00  0.00    +0.277 C 
ENDBRANCH  15  18
ENDBRANCH   8  12
BRANCH   9  20
ATOM     20  C   UNL     1      -0.270   3.917  -1.729  0.00  0.00    +0.233 C 
ATOM     21  O   UNL     1       0.111   2.921  -2.307  0.00  0.00    -0.274 OA
ATOM     22  N   UNL     1      -0.986   4.848  -2.390  0.00  0.00    -0.285 N 
ATOM     23  H   UNL     1      -1.233   5.675  -1.946  0.00  0.00    +0.155 HD
BRANCH  22  24
ATOM     24  C   UNL     1      -1.371   4.623  -3.716  0.00  0.00    +0.034 A 
ATOM     25  C   UNL     1      -0.519   3.953  -4.584  0.00  0.00    +0.023 A 
ATOM     26  C   UNL     1      -0.905   3.728  -5.891  0.00  0.00    +0.002 A 
ATOM     27  C   UNL     1      -2.134   4.177  -6.338  0.00  0.00    +0.012 A 
ATOM     28  C   UNL     1      -2.983   4.849  -5.477  0.00  0.00    +0.057 A 
ATOM     29  C   UNL     1      -2.605   5.073  -4.168  0.00  0.00    +0.035 A 
BRANCH  28  30
ATOM     30  C   UNL     1      -4.321   5.337  -5.968  0.00  0.00    +0.417 C 
ATOM     31  F   UNL     1      -4.187   6.634  -6.475  0.00  0.00    -0.166 F 
ATOM     32  F   UNL     1      -4.785   4.487  -6.979  0.00  0.00    -0.166 F 
ATOM     33  F   UNL     1      -5.234   5.342  -4.908  0.00  0.00    -0.166 F 
ENDBRANCH  28  30
ENDBRANCH  22  24
ENDBRANCH   9  20
TORSDOF 5
