REMARK  Name = ZINC33010946
REMARK  5 active torsions:
REMARK  status: ('A' for Active; 'I' for Inactive)
REMARK    1  A    between atoms: C_6  and  S_7
REMARK    2  A    between atoms: S_7  and  C_8
REMARK    3  A    between atoms: C_8  and  C_9
REMARK    4  A    between atoms: C_23  and  O_31
REMARK    5  A    between atoms: C_26  and  C_28
REMARK                            x       y       z     vdW  Elec       q    Type
REMARK                         _______ _______ _______ _____ _____    ______ ____
ROOT
ATOM      1  C   UNL     1       0.015   1.271   0.348  0.00  0.00    +0.142 A 
ATOM      2  N   UNL     1       1.131   1.979   0.331  0.00  0.00    -0.216 NA
ATOM      3  C   UNL     1       2.295   1.450  -0.012  0.00  0.00    +0.134 A 
ATOM      4  C   UNL     1       2.348   0.076  -0.373  0.00  0.00    +0.051 A 
ATOM      5  C   UNL     1       3.518  -0.718  -0.784  0.00  0.00    -0.025 A 
ATOM      6  C   UNL     1       3.302  -2.011  -1.073  0.00  0.00    -0.004 A 
ATOM      7  S   UNL     1       1.558  -2.256  -0.827  0.00  0.00    -0.073 S 
ATOM      8  C   UNL     1       1.122  -0.612  -0.330  0.00  0.00    +0.114 A 
ATOM      9  N   UNL     1       0.004  -0.007   0.023  0.00  0.00    -0.224 NA
ATOM     10  C   UNL     1       4.567  -2.722  -1.475  0.00  0.00    +0.043 C 
ATOM     11  C   UNL     1       5.704  -1.798  -0.987  0.00  0.00    +0.010 C 
ATOM     12  C   UNL     1       5.008  -0.423  -0.981  0.00  0.00    +0.037 C 
ATOM     13  N   UNL     1       3.442   2.223  -0.019  0.00  0.00    -0.300 N 
ATOM     14  C   UNL     1       3.828   2.611   1.355  0.00  0.00    +0.138 C 
ATOM     15  C   UNL     1       4.446   4.019   1.270  0.00  0.00    +0.134 C 
ATOM     16  C   UNL     1       4.356   4.410  -0.223  0.00  0.00    +0.064 C 
ATOM     17  C   UNL     1       3.223   3.495  -0.753  0.00  0.00    +0.163 C 
ENDROOT
BRANCH  17  18
ATOM     18  C   UNL     1       3.362   3.283  -2.239  0.00  0.00    +0.231 C 
ATOM     19  O   UNL     1       3.621   2.180  -2.672  0.00  0.00    -0.274 OA
ATOM     20  N   UNL     1       3.200   4.318  -3.086  0.00  0.00    -0.328 N 
ATOM     21  H   UNL     1       3.301   4.163  -4.170  0.00  0.00    +0.145 HD
ATOM     22  H   UNL     1       2.966   5.319  -2.693  0.00  0.00    +0.145 HD
ENDBRANCH  17  18
BRANCH  15  23
ATOM     23  O   UNL     1       5.810   3.989   1.694  0.00  0.00    -0.390 OA
ATOM     24  H   UNL     1       6.406   4.913   1.696  0.00  0.00    +0.210 HD
ENDBRANCH  15  23
BRANCH   1  25
ATOM     25  C   UNL     1      -1.275   1.942   0.743  0.00  0.00    +0.150 C 
BRANCH  25  26
ATOM     26  S   UNL     1      -1.510   1.793   2.536  0.00  0.00    -0.117 S 
BRANCH  26  32
ATOM     27  C   UNL     1      -3.742   3.186   1.780  0.00  0.00    +0.016 A 
ATOM     28  C   UNL     1      -4.942   3.825   2.017  0.00  0.00    +0.021 A 
ATOM     29  C   UNL     1      -5.443   3.906   3.304  0.00  0.00    +0.041 A 
ATOM     30  C   UNL     1      -4.744   3.342   4.358  0.00  0.00    +0.021 A 
ATOM     31  C   UNL     1      -3.545   2.697   4.127  0.00  0.00    +0.016 A 
ATOM     32  C   UNL     1      -3.040   2.615   2.835  0.00  0.00    +0.008 A 
ATOM     33 CL   UNL     1      -6.949   4.717   3.599  0.00  0.00    -0.084 Cl
ENDBRANCH  26  32
ENDBRANCH  25  26
ENDBRANCH   1  25
TORSDOF 5
