REMARK  Name = ZINC41006712
REMARK  8 active torsions:
REMARK  status: ('A' for Active; 'I' for Inactive)
REMARK    1  A    between atoms: C_1  and  C_2
REMARK    2  A    between atoms: C_2  and  O_38
REMARK    3  A    between atoms: C_6  and  C_29
REMARK    4  A    between atoms: C_8  and  C_21
REMARK    5  A    between atoms: C_10  and  C_12
REMARK    6  A    between atoms: N_14  and  C_15
REMARK    7  A    between atoms: C_22  and  C_23
REMARK    8  A    between atoms: N_31  and  C_32
REMARK                            x       y       z     vdW  Elec       q    Type
REMARK                         _______ _______ _______ _____ _____    ______ ____
ROOT
ATOM      1  C   UNL     1      -0.188   0.666   0.120  0.00  0.00    +0.042 C 
ATOM      2  C   UNL     1       0.486  -0.707   0.114  0.00  0.00    +0.082 C 
ATOM      3  C   UNL     1      -0.575  -1.799   0.285  0.00  0.00    +0.110 C 
ATOM      4  C   UNL     1       0.125  -3.134   0.411  0.00  0.00    +0.148 C 
ATOM      5  O   UNL     1      -0.196  -4.069  -0.284  0.00  0.00    -0.296 OA
ATOM      6  C   UNL     1       1.236  -3.269   1.427  0.00  0.00    +0.149 C 
ATOM      7  C   UNL     1       2.232  -2.123   1.215  0.00  0.00    +0.045 C 
ATOM      8  C   UNL     1       1.489  -0.788   1.267  0.00  0.00    +0.115 C 
ENDROOT
BRANCH   8   9
ATOM      9  C   UNL     1       0.755  -0.673   2.578  0.00  0.00    +0.224 C 
ATOM     10  O   UNL     1      -0.101  -1.483   2.866  0.00  0.00    -0.275 OA
ATOM     11  N   UNL     1       1.049   0.329   3.430  0.00  0.00    -0.285 N 
ATOM     12  H   UNL     1       1.652   1.038   3.155  0.00  0.00    +0.155 HD
BRANCH  11  13
ATOM     13  C   UNL     1       0.486   0.347   4.710  0.00  0.00    +0.033 A 
ATOM     14  C   UNL     1      -0.696  -0.339   4.960  0.00  0.00    +0.023 A 
ATOM     15  C   UNL     1      -1.249  -0.319   6.225  0.00  0.00    +0.002 A 
ATOM     16  C   UNL     1      -0.629   0.382   7.242  0.00  0.00    +0.000 A 
ATOM     17  C   UNL     1       0.547   1.067   6.997  0.00  0.00    +0.002 A 
ATOM     18  C   UNL     1       1.110   1.046   5.735  0.00  0.00    +0.023 A 
ENDBRANCH  11  13
ENDBRANCH   8   9
BRANCH   6  19
ATOM     19  C   UNL     1       1.934  -4.592   1.243  0.00  0.00    +0.228 C 
ATOM     20  O   UNL     1       3.118  -4.622   0.983  0.00  0.00    -0.275 OA
ATOM     21  N   UNL     1       1.241  -5.742   1.367  0.00  0.00    -0.285 N 
ATOM     22  H   UNL     1       0.276  -5.719   1.460  0.00  0.00    +0.155 HD
BRANCH  21  23
ATOM     23  C   UNL     1       1.915  -6.968   1.362  0.00  0.00    +0.033 A 
ATOM     24  C   UNL     1       1.297  -8.099   0.845  0.00  0.00    +0.023 A 
ATOM     25  C   UNL     1       1.965  -9.308   0.841  0.00  0.00    +0.002 A 
ATOM     26  C   UNL     1       3.247  -9.393   1.352  0.00  0.00    +0.000 A 
ATOM     27  C   UNL     1       3.865  -8.269   1.868  0.00  0.00    +0.002 A 
ATOM     28  C   UNL     1       3.205  -7.055   1.869  0.00  0.00    +0.023 A 
ENDBRANCH  21  23
ENDBRANCH   6  19
BRANCH   7  29
ATOM     29  C   UNL     1       3.278  -2.159   2.299  0.00  0.00    -0.021 C 
ATOM     30  C   UNL     1       4.557  -2.310   1.982  0.00  0.00    +0.004 C 
BRANCH  30  31
ATOM     31  C   UNL     1       5.583  -2.345   3.045  0.00  0.00    -0.025 A 
ATOM     32  C   UNL     1       5.208  -2.226   4.384  0.00  0.00    +0.008 A 
ATOM     33  C   UNL     1       6.171  -2.259   5.372  0.00  0.00    +0.001 A 
ATOM     34  C   UNL     1       7.505  -2.410   5.037  0.00  0.00    +0.000 A 
ATOM     35  C   UNL     1       7.883  -2.529   3.712  0.00  0.00    +0.001 A 
ATOM     36  C   UNL     1       6.929  -2.503   2.715  0.00  0.00    +0.008 A 
ENDBRANCH  30  31
ENDBRANCH   7  29
BRANCH   2  37
ATOM     37  O   UNL     1       1.170  -0.897  -1.126  0.00  0.00    -0.388 OA
ATOM     38  H   UNL     1       0.595  -0.859  -1.903  0.00  0.00    +0.210 HD
ENDBRANCH   2  37
TORSDOF 7
