REMARK  Name = ZINC32971813
REMARK  9 active torsions:
REMARK  status: ('A' for Active; 'I' for Inactive)
REMARK    1  A    between atoms: C_1  and  C_2
REMARK    2  A    between atoms: C_2  and  N_3
REMARK    3  A    between atoms: C_4  and  C_32
REMARK    4  A    between atoms: C_5  and  C_9
REMARK    5  A    between atoms: C_6  and  C_8
REMARK    6  A    between atoms: C_9  and  N_10
REMARK    7  A    between atoms: N_12  and  C_13
REMARK    8  A    between atoms: N_20  and  C_21
REMARK    9  A    between atoms: C_21  and  C_23
REMARK                            x       y       z     vdW  Elec       q    Type
REMARK                         _______ _______ _______ _____ _____    ______ ____
ROOT
ATOM      1  N   UNL     1       2.564  -0.999  -6.108  0.00  0.00    -0.353 N 
ATOM      2  C   UNL     1       1.568  -0.723  -6.998  0.00  0.00    +0.194 C 
ATOM      3  N   UNL     1       0.811  -1.737  -7.512  0.00  0.00    -0.328 N 
ATOM      4  N   UNL     1       1.335   0.528  -7.365  0.00  0.00    -0.143 NA
ATOM      5  H   UNL     1       2.882  -0.307  -5.506  0.00  0.00    +0.163 HD
ATOM      6  H   UNL     1       0.509  -1.699  -8.433  0.00  0.00    +0.169 HD
ENDROOT
BRANCH   3   7
ATOM      7  C   UNL     1       0.470  -2.831  -6.709  0.00  0.00    +0.042 A 
ATOM      8  C   UNL     1       0.247  -2.654  -5.350  0.00  0.00    +0.027 A 
ATOM      9  C   UNL     1      -0.089  -3.736  -4.560  0.00  0.00    +0.017 A 
ATOM     10  C   UNL     1      -0.204  -4.995  -5.121  0.00  0.00    +0.018 A 
ATOM     11  C   UNL     1       0.018  -5.174  -6.475  0.00  0.00    +0.017 A 
ATOM     12  C   UNL     1       0.350  -4.095  -7.271  0.00  0.00    +0.027 A 
ATOM     13 BR   UNL     1      -0.664  -6.474  -4.036  0.00  0.00    -0.050 Br
ENDBRANCH   3   7
BRANCH   4  14
ATOM     14  C   UNL     1       0.398   0.793  -8.286  0.00  0.00    +0.270 C 
ATOM     15  O   UNL     1      -0.318  -0.101  -8.702  0.00  0.00    -0.268 OA
BRANCH  14  16
ATOM     16  C   UNL     1       0.233   2.171  -8.798  0.00  0.00    +0.043 A 
ATOM     17  C   UNL     1       1.123   3.173  -8.407  0.00  0.00    +0.017 A 
ATOM     18  C   UNL     1       0.968   4.457  -8.885  0.00  0.00    +0.050 A 
ATOM     19  C   UNL     1      -0.071   4.757  -9.756  0.00  0.00    +0.166 A 
ATOM     20  C   UNL     1      -0.962   3.760 -10.150  0.00  0.00    +0.167 A 
ATOM     21  C   UNL     1      -0.808   2.470  -9.678  0.00  0.00    +0.062 A 
ATOM     22  O   UNL     1      -1.881   4.307 -10.999  0.00  0.00    -0.453 OA
ATOM     23  C   UNL     1      -1.788   5.730 -10.799  0.00  0.00    +0.466 C 
ATOM     24  O   UNL     1      -0.432   5.926 -10.358  0.00  0.00    -0.453 OA
ENDBRANCH  14  16
ENDBRANCH   4  14
BRANCH   1  25
ATOM     25  C   UNL     1       3.154  -2.339  -6.061  0.00  0.00    +0.154 C 
BRANCH  25  28
ATOM     26  N   UNL     1       5.522  -2.506  -3.293  0.00  0.00    -0.268 N 
ATOM     27  C   UNL     1       4.269  -2.607  -3.784  0.00  0.00    +0.041 A 
ATOM     28  C   UNL     1       4.323  -2.340  -5.109  0.00  0.00    +0.015 A 
ATOM     29  C   UNL     1       5.654  -2.066  -5.440  0.00  0.00    +0.065 A 
ATOM     30  N   UNL     1       6.373  -2.159  -4.351  0.00  0.00    -0.176 NA
ATOM     31  C   UNL     1       6.170  -1.717  -6.812  0.00  0.00    +0.068 C 
ATOM     32  C   UNL     1       3.032  -2.956  -2.997  0.00  0.00    +0.065 C 
BRANCH  26  34
ATOM     33  C   UNL     1       5.833  -1.390  -1.139  0.00  0.00    +0.029 C 
ATOM     34  C   UNL     1       5.921  -2.715  -1.899  0.00  0.00    +0.140 C 
ENDBRANCH  26  34
ENDBRANCH  25  28
ENDBRANCH   1  25
TORSDOF 6
