REMARK  Name = ZINC44924262
REMARK  4 active torsions:
REMARK  status: ('A' for Active; 'I' for Inactive)
REMARK    1  A    between atoms: C_1  and  C_2
REMARK    2  A    between atoms: C_2  and  N_9
REMARK    3  A    between atoms: N_9  and  C_10
REMARK    4  A    between atoms: C_15  and  N_16
REMARK                            x       y       z     vdW  Elec       q    Type
REMARK                         _______ _______ _______ _____ _____    ______ ____
ROOT
ATOM      1  C   UNL     1       0.420  -0.208  -2.437  0.00  0.00    +0.049 A 
ATOM      2  C   UNL     1      -0.568   0.736  -2.671  0.00  0.00    +0.030 A 
ATOM      3  C   UNL     1      -0.907   1.077  -3.967  0.00  0.00    -0.024 A 
ATOM      4  C   UNL     1      -0.260   0.475  -5.038  0.00  0.00    +0.038 A 
ATOM      5  C   UNL     1       0.730  -0.471  -4.810  0.00  0.00    +0.048 A 
ATOM      6  C   UNL     1       1.076  -0.810  -3.511  0.00  0.00    +0.047 A 
ATOM      7  N   UNL     1      -0.609   0.823  -6.349  0.00  0.00    -0.285 N 
ATOM      8  C   UNL     1      -1.272   1.968  -6.597  0.00  0.00    +0.218 C 
ATOM      9  O   UNL     1      -1.579   2.248  -7.737  0.00  0.00    -0.275 OA
ATOM     10  C   UNL     1      -1.637   2.903  -5.477  0.00  0.00    +0.101 C 
ATOM     11  C   UNL     1      -1.982   2.102  -4.221  0.00  0.00    +0.046 C 
ATOM     12  H   UNL     1      -0.371   0.236  -7.084  0.00  0.00    +0.155 HD
ENDROOT
BRANCH   6  13
ATOM     13  N   UNL     1       2.079  -1.759  -3.278  0.00  0.00    -0.356 N 
ATOM     14  H   UNL     1       2.317  -1.998  -2.369  0.00  0.00    +0.142 HD
ATOM     15  H   UNL     1       2.534  -2.177  -4.025  0.00  0.00    +0.142 HD
ENDBRANCH   6  13
BRANCH   1  16
ATOM     16  N   UNL     1       0.764  -0.553  -1.122  0.00  0.00    -0.336 N 
ATOM     17  H   UNL     1       1.515  -1.145  -0.957  0.00  0.00    +0.147 HD
BRANCH  16  19
ATOM     18  C   UNL     1      -1.463  -0.478  -0.146  0.00  0.00    +0.033 C 
ATOM     19  C   UNL     1      -0.011  -0.020   0.001  0.00  0.00    +0.050 C 
ATOM     20  C   UNL     1       0.555  -0.596   1.298  0.00  0.00    +0.049 C 
ATOM     21  C   UNL     1       1.671   0.330   1.857  0.00  0.00    +0.168 C 
ATOM     22  S   UNL     1       0.918   1.976   1.490  0.00  0.00    -0.029 S 
ATOM     23  O   UNL     1       1.949   2.903   1.181  0.00  0.00    -0.174 OA
ATOM     24  O   UNL     1      -0.031   2.291   2.499  0.00  0.00    -0.174 OA
ATOM     25  C   UNL     1       0.030   1.519  -0.057  0.00  0.00    +0.191 C 
ENDBRANCH  16  19
ENDBRANCH   1  16
TORSDOF 3
