REMARK  Name = ZINC14553659
REMARK  4 active torsions:
REMARK  status: ('A' for Active; 'I' for Inactive)
REMARK    1  A    between atoms: C_1  and  C_2
REMARK    2  A    between atoms: C_6  and  C_8
REMARK    3  A    between atoms: N_10  and  C_11
REMARK    4  A    between atoms: C_24  and  C_27
REMARK                            x       y       z     vdW  Elec       q    Type
REMARK                         _______ _______ _______ _____ _____    ______ ____
ROOT
ATOM      1  C   UNL     1      -1.221   1.756   0.012  0.00  0.00    +0.034 A 
ATOM      2  C   UNL     1      -0.021   1.083  -0.178  0.00  0.00    +0.025 A 
ATOM      3  C   UNL     1       1.163   1.792  -0.189  0.00  0.00    +0.025 A 
ATOM      4  C   UNL     1       1.154   3.169  -0.009  0.00  0.00    +0.031 A 
ATOM      5  C   UNL     1      -0.040   3.847   0.189  0.00  0.00    -0.018 A 
ATOM      6  C   UNL     1      -1.228   3.129   0.200  0.00  0.00    +0.029 A 
ATOM      7  C   UNL     1      -0.096   5.328   0.392  0.00  0.00    +0.049 C 
ATOM      8  C   UNL     1      -0.610   6.033  -0.841  0.00  0.00    -0.023 C 
ATOM      9  C   UNL     1       0.009   7.177  -1.000  0.00  0.00    -0.030 C 
ATOM     10  C   UNL     1       1.018   7.395   0.111  0.00  0.00    +0.033 C 
ATOM     11  C   UNL     1       1.289   5.956   0.639  0.00  0.00    +0.029 C 
ATOM     12  C   UNL     1       2.326   5.316  -0.288  0.00  0.00    +0.107 C 
ATOM     13  N   UNL     1       2.366   3.873  -0.032  0.00  0.00    -0.336 N 
ATOM     14  H   UNL     1       3.209   3.417   0.118  0.00  0.00    +0.147 HD
ENDROOT
BRANCH  12  15
ATOM     15  C   UNL     1       1.941   5.564  -1.724  0.00  0.00    -0.002 A 
ATOM     16  C   UNL     1       1.245   4.735  -2.518  0.00  0.00    +0.089 A 
ATOM     17  N   UNL     1       1.087   5.298  -3.755  0.00  0.00    -0.360 N 
ATOM     18  H   UNL     1       0.618   4.887  -4.498  0.00  0.00    +0.165 HD
ATOM     19  C   UNL     1       1.692   6.534  -3.788  0.00  0.00    +0.047 A 
ATOM     20  C   UNL     1       2.249   6.757  -2.515  0.00  0.00    +0.005 A 
ATOM     21  C   UNL     1       2.939   7.942  -2.255  0.00  0.00    +0.010 A 
ATOM     22  C   UNL     1       3.061   8.886  -3.237  0.00  0.00    +0.001 A 
ATOM     23  C   UNL     1       2.509   8.672  -4.492  0.00  0.00    +0.002 A 
ATOM     24  C   UNL     1       1.829   7.507  -4.772  0.00  0.00    +0.026 A 
ENDBRANCH  12  15
BRANCH   1  27
ATOM     25  C   UNL     1      -2.466  -0.213   0.505  0.00  0.00    +0.248 C 
ATOM     26  O   UNL     1      -1.478  -0.694   1.025  0.00  0.00    -0.270 OA
ATOM     27  N   UNL     1      -2.428   1.044   0.018  0.00  0.00    -0.281 N 
ATOM     28  H   UNL     1      -3.235   1.455  -0.327  0.00  0.00    +0.155 HD
BRANCH  25  34
ATOM     29  C   UNL     1      -4.963  -4.448   1.354  0.00  0.00    +0.044 C 
ATOM     30  C   UNL     1      -4.915  -3.043   0.812  0.00  0.00    -0.050 A 
ATOM     31  C   UNL     1      -6.038  -2.492   0.220  0.00  0.00    +0.003 A 
ATOM     32  C   UNL     1      -6.003  -1.203  -0.280  0.00  0.00    +0.001 A 
ATOM     33  C   UNL     1      -4.847  -0.455  -0.186  0.00  0.00    +0.013 A 
ATOM     34  C   UNL     1      -3.709  -1.006   0.405  0.00  0.00    +0.037 A 
ATOM     35  C   UNL     1      -3.752  -2.308   0.908  0.00  0.00    +0.016 A 
ENDBRANCH  25  34
ENDBRANCH   1  27
TORSDOF 3
