REMARK  Name = ZINC65733854
REMARK  7 active torsions:
REMARK  status: ('A' for Active; 'I' for Inactive)
REMARK    1  A    between atoms: C_1  and  C_2
REMARK    2  A    between atoms: N_4  and  C_5
REMARK    3  A    between atoms: C_7  and  O_28
REMARK    4  A    between atoms: C_15  and  C_18
REMARK    5  A    between atoms: C_25  and  O_27
REMARK    6  A    between atoms: O_28  and  C_29
REMARK    7  A    between atoms: C_29  and  C_31
REMARK                            x       y       z     vdW  Elec       q    Type
REMARK                         _______ _______ _______ _____ _____    ______ ____
ROOT
ATOM      1  C   UNL     1       0.020  -2.136  -1.177  0.00  0.00    +0.172 C 
ATOM      2  C   UNL     1       0.620  -2.634  -2.495  0.00  0.00    +0.233 C 
ATOM      3  C   UNL     1       0.565  -4.162  -2.531  0.00  0.00    +0.195 C 
ATOM      4  C   UNL     1      -0.881  -4.629  -2.330  0.00  0.00    +0.179 C 
ATOM      5  C   UNL     1      -0.892  -6.161  -2.249  0.00  0.00    +0.197 C 
ATOM      6  O   UNL     1       0.012  -6.575  -1.220  0.00  0.00    -0.345 OA
ATOM      7  C   UNL     1       1.355  -6.127  -1.415  0.00  0.00    +0.282 C 
ATOM      8  O   UNL     1       1.378  -4.699  -1.485  0.00  0.00    -0.338 OA
ATOM      9  O   UNL     1      -1.396  -4.080  -1.115  0.00  0.00    -0.341 OA
ATOM     10  C   UNL     1      -1.410  -2.669  -1.045  0.00  0.00    +0.272 C 
ENDROOT
BRANCH   7  11
ATOM     11  C   UNL     1       2.210  -6.587  -0.263  0.00  0.00    +0.008 A 
ATOM     12  C   UNL     1       2.857  -5.658   0.531  0.00  0.00    +0.008 A 
ATOM     13  C   UNL     1       3.641  -6.080   1.589  0.00  0.00    +0.000 A 
ATOM     14  C   UNL     1       3.778  -7.430   1.852  0.00  0.00    +0.000 A 
ATOM     15  C   UNL     1       3.131  -8.358   1.059  0.00  0.00    +0.000 A 
ATOM     16  C   UNL     1       2.343  -7.937   0.004  0.00  0.00    +0.008 A 
ENDBRANCH   7  11
BRANCH   1  20
ATOM     17  C   UNL     1      -0.018   1.503   0.010  0.00  0.00    +0.109 C 
ATOM     18  C   UNL     1       0.002  -0.004   0.002  0.00  0.00    +0.210 C 
ATOM     19  O   UNL     1       0.020  -0.616   1.049  0.00  0.00    -0.276 OA
ATOM     20  N   UNL     1       0.000  -0.672  -1.169  0.00  0.00    -0.304 N 
ATOM     21  H   UNL     1      -0.015  -0.182  -2.006  0.00  0.00    +0.149 HD
ENDBRANCH   1  20
BRANCH  10  22
ATOM     22  O   UNL     1      -2.209  -2.160  -2.115  0.00  0.00    -0.365 OA
ATOM     23  H   UNL     1      -3.129  -2.457  -2.095  0.00  0.00    +0.213 HD
ENDBRANCH  10  22
BRANCH   2  24
ATOM     24  O   UNL     1      -0.129  -2.103  -3.591  0.00  0.00    -0.453 OA
BRANCH  24  25
ATOM     25  C   UNL     1       0.274  -0.919  -4.091  0.00  0.00    +0.340 C 
ATOM     26  O   UNL     1       1.235  -0.352  -3.610  0.00  0.00    -0.245 OA
BRANCH  25  27
ATOM     27  C   UNL     1      -0.453  -0.309  -5.223  0.00  0.00    +0.059 A 
ATOM     28  C   UNL     1      -1.561  -0.955  -5.774  0.00  0.00    +0.015 A 
ATOM     29  C   UNL     1      -2.235  -0.380  -6.832  0.00  0.00    +0.001 A 
ATOM     30  C   UNL     1      -1.815   0.834  -7.346  0.00  0.00    +0.000 A 
ATOM     31  C   UNL     1      -0.717   1.478  -6.806  0.00  0.00    +0.001 A 
ATOM     32  C   UNL     1      -0.037   0.918  -5.744  0.00  0.00    +0.015 A 
ENDBRANCH  25  27
ENDBRANCH  24  25
ENDBRANCH   2  24
TORSDOF 6
