REMARK  Name = ZINC35709614
REMARK  11 active torsions:
REMARK  status: ('A' for Active; 'I' for Inactive)
REMARK    1  A    between atoms: C_1  and  C_2
REMARK    2  A    between atoms: C_3  and  C_30
REMARK    3  A    between atoms: C_4  and  C_23
REMARK    4  A    between atoms: C_7  and  C_12
REMARK    5  A    between atoms: C_13  and  N_15
REMARK    6  A    between atoms: N_15  and  C_16
REMARK    7  A    between atoms: C_16  and  C_17
REMARK    8  A    between atoms: C_30  and  O_32
REMARK    9  A    between atoms: O_32  and  C_33
REMARK   10  A    between atoms: C_33  and  C_34
REMARK   11  A    between atoms: C_33  and  C_35
REMARK                            x       y       z     vdW  Elec       q    Type
REMARK                         _______ _______ _______ _____ _____    ______ ____
ROOT
ATOM      1  C   UNL     1       0.344   1.181   0.856  0.00  0.00    +0.066 C 
ATOM      2  C   UNL     1       0.265  -0.278   0.486  0.00  0.00    +0.053 C 
ATOM      3  C   UNL     1      -0.964  -0.908   0.436  0.00  0.00    +0.082 C 
ATOM      4  C   UNL     1      -0.991  -2.372   0.059  0.00  0.00    +0.150 C 
ATOM      5  N   UNL     1       0.316  -3.021  -0.229  0.00  0.00    -0.267 N 
ATOM      6  C   UNL     1       0.528  -4.337  -0.590  0.00  0.00    +0.048 C 
ATOM      7  C   UNL     1       1.803  -4.728  -0.809  0.00  0.00    +0.072 C 
ATOM      8  S   UNL     1       2.708  -3.224  -0.503  0.00  0.00    -0.060 S 
ATOM      9  C   UNL     1       1.418  -2.220  -0.123  0.00  0.00    +0.166 C 
ATOM     10  N   UNL     1       1.372  -0.946   0.206  0.00  0.00    -0.230 NA
ENDROOT
BRANCH   4  11
ATOM     11  C   UNL     1      -1.646  -3.129   1.186  0.00  0.00    -0.019 A 
ATOM     12  C   UNL     1      -0.959  -3.341   2.367  0.00  0.00    +0.006 A 
ATOM     13  C   UNL     1      -1.558  -4.035   3.401  0.00  0.00    +0.003 A 
ATOM     14  C   UNL     1      -2.844  -4.518   3.256  0.00  0.00    +0.038 A 
ATOM     15  C   UNL     1      -3.533  -4.307   2.074  0.00  0.00    +0.124 A 
ATOM     16  C   UNL     1      -2.934  -3.606   1.040  0.00  0.00    +0.044 A 
ATOM     17  F   UNL     1      -4.791  -4.779   1.930  0.00  0.00    -0.205 F 
ENDBRANCH   4  11
BRANCH   6  18
ATOM     18  C   UNL     1      -0.592  -5.278  -0.731  0.00  0.00    +0.091 C 
ATOM     19  C   UNL     1      -0.350  -6.584  -0.956  0.00  0.00    +0.239 C 
ATOM     20  O   UNL     1       0.922  -7.052  -0.930  0.00  0.00    -0.271 OA
BRANCH  19  21
ATOM     21  N   UNL     1      -1.400  -7.448  -1.214  0.00  0.00    -0.308 N 
ATOM     22  H   UNL     1      -2.315  -7.130  -1.159  0.00  0.00    +0.149 HD
BRANCH  21  23
ATOM     23  C   UNL     1      -1.131  -8.843  -1.569  0.00  0.00    +0.141 C 
BRANCH  23  24
ATOM     24  C   UNL     1      -2.425  -9.533  -1.917  0.00  0.00    -0.012 A 
ATOM     25  C   UNL     1      -3.169 -10.167  -0.933  0.00  0.00    +0.008 A 
ATOM     26  C   UNL     1      -4.353 -10.788  -1.299  0.00  0.00    +0.020 A 
ATOM     27  C   UNL     1      -4.750 -10.754  -2.622  0.00  0.00    +0.111 A 
ATOM     28  N   UNL     1      -4.017 -10.142  -3.531  0.00  0.00    -0.263 NA
ATOM     29  C   UNL     1      -2.889  -9.536  -3.218  0.00  0.00    +0.115 A 
ENDBRANCH  23  24
ENDBRANCH  21  23
ENDBRANCH  19  21
ENDBRANCH   6  18
BRANCH   3  30
ATOM     30  C   UNL     1      -2.145  -0.213   0.725  0.00  0.00    +0.339 C 
ATOM     31  O   UNL     1      -2.100   0.967   1.026  0.00  0.00    -0.245 OA
BRANCH  30  32
ATOM     32  O   UNL     1      -3.335  -0.851   0.669  0.00  0.00    -0.459 OA
BRANCH  32  33
ATOM     33  C   UNL     1      -4.499  -0.081   0.976  0.00  0.00    +0.171 C 
ATOM     34  C   UNL     1      -5.043   0.555  -0.306  0.00  0.00    +0.052 C 
ATOM     35  C   UNL     1      -5.566  -0.991   1.586  0.00  0.00    +0.052 C 
ENDBRANCH  32  33
ENDBRANCH  30  32
ENDBRANCH   3  30
TORSDOF 8
