REMARK  Name = ZINC04236779
REMARK  13 active torsions:
REMARK  status: ('A' for Active; 'I' for Inactive)
REMARK    1  A    between atoms: C_1  and  C_2
REMARK    2  A    between atoms: C_8  and  C_10
REMARK    3  A    between atoms: C_10  and  C_11
REMARK    4  A    between atoms: C_13  and  O_41
REMARK    5  A    between atoms: C_19  and  C_40
REMARK    6  A    between atoms: C_22  and  O_28
REMARK    7  A    between atoms: C_24  and  C_25
REMARK    8  A    between atoms: C_24  and  C_26
REMARK    9  A    between atoms: C_26  and  O_27
REMARK   10  A    between atoms: O_28  and  C_29
REMARK   11  A    between atoms: N_31  and  C_32
REMARK   12  A    between atoms: C_36  and  S_38
REMARK   13  A    between atoms: S_38  and  C_39
REMARK                            x       y       z     vdW  Elec       q    Type
REMARK                         _______ _______ _______ _____ _____    ______ ____
ROOT
ATOM      1  C   UNL     1       6.889   0.398   0.191  0.00  0.00    +0.032 C 
ATOM      2  C   UNL     1       6.546  -0.731  -0.783  0.00  0.00    +0.119 C 
ATOM      3  C   UNL     1       5.915  -0.141  -2.046  0.00  0.00    +0.032 C 
ATOM      4  C   UNL     1       4.639   0.616  -1.673  0.00  0.00    +0.007 C 
ATOM      5  C   UNL     1       4.982   1.745  -0.700  0.00  0.00    +0.007 C 
ATOM      6  C   UNL     1       5.613   1.155   0.564  0.00  0.00    -0.023 C 
ATOM      7  C   UNL     1       4.624   0.194   1.226  0.00  0.00    +0.011 C 
ATOM      8  C   UNL     1       3.348   0.951   1.599  0.00  0.00    +0.046 C 
ATOM      9  C   UNL     1       2.717   1.541   0.335  0.00  0.00    +0.186 C 
ATOM     10  C   UNL     1       3.706   2.503  -0.327  0.00  0.00    +0.031 C 
ATOM     11  C   UNL     1       3.076   3.092  -1.590  0.00  0.00    +0.017 C 
ATOM     12  C   UNL     1       5.956   2.285   1.537  0.00  0.00    +0.012 C 
ENDROOT
BRANCH   2  13
ATOM     13  O   UNL     1       7.737  -1.439  -1.131  0.00  0.00    -0.391 OA
ATOM     14  H   UNL     1       7.595  -2.170  -1.747  0.00  0.00    +0.210 HD
ENDBRANCH   2  13
BRANCH   1  15
ATOM     15  C   UNL     1       7.878   1.359  -0.471  0.00  0.00    +0.102 C 
BRANCH  15  23
ATOM     16  C   UNL     1      12.264   1.633  -4.962  0.00  0.00    +0.007 C 
ATOM     17  C   UNL     1      11.841   1.820  -3.504  0.00  0.00    -0.011 C 
ATOM     18  C   UNL     1      11.954   0.484  -2.765  0.00  0.00    +0.022 C 
ATOM     19  C   UNL     1      11.563   0.682  -1.297  0.00  0.00    +0.108 C 
ATOM     20  N   UNL     1      10.227   1.291  -1.242  0.00  0.00    -0.301 N 
ATOM     21  C   UNL     1       9.983   2.528  -1.997  0.00  0.00    +0.108 C 
ATOM     22  C   UNL     1      10.393   2.312  -3.452  0.00  0.00    +0.022 C 
ATOM     23  C   UNL     1       9.243   0.723  -0.518  0.00  0.00    +0.216 C 
ATOM     24  O   UNL     1       9.456  -0.301   0.097  0.00  0.00    -0.276 OA
ENDBRANCH  15  23
ENDBRANCH   1  15
BRANCH  10  25
ATOM     25  C   UNL     1       4.050   3.632   0.647  0.00  0.00    +0.166 C 
BRANCH  25  26
ATOM     26  O   UNL     1       2.900   4.458   0.843  0.00  0.00    -0.394 OA
ATOM     27  H   UNL     1       3.045   5.196   1.450  0.00  0.00    +0.209 HD
ENDBRANCH  25  26
ENDBRANCH  10  25
BRANCH   9  28
ATOM     28  O   UNL     1       1.506   2.260   0.689  0.00  0.00    -0.446 OA
BRANCH  28  29
ATOM     29  C   UNL     1       0.357   1.559   0.689  0.00  0.00    +0.405 C 
ATOM     30  O   UNL     1       0.366   0.378   0.400  0.00  0.00    -0.226 OA
ATOM     31  N   UNL     1      -0.804   2.167   1.002  0.00  0.00    -0.251 N 
ATOM     32  H   UNL     1      -0.803   3.091   1.297  0.00  0.00    +0.158 HD
BRANCH  31  33
ATOM     33  C   UNL     1      -2.011   1.466   0.903  0.00  0.00    +0.037 A 
ATOM     34  C   UNL     1      -3.168   2.125   0.506  0.00  0.00    +0.023 A 
ATOM     35  C   UNL     1      -4.359   1.433   0.403  0.00  0.00    +0.003 A 
ATOM     36  C   UNL     1      -4.407   0.086   0.704  0.00  0.00    +0.015 A 
ATOM     37  C   UNL     1      -3.254  -0.579   1.106  0.00  0.00    +0.009 A 
ATOM     38  C   UNL     1      -2.054   0.113   1.206  0.00  0.00    +0.038 A 
BRANCH  37  39
ATOM     39  S   UNL     1      -3.316  -2.297   1.491  0.00  0.00    -0.129 S 
ATOM     40  C   UNL     1      -5.052  -2.746   1.219  0.00  0.00    +0.090 C 
ENDBRANCH  37  39
ENDBRANCH  31  33
ENDBRANCH  28  29
ENDBRANCH   9  28
TORSDOF 9
