REMARK  Name = ZINC20792348
REMARK  7 active torsions:
REMARK  status: ('A' for Active; 'I' for Inactive)
REMARK    1  A    between atoms: C_3  and  C_8
REMARK    2  A    between atoms: C_17  and  C_25
REMARK    3  A    between atoms: C_18  and  N_24
REMARK    4  A    between atoms: C_19  and  C_20
REMARK    5  A    between atoms: C_19  and  C_22
REMARK    6  A    between atoms: C_27  and  O_29
REMARK    7  A    between atoms: O_29  and  C_30
REMARK                            x       y       z     vdW  Elec       q    Type
REMARK                         _______ _______ _______ _____ _____    ______ ____
ROOT
ATOM      1  C   UNL     1      -2.314   3.606   1.079  0.00  0.00    +0.068 C 
ATOM      2  C   UNL     1      -1.017   3.212   0.369  0.00  0.00    +0.048 C 
ATOM      3  C   UNL     1       0.176   3.961   0.917  0.00  0.00    +0.120 C 
ATOM      4  N   UNL     1       0.992   3.101   1.780  0.00  0.00    -0.263 N 
ATOM      5  C   UNL     1       1.438   1.813   1.219  0.00  0.00    +0.138 C 
ATOM      6  C   UNL     1       0.203   1.073   0.770  0.00  0.00    -0.003 C 
ATOM      7  C   UNL     1      -0.889   1.718   0.408  0.00  0.00    -0.026 C 
ATOM      8  C   UNL     1      -2.105   0.933   0.066  0.00  0.00    +0.074 C 
ATOM      9  C   UNL     1      -3.310   1.556   0.029  0.00  0.00    +0.054 C 
ATOM     10  C   UNL     1      -3.495   3.020   0.294  0.00  0.00    +0.188 C 
ATOM     11  C   UNL     1       1.322   3.473   3.033  0.00  0.00    +0.409 C 
ATOM     12  O   UNL     1       0.941   4.541   3.470  0.00  0.00    -0.226 OA
ENDROOT
BRANCH   1  15
ATOM     13  C   UNL     1      -2.929   7.120   2.317  0.00  0.00    +0.002 A 
ATOM     14  C   UNL     1      -2.821   5.742   2.281  0.00  0.00    +0.004 A 
ATOM     15  C   UNL     1      -2.431   5.108   1.116  0.00  0.00    -0.039 A 
ATOM     16  C   UNL     1      -2.143   5.853  -0.012  0.00  0.00    +0.024 A 
ATOM     17  C   UNL     1      -2.256   7.231   0.021  0.00  0.00    +0.041 A 
ATOM     18  C   UNL     1      -2.647   7.864   1.187  0.00  0.00    +0.020 A 
ATOM     19 CL   UNL     1      -1.902   8.166  -1.398  0.00  0.00    -0.084 Cl
ENDBRANCH   1  15
BRANCH   9  20
ATOM     20  N   UNL     1      -4.415   0.808  -0.266  0.00  0.00    -0.358 N 
ATOM     21  H   UNL     1      -5.406   1.283  -0.304  0.00  0.00    +0.142 HD
ATOM     22  H   UNL     1      -4.313  -0.269  -0.465  0.00  0.00    +0.142 HD
ENDBRANCH   9  20
BRANCH  10  23
ATOM     23  C   UNL     1      -3.627   3.728  -0.990  0.00  0.00    +0.091 C 
ATOM     24  N   UNL     1      -3.729   4.274  -1.981  0.00  0.00    -0.194 NA
ENDBRANCH  10  23
BRANCH  10  25
ATOM     25  C   UNL     1      -4.726   3.214   1.078  0.00  0.00    +0.091 C 
ATOM     26  N   UNL     1      -5.676   3.363   1.683  0.00  0.00    -0.194 NA
ENDBRANCH  10  25
BRANCH   8  27
ATOM     27  C   UNL     1      -2.006  -0.466  -0.221  0.00  0.00    +0.101 C 
ATOM     28  N   UNL     1      -1.927  -1.576  -0.449  0.00  0.00    -0.191 NA
ENDBRANCH   8  27
BRANCH  11  29
ATOM     29  O   UNL     1       2.073   2.662   3.800  0.00  0.00    -0.359 OA
BRANCH  29  30
ATOM     30  C   UNL     1       2.389   3.127   5.139  0.00  0.00    +0.578 C 
ATOM     31  F   UNL     1       1.204   3.330   5.854  0.00  0.00    -0.133 F 
ATOM     32  F   UNL     1       3.171   2.168   5.793  0.00  0.00    -0.133 F 
ATOM     33  F   UNL     1       3.098   4.330   5.059  0.00  0.00    -0.133 F 
ENDBRANCH  29  30
ENDBRANCH  11  29
TORSDOF 7
