REMARK  Name = ZINC51171108
REMARK  3 active torsions:
REMARK  status: ('A' for Active; 'I' for Inactive)
REMARK    1  A    between atoms: C_5  and  C_6
REMARK    2  A    between atoms: N_8  and  C_9
REMARK    3  A    between atoms: C_14  and  N_15
REMARK                            x       y       z     vdW  Elec       q    Type
REMARK                         _______ _______ _______ _____ _____    ______ ____
ROOT
ATOM      1  C   UNL     1      -1.998  -3.127   0.098  0.00  0.00    +0.058 A 
ATOM      2  C   UNL     1      -3.283  -2.605   0.101  0.00  0.00    +0.074 A 
ATOM      3  C   UNL     1      -4.375  -3.451   0.199  0.00  0.00    +0.168 A 
ATOM      4  C   UNL     1      -4.184  -4.827   0.295  0.00  0.00    +0.168 A 
ATOM      5  C   UNL     1      -2.901  -5.350   0.293  0.00  0.00    +0.074 A 
ATOM      6  C   UNL     1      -1.807  -4.505   0.189  0.00  0.00    +0.050 A 
ATOM      7  O   UNL     1      -5.406  -5.432   0.381  0.00  0.00    -0.453 OA
ATOM      8  C   UNL     1      -6.328  -4.388   0.747  0.00  0.00    +0.466 C 
ATOM      9  O   UNL     1      -5.717  -3.194   0.224  0.00  0.00    -0.453 OA
ENDROOT
BRANCH   1  12
ATOM     10  C   UNL     1      -1.027  -1.060  -0.579  0.00  0.00    +0.255 C 
ATOM     11  O   UNL     1      -2.081  -0.751  -1.104  0.00  0.00    -0.269 OA
ATOM     12  N   UNL     1      -0.892  -2.270  -0.001  0.00  0.00    -0.279 N 
ATOM     13  H   UNL     1      -0.030  -2.548   0.346  0.00  0.00    +0.155 HD
BRANCH  10  18
ATOM     14  C   UNL     1       0.162   1.161  -1.108  0.00  0.00    +0.022 A 
ATOM     15  C   UNL     1       1.362   1.812  -0.947  0.00  0.00    +0.028 A 
ATOM     16  C   UNL     1       2.372   1.180  -0.296  0.00  0.00    +0.079 A 
ATOM     17  S   UNL     1       1.725  -0.315   0.116  0.00  0.00    -0.072 S 
ATOM     18  C   UNL     1       0.094  -0.118  -0.575  0.00  0.00    +0.076 A 
ATOM     19 CL   UNL     1       3.968   1.779   0.034  0.00  0.00    -0.076 Cl
ENDBRANCH  10  18
ENDBRANCH   1  12
BRANCH   6  20
ATOM     20  N   UNL     1      -0.509  -5.035   0.181  0.00  0.00    -0.356 N 
ATOM     21  H   UNL     1       0.256  -4.443   0.112  0.00  0.00    +0.142 HD
ATOM     22  H   UNL     1      -0.377  -5.994   0.244  0.00  0.00    +0.142 HD
ENDBRANCH   6  20
TORSDOF 3
