REMARK  Name = ZINC00719919
REMARK  8 active torsions:
REMARK  status: ('A' for Active; 'I' for Inactive)
REMARK    1  A    between atoms: C_1  and  O_2
REMARK    2  A    between atoms: O_2  and  C_3
REMARK    3  A    between atoms: C_6  and  C_11
REMARK    4  A    between atoms: C_8  and  O_9
REMARK    5  A    between atoms: O_9  and  C_10
REMARK    6  A    between atoms: C_14  and  C_40
REMARK    7  A    between atoms: C_19  and  C_21
REMARK    8  A    between atoms: N_26  and  C_29
REMARK                            x       y       z     vdW  Elec       q    Type
REMARK                         _______ _______ _______ _____ _____    ______ ____
ROOT
ATOM      1  C   UNL     1      -0.891   6.733   1.949  0.00  0.00    +0.104 C 
ATOM      2  C   UNL     1       0.469   7.217   2.464  0.00  0.00    +0.063 C 
ATOM      3  C   UNL     1       1.559   6.894   1.430  0.00  0.00    +0.215 C 
ATOM      4  N   UNL     1       1.122   7.366   0.113  0.00  0.00    -0.238 N 
ATOM      5  C   UNL     1      -0.180   7.634  -0.202  0.00  0.00    +0.119 A 
ATOM      6  C   UNL     1      -0.225   8.049  -1.484  0.00  0.00    +0.078 A 
ATOM      7  C   UNL     1       1.097   8.037  -1.983  0.00  0.00    +0.149 A 
ATOM      8  N   UNL     1       1.898   7.624  -1.016  0.00  0.00    -0.164 NA
ATOM      9  N   UNL     1      -1.222   7.473   0.716  0.00  0.00    -0.322 N 
ATOM     10  H   UNL     1      -2.240   7.862   0.564  0.00  0.00    +0.148 HD
ENDROOT
BRANCH   7  11
ATOM     11  C   UNL     1       1.512   8.418  -3.348  0.00  0.00    +0.267 C 
ATOM     12  O   UNL     1       0.672   8.674  -4.189  0.00  0.00    -0.268 OA
ATOM     13  N   UNL     1       2.821   8.484  -3.662  0.00  0.00    -0.300 N 
ATOM     14  C   UNL     1       3.257   8.927  -4.995  0.00  0.00    +0.089 C 
ATOM     15  C   UNL     1       4.307  10.035  -4.815  0.00  0.00    -0.059 C 
ATOM     16  N   UNL     1       5.382   9.547  -3.941  0.00  0.00    +0.384 N 
ATOM     17  C   UNL     1       4.878   9.243  -2.595  0.00  0.00    -0.059 C 
ATOM     18  C   UNL     1       3.852   8.108  -2.682  0.00  0.00    +0.089 C 
ATOM     19  H   UNL     1       5.766   8.611  -4.373  0.00  0.00    -0.081 HD
BRANCH  16  20
ATOM     20  C   UNL     1       6.491  10.509  -3.882  0.00  0.00    -0.062 C 
ATOM     21  C   UNL     1       6.962  10.830  -5.302  0.00  0.00    -0.024 C 
ATOM     22  C   UNL     1       8.117  11.832  -5.242  0.00  0.00    +0.005 C 
ATOM     23  C   UNL     1       9.275  11.228  -4.444  0.00  0.00    -0.010 C 
ATOM     24  C   UNL     1       9.749   9.943  -5.127  0.00  0.00    +0.007 C 
ATOM     25  C   UNL     1       8.594   8.941  -5.187  0.00  0.00    -0.010 C 
ATOM     26  C   UNL     1       7.436   9.545  -5.985  0.00  0.00    +0.005 C 
ATOM     27  C   UNL     1       8.123   8.620  -3.768  0.00  0.00    +0.005 C 
ATOM     28  C   UNL     1       7.648   9.905  -3.085  0.00  0.00    -0.024 C 
ATOM     29  C   UNL     1       8.803  10.906  -3.024  0.00  0.00    +0.005 C 
ENDBRANCH  16  20
ENDBRANCH   7  11
BRANCH   1  33
ATOM     30  C   UNL     1      -0.695   2.547   1.095  0.00  0.00    +0.162 A 
ATOM     31  C   UNL     1      -0.187   3.466   0.191  0.00  0.00    +0.050 A 
ATOM     32  C   UNL     1      -0.252   4.818   0.470  0.00  0.00    +0.009 A 
ATOM     33  C   UNL     1      -0.823   5.257   1.650  0.00  0.00    -0.024 A 
ATOM     34  C   UNL     1      -1.331   4.346   2.556  0.00  0.00    +0.054 A 
ATOM     35  C   UNL     1      -1.275   2.989   2.280  0.00  0.00    +0.162 A 
BRANCH  30  37
ATOM     36  C   UNL     1      -0.029   0.836  -0.416  0.00  0.00    +0.277 C 
ATOM     37  O   UNL     1      -0.632   1.216   0.822  0.00  0.00    -0.491 OA
ENDBRANCH  30  37
BRANCH  35  38
ATOM     38  O   UNL     1      -1.780   2.091   3.168  0.00  0.00    -0.491 OA
ATOM     39  C   UNL     1      -2.360   2.617   4.364  0.00  0.00    +0.277 C 
ENDBRANCH  35  38
ENDBRANCH   1  33
BRANCH   3  40
ATOM     40  C   UNL     1       2.860   7.599   1.821  0.00  0.00    +0.412 C 
ATOM     41  F   UNL     1       2.645   8.980   1.869  0.00  0.00    -0.168 F 
ATOM     42  F   UNL     1       3.275   7.147   3.078  0.00  0.00    -0.168 F 
ATOM     43  F   UNL     1       3.848   7.314   0.873  0.00  0.00    -0.168 F 
ENDBRANCH   3  40
TORSDOF 6
