REMARK  Name = ZINC03294601
REMARK  16 active torsions:
REMARK  status: ('A' for Active; 'I' for Inactive)
REMARK    1  A    between atoms: C_1  and  C_2
REMARK    2  A    between atoms: C_2  and  O_3
REMARK    3  A    between atoms: O_3  and  C_4
REMARK    4  A    between atoms: C_4  and  C_6
REMARK    5  A    between atoms: C_7  and  C_39
REMARK    6  A    between atoms: C_10  and  C_38
REMARK    7  A    between atoms: C_11  and  C_12
REMARK    8  A    between atoms: C_12  and  C_14
REMARK    9  A    between atoms: C_14  and  S_15
REMARK   10  A    between atoms: S_15  and  C_16
REMARK   11  A    between atoms: C_19  and  C_28
REMARK   12  A    between atoms: N_20  and  C_21
REMARK   13  A    between atoms: C_28  and  O_29
REMARK   14  A    between atoms: O_29  and  C_30
REMARK   15  A    between atoms: C_33  and  O_36
REMARK   16  A    between atoms: O_36  and  C_37
REMARK                            x       y       z     vdW  Elec       q    Type
REMARK                         _______ _______ _______ _____ _____    ______ ____
ROOT
ATOM      1  C   UNL     1      -4.685  -3.367   6.456  0.00  0.00    +0.197 A 
ATOM      2  N   UNL     1      -5.766  -4.052   6.160  0.00  0.00    -0.122 NA
ATOM      3  N   UNL     1      -6.378  -4.392   7.237  0.00  0.00    -0.130 NA
ATOM      4  C   UNL     1      -5.731  -3.950   8.279  0.00  0.00    +0.176 A 
ATOM      5  N   UNL     1      -4.625  -3.285   7.820  0.00  0.00    -0.269 N 
ENDROOT
BRANCH   5   6
ATOM      6  C   UNL     1      -3.638  -2.650   8.589  0.00  0.00    +0.085 A 
ATOM      7  C   UNL     1      -3.784  -1.315   8.942  0.00  0.00    +0.029 A 
ATOM      8  C   UNL     1      -2.811  -0.692   9.699  0.00  0.00    +0.002 A 
ATOM      9  C   UNL     1      -1.692  -1.395  10.106  0.00  0.00    +0.003 A 
ATOM     10  C   UNL     1      -1.542  -2.725   9.757  0.00  0.00    +0.040 A 
ATOM     11  C   UNL     1      -2.516  -3.357   9.004  0.00  0.00    +0.147 A 
ATOM     12  F   UNL     1      -2.373  -4.657   8.668  0.00  0.00    -0.203 F 
ENDBRANCH   5   6
BRANCH   1  13
ATOM     13  S   UNL     1      -3.527  -2.689   5.314  0.00  0.00    -0.078 S 
BRANCH  13  14
ATOM     14  C   UNL     1      -4.191  -3.153   3.690  0.00  0.00    +0.157 C 
BRANCH  14  15
ATOM     15  C   UNL     1      -3.283  -2.627   2.608  0.00  0.00    +0.176 C 
ATOM     16  O   UNL     1      -2.237  -2.086   2.903  0.00  0.00    -0.291 OA
BRANCH  15  22
ATOM     17  C   UNL     1      -3.425  -3.940   0.329  0.00  0.00    +0.090 A 
ATOM     18  C   UNL     1      -3.955  -3.613  -0.884  0.00  0.00    +0.028 A 
ATOM     19  N   UNL     1      -4.475  -2.364  -0.809  0.00  0.00    -0.361 N 
ATOM     20  H   UNL     1      -4.911  -1.904  -1.543  0.00  0.00    +0.165 HD
ATOM     21  C   UNL     1      -4.305  -1.847   0.424  0.00  0.00    +0.024 A 
ATOM     22  C   UNL     1      -3.661  -2.770   1.202  0.00  0.00    +0.053 A 
ATOM     23  C   UNL     1      -4.756  -0.481   0.873  0.00  0.00    +0.064 C 
ATOM     24  C   UNL     1      -3.962  -4.495  -2.106  0.00  0.00    +0.064 C 
BRANCH  17  25
ATOM     25  C   UNL     1      -2.759  -5.198   0.695  0.00  0.00    +0.342 C 
ATOM     26  O   UNL     1      -3.411  -6.124   1.138  0.00  0.00    -0.245 OA
BRANCH  25  27
ATOM     27  O   UNL     1      -1.426  -5.326   0.540  0.00  0.00    -0.461 OA
BRANCH  27  29
ATOM     28  C   UNL     1       0.663  -6.534   0.671  0.00  0.00    +0.048 C 
ATOM     29  C   UNL     1      -0.846  -6.577   0.916  0.00  0.00    +0.229 C 
ENDBRANCH  27  29
ENDBRANCH  25  27
ENDBRANCH  17  25
ENDBRANCH  15  22
ENDBRANCH  14  15
ENDBRANCH  13  14
ENDBRANCH   1  13
BRANCH   4  30
ATOM     30  C   UNL     1      -6.125  -4.140   9.722  0.00  0.00    +0.305 C 
BRANCH  30  31
ATOM     31  O   UNL     1      -5.537  -5.343  10.221  0.00  0.00    -0.484 OA
BRANCH  31  32
ATOM     32  C   UNL     1      -5.795  -5.664  11.517  0.00  0.00    +0.121 A 
ATOM     33  C   UNL     1      -6.602  -4.840  12.288  0.00  0.00    +0.049 A 
ATOM     34  C   UNL     1      -6.864  -5.167  13.605  0.00  0.00    +0.049 A 
ATOM     35  C   UNL     1      -6.320  -6.318  14.155  0.00  0.00    +0.120 A 
ATOM     36  C   UNL     1      -5.514  -7.142  13.384  0.00  0.00    +0.049 A 
ATOM     37  C   UNL     1      -5.256  -6.818  12.066  0.00  0.00    +0.049 A 
BRANCH  35  38
ATOM     38  O   UNL     1      -6.578  -6.639  15.451  0.00  0.00    -0.495 OA
ATOM     39  C   UNL     1      -5.985  -7.838  15.953  0.00  0.00    +0.277 C 
ENDBRANCH  35  38
ENDBRANCH  31  32
ENDBRANCH  30  31
ENDBRANCH   4  30
TORSDOF 12
