REMARK  Name = ZINC52095085
REMARK  2 active torsions:
REMARK  status: ('A' for Active; 'I' for Inactive)
REMARK    1  A    between atoms: C_2  and  C_14
REMARK    2  A    between atoms: C_14  and  C_16
REMARK                            x       y       z     vdW  Elec       q    Type
REMARK                         _______ _______ _______ _____ _____    ______ ____
ROOT
ATOM      1  C   UNL     1       2.509   1.497  -0.125  0.00  0.00    +0.034 A 
ATOM      2  C   UNL     1       1.268   2.090   0.000  0.00  0.00    -0.013 A 
ATOM      3  C   UNL     1       0.130   1.310   0.117  0.00  0.00    +0.025 A 
ATOM      4  C   UNL     1       0.227  -0.069   0.110  0.00  0.00    +0.043 A 
ATOM      5  C   UNL     1       1.468  -0.672  -0.015  0.00  0.00    +0.068 A 
ATOM      6  C   UNL     1       2.615   0.115  -0.134  0.00  0.00    +0.067 A 
ATOM      7  N   UNL     1       3.695  -0.760  -0.242  0.00  0.00    -0.306 N 
ATOM      8  H   UNL     1       4.625  -0.504  -0.338  0.00  0.00    +0.170 HD
ATOM      9  C   UNL     1       3.225  -2.020  -0.192  0.00  0.00    +0.325 A 
ATOM     10  O   UNL     1       3.907  -3.026  -0.261  0.00  0.00    -0.247 OA
ATOM     11  N   UNL     1       1.886  -2.001  -0.056  0.00  0.00    -0.306 N 
ATOM     12  H   UNL     1       1.310  -2.779   0.005  0.00  0.00    +0.170 HD
ATOM     13 BR   UNL     1      -1.564   2.134   0.289  0.00  0.00    -0.050 Br
ENDROOT
BRANCH   2  14
ATOM     14  C   UNL     1       1.151   3.593   0.010  0.00  0.00    +0.117 C 
ATOM     15 CL   UNL     1       2.545   4.309  -0.882  0.00  0.00    -0.116 Cl
BRANCH  14  16
ATOM     16  C   UNL     1       1.158   4.096   1.455  0.00  0.00    +0.039 C 
ATOM     17  C   UNL     1       2.553   3.890   2.105  0.00  0.00    +0.035 C 
ATOM     18  C   UNL     1       2.561   5.033   3.151  0.00  0.00    +0.160 C 
ATOM     19  O   UNL     1       1.878   6.126   2.518  0.00  0.00    -0.379 OA
ATOM     20  C   UNL     1       0.991   5.630   1.504  0.00  0.00    +0.165 C 
ENDBRANCH  14  16
ENDBRANCH   2  14
TORSDOF 2
