REMARK  Name = ZINC39883305
REMARK  6 active torsions:
REMARK  status: ('A' for Active; 'I' for Inactive)
REMARK    1  A    between atoms: C_8  and  C_11
REMARK    2  A    between atoms: C_11  and  C_12
REMARK    3  A    between atoms: N_14  and  C_15
REMARK    4  A    between atoms: C_16  and  C_24
REMARK    5  A    between atoms: N_26  and  C_27
REMARK    6  A    between atoms: C_27  and  C_28
REMARK                            x       y       z     vdW  Elec       q    Type
REMARK                         _______ _______ _______ _____ _____    ______ ____
ROOT
ATOM      1  C   UNL     1       4.980  -3.937  -3.031  0.00  0.00    +0.084 A 
ATOM      2  C   UNL     1       5.431  -5.168  -3.479  0.00  0.00    +0.069 A 
ATOM      3  C   UNL     1       5.385  -5.412  -4.910  0.00  0.00    -0.023 A 
ATOM      4  C   UNL     1       4.898  -4.379  -5.631  0.00  0.00    -0.004 A 
ATOM      5  S   UNL     1       4.510  -3.138  -4.432  0.00  0.00    -0.077 S 
ATOM      6  C   UNL     1       4.727  -4.321  -7.118  0.00  0.00    +0.043 C 
ATOM      7  C   UNL     1       5.539  -5.466  -7.741  0.00  0.00    +0.005 C 
ATOM      8  C   UNL     1       5.231  -6.761  -6.985  0.00  0.00    +0.005 C 
ATOM      9  C   UNL     1       5.836  -6.701  -5.581  0.00  0.00    +0.037 C 
ENDROOT
BRANCH   1  12
ATOM     10  C   UNL     1       4.446  -2.239  -1.469  0.00  0.00    +0.222 C 
ATOM     11  O   UNL     1       4.065  -1.534  -2.380  0.00  0.00    -0.275 OA
ATOM     12  N   UNL     1       4.924  -3.473  -1.726  0.00  0.00    -0.279 N 
ATOM     13  H   UNL     1       5.229  -4.036  -0.997  0.00  0.00    +0.155 HD
BRANCH  10  14
ATOM     14  C   UNL     1       4.386  -1.735  -0.050  0.00  0.00    +0.135 C 
BRANCH  14  22
ATOM     15  C   UNL     1      -0.017   1.384   0.010  0.00  0.00    +0.019 A 
ATOM     16  C   UNL     1       1.159   2.103   0.002  0.00  0.00    +0.048 A 
ATOM     17  C   UNL     1       2.379   1.439  -0.013  0.00  0.00    +0.135 A 
ATOM     18  C   UNL     1       2.398   0.034  -0.021  0.00  0.00    +0.025 A 
ATOM     19  C   UNL     1       1.202  -0.682  -0.012  0.00  0.00    +0.027 A 
ATOM     20  C   UNL     1       0.002  -0.004   0.002  0.00  0.00    +0.019 A 
ATOM     21 BR   UNL     1      -1.625  -0.968   0.012  0.00  0.00    -0.050 Br
ATOM     22  C   UNL     1       3.817  -0.339  -0.037  0.00  0.00    +0.007 A 
ATOM     23  C   UNL     1       4.506   0.810  -0.038  0.00  0.00    +0.200 A 
ATOM     24  O   UNL     1       3.661   1.856  -0.024  0.00  0.00    -0.463 OA
ENDBRANCH  14  22
ENDBRANCH  10  14
ENDBRANCH   1  12
BRANCH   2  25
ATOM     25  C   UNL     1       5.933  -6.183  -2.547  0.00  0.00    +0.247 C 
ATOM     26  O   UNL     1       5.169  -6.996  -2.063  0.00  0.00    -0.270 OA
ATOM     27  N   UNL     1       7.242  -6.215  -2.227  0.00  0.00    -0.309 N 
ATOM     28  H   UNL     1       7.852  -5.566  -2.613  0.00  0.00    +0.149 HD
BRANCH  27  29
ATOM     29  C   UNL     1       7.744  -7.228  -1.296  0.00  0.00    +0.136 C 
BRANCH  29  30
ATOM     30  C   UNL     1       9.251  -7.044  -1.106  0.00  0.00    +0.135 C 
ATOM     31  C   UNL     1       9.810  -8.180  -0.223  0.00  0.00    +0.035 C 
ATOM     32  C   UNL     1      10.845  -7.431   0.661  0.00  0.00    +0.031 C 
ATOM     33  C   UNL     1      10.150  -6.056   0.827  0.00  0.00    +0.160 C 
ATOM     34  O   UNL     1       9.508  -5.805  -0.435  0.00  0.00    -0.375 OA
ENDBRANCH  29  30
ENDBRANCH  27  29
ENDBRANCH   2  25
TORSDOF 6
