REMARK  Name = ZINC39856231
REMARK  13 active torsions:
REMARK  status: ('A' for Active; 'I' for Inactive)
REMARK    1  A    between atoms: C_1  and  C_2
REMARK    2  A    between atoms: C_5  and  C_28
REMARK    3  A    between atoms: C_6  and  O_8
REMARK    4  A    between atoms: O_8  and  C_9
REMARK    5  A    between atoms: C_9  and  C_11
REMARK    6  A    between atoms: C_12  and  C_27
REMARK    7  A    between atoms: C_17  and  C_25
REMARK    8  A    between atoms: C_17  and  C_26
REMARK    9  A    between atoms: N_20  and  N_21
REMARK   10  A    between atoms: N_21  and  C_22
REMARK   11  A    between atoms: C_22  and  N_24
REMARK   12  A    between atoms: C_28  and  C_29
REMARK   13  A    between atoms: C_28  and  C_30
REMARK                            x       y       z     vdW  Elec       q    Type
REMARK                         _______ _______ _______ _____ _____    ______ ____
ROOT
ATOM      1  C   UNL     1       0.282  -2.771   4.786  0.00  0.00    +0.215 A 
ATOM      2  C   UNL     1       0.386  -2.177   6.014  0.00  0.00    +0.011 A 
ATOM      3  C   UNL     1       0.490  -3.217   6.944  0.00  0.00    +0.042 A 
ATOM      4  C   UNL     1       0.448  -4.401   6.246  0.00  0.00    +0.116 A 
ATOM      5  O   UNL     1       0.315  -4.113   4.953  0.00  0.00    -0.452 OA
ATOM      6  C   UNL     1       0.540  -5.750   6.912  0.00  0.00    +0.081 C 
ATOM      7  C   UNL     1       1.180  -5.592   8.294  0.00  0.00    -0.023 C 
ATOM      8  C   UNL     1       0.443  -4.527   9.112  0.00  0.00    +0.064 C 
ATOM      9  C   UNL     1       0.623  -3.184   8.418  0.00  0.00    +0.070 C 
ATOM     10  N   UNL     1       0.875  -2.092   9.070  0.00  0.00    -0.185 NA
ATOM     11  C   UNL     1       1.116  -6.929   9.035  0.00  0.00    +0.011 C 
ATOM     12  C   UNL     1       2.643  -5.178   8.128  0.00  0.00    +0.011 C 
ATOM     13  C   UNL     1       0.387  -0.699   6.306  0.00  0.00    +0.048 C 
ENDROOT
BRANCH   1  14
ATOM     14  C   UNL     1       0.152  -2.071   3.505  0.00  0.00    +0.380 C 
ATOM     15  O   UNL     1       0.133  -0.855   3.475  0.00  0.00    -0.241 OA
BRANCH  14  16
ATOM     16  O   UNL     1       0.052  -2.776   2.358  0.00  0.00    -0.420 OA
BRANCH  16  22
ATOM     17  C   UNL     1      -2.451  -0.756  -1.313  0.00  0.00    +0.044 C 
ATOM     18  C   UNL     1      -1.147  -1.087  -0.633  0.00  0.00    -0.047 A 
ATOM     19  C   UNL     1       0.049  -0.691  -1.202  0.00  0.00    +0.004 A 
ATOM     20  C   UNL     1       1.246  -0.993  -0.580  0.00  0.00    +0.008 A 
ATOM     21  C   UNL     1       1.250  -1.691   0.613  0.00  0.00    -0.002 A 
ATOM     22  C   UNL     1       0.051  -2.089   1.186  0.00  0.00    +0.136 A 
ATOM     23  C   UNL     1      -1.149  -1.780   0.562  0.00  0.00    +0.050 A 
BRANCH  21  24
ATOM     24  C   UNL     1       2.555  -2.020   1.290  0.00  0.00    +0.016 C 
ATOM     25  C   UNL     1       3.412  -2.878   0.357  0.00  0.00    +0.012 C 
ATOM     26  C   UNL     1       3.300  -0.724   1.618  0.00  0.00    +0.012 C 
ENDBRANCH  21  24
ENDBRANCH  16  22
ENDBRANCH  14  16
ENDBRANCH   1  14
BRANCH  10  27
ATOM     27  N   UNL     1       0.990  -2.119  10.466  0.00  0.00    -0.218 N 
ATOM     28  H   UNL     1       0.881  -2.956  10.945  0.00  0.00    +0.176 HD
BRANCH  27  29
ATOM     29  C   UNL     1       1.251  -0.984  11.143  0.00  0.00    +0.147 C 
ATOM     30  S   UNL     1       1.392  -1.018  12.849  0.00  0.00    -0.017 S 
BRANCH  29  31
ATOM     31  N   UNL     1       1.402   0.178  10.477  0.00  0.00    -0.339 N 
ATOM     32  H   UNL     1       1.323   0.198   9.511  0.00  0.00    +0.144 HD
ATOM     33  H   UNL     1       1.591   0.996  10.965  0.00  0.00    +0.144 HD
ENDBRANCH  29  31
ENDBRANCH  27  29
ENDBRANCH  10  27
TORSDOF 7
