REMARK  Name = ZINC44460416
REMARK  7 active torsions:
REMARK  status: ('A' for Active; 'I' for Inactive)
REMARK    1  A    between atoms: C_1  and  C_2
REMARK    2  A    between atoms: C_2  and  C_4
REMARK    3  A    between atoms: C_10  and  C_33
REMARK    4  A    between atoms: C_12  and  O_32
REMARK    5  A    between atoms: C_22  and  C_31
REMARK    6  A    between atoms: C_23  and  O_30
REMARK    7  A    between atoms: C_26  and  O_29
REMARK                            x       y       z     vdW  Elec       q    Type
REMARK                         _______ _______ _______ _____ _____    ______ ____
ROOT
ATOM      1  C   UNL     1      -1.284  -0.754  -0.037  0.00  0.00    +0.061 C 
ATOM      2  C   UNL     1      -1.769  -0.941   1.426  0.00  0.00    +0.012 C 
ATOM      3  C   UNL     1      -1.520  -2.433   1.783  0.00  0.00    +0.005 C 
ATOM      4  C   UNL     1      -0.520  -2.875   0.697  0.00  0.00    -0.001 C 
ATOM      5  C   UNL     1      -1.119  -2.198  -0.553  0.00  0.00    -0.017 C 
ATOM      6  C   UNL     1      -0.262  -2.387  -1.769  0.00  0.00    +0.039 C 
ATOM      7  C   UNL     1       0.471  -3.744  -1.744  0.00  0.00    +0.119 C 
ATOM      8  C   UNL     1      -0.306  -4.757  -0.931  0.00  0.00    +0.030 C 
ATOM      9  C   UNL     1      -0.329  -4.354   0.541  0.00  0.00    -0.001 C 
ATOM     10  C   UNL     1      -1.379  -5.191   1.269  0.00  0.00    +0.004 C 
ATOM     11  C   UNL     1      -0.941  -6.657   1.164  0.00  0.00    +0.004 C 
ATOM     12  C   UNL     1      -0.867  -7.078  -0.303  0.00  0.00    +0.000 C 
ATOM     13  C   UNL     1       0.130  -6.214  -1.085  0.00  0.00    +0.002 C 
ATOM     14  C   UNL     1       1.553  -6.449  -0.609  0.00  0.00    +0.123 C 
ATOM     15  C   UNL     1       1.915  -7.935  -0.594  0.00  0.00    +0.063 C 
ATOM     16  C   UNL     1       0.909  -8.744   0.220  0.00  0.00    +0.117 C 
ATOM     17  C   UNL     1      -0.487  -8.556  -0.376  0.00  0.00    +0.035 C 
ATOM     18  C   UNL     1       0.025  -6.591  -2.574  0.00  0.00    +0.014 C 
ATOM     19  C   UNL     1      -2.548  -2.692  -0.837  0.00  0.00    +0.012 C 
ENDROOT
BRANCH   1  21
ATOM     20  C   UNL     1      -0.001   1.512  -0.095  0.00  0.00    +0.086 C 
ATOM     21  C   UNL     1       0.010   0.005  -0.055  0.00  0.00    +0.134 C 
ATOM     22  O   UNL     1       1.060  -0.591  -0.038  0.00  0.00    -0.297 OA
ENDBRANCH   1  21
BRANCH  16  23
ATOM     23  O   UNL     1       1.260 -10.130   0.170  0.00  0.00    -0.392 OA
ATOM     24  H   UNL     1       2.137 -10.327   0.526  0.00  0.00    +0.210 HD
ENDBRANCH  16  23
BRANCH  14  25
ATOM     25  O   UNL     1       2.471  -5.812  -1.514  0.00  0.00    -0.391 OA
ATOM     26  H   UNL     1       3.401  -5.921  -1.272  0.00  0.00    +0.210 HD
ENDBRANCH  14  25
BRANCH   7  27
ATOM     27  O   UNL     1       1.756  -3.515  -1.141  0.00  0.00    -0.391 OA
ATOM     28  H   UNL     1       2.305  -2.877  -1.617  0.00  0.00    +0.210 HD
ENDBRANCH   7  27
TORSDOF 4
