REMARK  Name = ZINC47156475
REMARK  6 active torsions:
REMARK  status: ('A' for Active; 'I' for Inactive)
REMARK    1  A    between atoms: C_1  and  C_2
REMARK    2  A    between atoms: C_4  and  C_31
REMARK    3  A    between atoms: C_12  and  C_14
REMARK    4  A    between atoms: C_16  and  S_22
REMARK    5  A    between atoms: S_22  and  N_25
REMARK    6  A    between atoms: N_25  and  C_26
REMARK                            x       y       z     vdW  Elec       q    Type
REMARK                         _______ _______ _______ _____ _____    ______ ____
ROOT
ATOM      1  C   UNL     1       0.143  -8.244   3.744  0.00  0.00    +0.057 A 
ATOM      2  C   UNL     1       0.114  -9.042   2.599  0.00  0.00    +0.044 A 
ATOM      3  C   UNL     1       0.234 -10.411   2.713  0.00  0.00    +0.124 A 
ATOM      4  C   UNL     1       0.384 -10.995   3.960  0.00  0.00    +0.069 A 
ATOM      5  C   UNL     1       0.414 -10.210   5.100  0.00  0.00    +0.042 A 
ATOM      6  C   UNL     1       0.300  -8.838   5.000  0.00  0.00    +0.055 A 
ATOM      7 CL   UNL     1       0.345  -7.854   6.429  0.00  0.00    -0.083 Cl
ATOM      8 CL   UNL     1       0.535 -12.720   4.094  0.00  0.00    -0.081 Cl
ENDROOT
BRANCH   1  20
ATOM      9  C   UNL     1      -0.798   1.514   1.903  0.00  0.00    +0.044 C 
ATOM     10  C   UNL     1      -0.698   0.025   1.692  0.00  0.00    -0.049 A 
ATOM     11  C   UNL     1      -0.767  -0.507   0.413  0.00  0.00    +0.009 A 
ATOM     12  C   UNL     1      -0.678  -1.857   0.193  0.00  0.00    -0.024 A 
ATOM     13  C   UNL     1      -0.512  -2.755   1.273  0.00  0.00    +0.083 A 
ATOM     14  C   UNL     1      -0.446  -2.177   2.561  0.00  0.00    +0.041 A 
ATOM     15  C   UNL     1      -0.531  -0.823   2.771  0.00  0.00    +0.020 A 
ATOM     16  S   UNL     1      -0.241  -3.600   3.605  0.00  0.00    -0.052 S 
ATOM     17  C   UNL     1      -0.255  -4.832   2.309  0.00  0.00    +0.166 A 
ATOM     18  N   UNL     1      -0.408  -4.101   1.230  0.00  0.00    -0.224 NA
ATOM     19  N   UNL     1      -0.136  -6.207   2.417  0.00  0.00    -0.261 N 
ATOM     20  C   UNL     1       0.016  -6.777   3.629  0.00  0.00    +0.251 C 
ATOM     21  O   UNL     1       0.047  -6.084   4.628  0.00  0.00    -0.270 OA
ATOM     22  C   UNL     1      -0.759  -2.390  -1.214  0.00  0.00    +0.046 C 
ATOM     23  H   UNL     1      -0.160  -6.760   1.621  0.00  0.00    +0.157 HD
ENDBRANCH   1  20
BRANCH   3  24
ATOM     24  S   UNL     1       0.196 -11.419   1.268  0.00  0.00    +0.060 S 
ATOM     25  O   UNL     1      -0.739 -12.459   1.523  0.00  0.00    -0.153 OA
ATOM     26  O   UNL     1       0.073 -10.538   0.161  0.00  0.00    -0.153 OA
BRANCH  24  27
ATOM     27  N   UNL     1       1.681 -12.141   1.136  0.00  0.00    -0.187 NA
ATOM     28  H   UNL     1       1.758 -13.106   1.194  0.00  0.00    +0.148 HD
BRANCH  27  29
ATOM     29  C   UNL     1       2.878 -11.321   0.931  0.00  0.00    +0.077 C 
ATOM     30  C   UNL     1       3.253 -11.298  -0.565  0.00  0.00    +0.020 C 
ATOM     31  C   UNL     1       4.801 -11.317  -0.570  0.00  0.00    +0.002 C 
ATOM     32  C   UNL     1       5.135 -12.272   0.604  0.00  0.00    +0.002 C 
ATOM     33  C   UNL     1       4.075 -11.941   1.674  0.00  0.00    +0.020 C 
ENDBRANCH  27  29
ENDBRANCH  24  27
ENDBRANCH   3  24
TORSDOF 4
