REMARK  Name = ZINC08835235
REMARK  9 active torsions:
REMARK  status: ('A' for Active; 'I' for Inactive)
REMARK    1  A    between atoms: C_3  and  N_14
REMARK    2  A    between atoms: C_6  and  C_7
REMARK    3  A    between atoms: C_10  and  C_12
REMARK    4  A    between atoms: C_12  and  O_13
REMARK    5  A    between atoms: N_14  and  C_15
REMARK    6  A    between atoms: C_15  and  N_17
REMARK    7  A    between atoms: C_18  and  C_20
REMARK    8  A    between atoms: C_21  and  C_22
REMARK    9  A    between atoms: C_25  and  C_27
REMARK                            x       y       z     vdW  Elec       q    Type
REMARK                         _______ _______ _______ _____ _____    ______ ____
ROOT
ATOM      1  N   UNL     1       0.084  11.869  -4.437  0.00  0.00    -0.264 N 
ATOM      2  C   UNL     1      -0.128  13.097  -3.923  0.00  0.00    +0.242 C 
ATOM      3  O   UNL     1      -0.132  13.260  -2.716  0.00  0.00    -0.270 OA
ATOM      4  H   UNL     1       0.087  11.740  -5.398  0.00  0.00    +0.157 HD
ENDROOT
BRANCH   1   5
ATOM      5  C   UNL     1       0.291  10.821  -3.615  0.00  0.00    +0.141 C 
ATOM      6  S   UNL     1       0.285  11.050  -1.918  0.00  0.00    -0.018 S 
BRANCH   5   7
ATOM      7  N   UNL     1       0.502   9.594  -4.129  0.00  0.00    -0.297 N 
ATOM      8  H   UNL     1       0.586   9.477  -5.088  0.00  0.00    +0.154 HD
BRANCH   7  11
ATOM      9  C   UNL     1      -0.180   7.266  -1.369  0.00  0.00    +0.013 A 
ATOM     10  C   UNL     1      -0.271   8.358  -2.205  0.00  0.00    +0.024 A 
ATOM     11  C   UNL     1       0.602   8.488  -3.279  0.00  0.00    +0.033 A 
ATOM     12  C   UNL     1       1.573   7.521  -3.511  0.00  0.00    +0.024 A 
ATOM     13  C   UNL     1       1.674   6.429  -2.675  0.00  0.00    +0.013 A 
ATOM     14  C   UNL     1       0.798   6.295  -1.596  0.00  0.00    +0.017 A 
BRANCH  14  15
ATOM     15  C   UNL     1       0.903   5.126  -0.698  0.00  0.00    +0.135 A 
ATOM     16  C   UNL     1       0.117   4.878   0.383  0.00  0.00    +0.050 A 
ATOM     17  C   UNL     1       0.567   3.663   0.941  0.00  0.00    +0.047 A 
ATOM     18  C   UNL     1       1.593   3.236   0.181  0.00  0.00    +0.131 A 
ATOM     19  O   UNL     1       1.798   4.125  -0.805  0.00  0.00    -0.457 OA
BRANCH  18  20
ATOM     20  C   UNL     1       2.385   1.973   0.404  0.00  0.00    +0.230 C 
BRANCH  20  21
ATOM     21  O   UNL     1       1.773   0.896  -0.309  0.00  0.00    -0.387 OA
ATOM     22  H   UNL     1       2.231   0.050  -0.211  0.00  0.00    +0.210 HD
ENDBRANCH  20  21
ENDBRANCH  18  20
ENDBRANCH  14  15
ENDBRANCH   7  11
ENDBRANCH   5   7
ENDBRANCH   1   5
BRANCH   2  23
ATOM     23  C   UNL     1      -0.345  14.196  -4.784  0.00  0.00    +0.071 C 
ATOM     24  C   UNL     1      -0.559  15.434  -4.266  0.00  0.00    +0.051 C 
BRANCH  24  25
ATOM     25  C   UNL     1      -0.776  16.532  -5.127  0.00  0.00    +0.129 A 
ATOM     26  C   UNL     1      -1.004  17.838  -4.734  0.00  0.00    +0.050 A 
ATOM     27  C   UNL     1      -1.164  18.589  -5.900  0.00  0.00    +0.050 A 
ATOM     28  C   UNL     1      -1.029  17.721  -6.960  0.00  0.00    +0.137 A 
ATOM     29  O   UNL     1      -0.790  16.489  -6.476  0.00  0.00    -0.455 OA
BRANCH  28  30
ATOM     30  C   UNL     1      -1.124  18.082  -8.388  0.00  0.00    +0.036 A 
ATOM     31  C   UNL     1      -2.213  18.824  -8.853  0.00  0.00    +0.014 A 
ATOM     32  C   UNL     1      -2.293  19.163 -10.187  0.00  0.00    +0.021 A 
ATOM     33  C   UNL     1      -1.303  18.761 -11.068  0.00  0.00    +0.042 A 
ATOM     34  C   UNL     1      -0.224  18.020 -10.616  0.00  0.00    +0.040 A 
ATOM     35  C   UNL     1      -0.128  17.678  -9.282  0.00  0.00    +0.053 A 
ATOM     36 CL   UNL     1       1.225  16.749  -8.716  0.00  0.00    -0.083 Cl
ATOM     37 CL   UNL     1      -1.415  19.187 -12.747  0.00  0.00    -0.083 Cl
ENDBRANCH  28  30
ENDBRANCH  24  25
ENDBRANCH   2  23
TORSDOF 9
