REMARK  Name = ZINC22329038
REMARK  4 active torsions:
REMARK  status: ('A' for Active; 'I' for Inactive)
REMARK    1  A    between atoms: C_1  and  C_2
REMARK    2  A    between atoms: C_7  and  C_8
REMARK    3  A    between atoms: C_14  and  N_18
REMARK    4  A    between atoms: C_19  and  C_21
REMARK                            x       y       z     vdW  Elec       q    Type
REMARK                         _______ _______ _______ _____ _____    ______ ____
ROOT
ATOM      1  C   UNL     1      -2.496   0.969   0.019  0.00  0.00    +0.044 C 
ATOM      2  C   UNL     1      -1.204   1.744   0.017  0.00  0.00    -0.047 A 
ATOM      3  C   UNL     1      -0.013   1.076   0.008  0.00  0.00    +0.014 A 
ATOM      4  C   UNL     1       1.186   1.792   0.000  0.00  0.00    +0.003 A 
ATOM      5  C   UNL     1       1.160   3.200   0.010  0.00  0.00    +0.047 A 
ATOM      6  C   UNL     1      -0.064   3.859   0.024  0.00  0.00    +0.029 A 
ATOM      7  C   UNL     1      -1.234   3.132   0.030  0.00  0.00    -0.046 A 
ATOM      8  C   UNL     1      -2.559   3.850   0.045  0.00  0.00    +0.044 C 
ATOM      9  N   UNL     1       2.469   3.633   0.002  0.00  0.00    -0.358 N 
ATOM     10  H   UNL     1       2.692   4.710   0.008  0.00  0.00    +0.166 HD
ATOM     11  C   UNL     1       3.314   2.559  -0.013  0.00  0.00    +0.020 A 
ATOM     12  C   UNL     1       2.597   1.419  -0.016  0.00  0.00    -0.017 A 
ATOM     13  C   UNL     1       3.189   0.034  -0.036  0.00  0.00    +0.059 C 
ATOM     14  C   UNL     1       4.659   0.140  -0.460  0.00  0.00    +0.078 C 
ATOM     15  C   UNL     1       5.352   1.218   0.379  0.00  0.00    +0.028 C 
ATOM     16  C   UNL     1       4.825   2.599  -0.025  0.00  0.00    +0.055 C 
ENDROOT
BRANCH  14  17
ATOM     17  N   UNL     1       5.324  -1.148  -0.249  0.00  0.00    -0.312 N 
ATOM     18  C   UNL     1       6.413  -1.471  -0.973  0.00  0.00    +0.216 C 
ATOM     19  O   UNL     1       6.843  -0.696  -1.801  0.00  0.00    -0.276 OA
ATOM     20  H   UNL     1       4.934  -1.851   0.502  0.00  0.00    +0.149 HD
BRANCH  18  21
ATOM     21  C   UNL     1       7.097  -2.797  -0.756  0.00  0.00    +0.075 C 
ATOM     22  C   UNL     1       7.648  -2.877   0.683  0.00  0.00    +0.013 C 
ATOM     23  C   UNL     1       8.989  -3.637   0.534  0.00  0.00    +0.001 C 
ATOM     24  C   UNL     1       9.550  -3.082  -0.799  0.00  0.00    +0.001 C 
ATOM     25  C   UNL     1       8.306  -2.927  -1.698  0.00  0.00    +0.013 C 
ENDBRANCH  18  21
ENDBRANCH  14  17
TORSDOF 2
