REMARK  Name = ZINC31827737
REMARK  8 active torsions:
REMARK  status: ('A' for Active; 'I' for Inactive)
REMARK    1  A    between atoms: C_1  and  C_2
REMARK    2  A    between atoms: C_2  and  C_3
REMARK    3  A    between atoms: N_5  and  C_6
REMARK    4  A    between atoms: C_9  and  C_12
REMARK    5  A    between atoms: C_12  and  C_14
REMARK    6  A    between atoms: C_12  and  N_15
REMARK    7  A    between atoms: C_16  and  C_18
REMARK    8  A    between atoms: C_25  and  C_27
REMARK                            x       y       z     vdW  Elec       q    Type
REMARK                         _______ _______ _______ _____ _____    ______ ____
ROOT
ATOM      1  N   UNL     1      -5.043   5.053   1.005  0.00  0.00    -0.308 N 
ATOM      2  C   UNL     1      -6.089   5.727   1.522  0.00  0.00    +0.218 C 
ATOM      3  O   UNL     1      -7.216   5.307   1.369  0.00  0.00    -0.275 OA
ATOM      4  H   UNL     1      -4.020   5.434   1.144  0.00  0.00    +0.149 HD
ENDROOT
BRANCH   2   5
ATOM      5  C   UNL     1      -5.858   7.002   2.291  0.00  0.00    +0.092 C 
ATOM      6  C   UNL     1      -7.200   7.563   2.766  0.00  0.00    +0.016 C 
ATOM      7  C   UNL     1      -6.965   8.840   3.574  0.00  0.00    +0.020 C 
ATOM      8  C   UNL     1      -6.292   9.888   2.682  0.00  0.00    +0.108 C 
ATOM      9  N   UNL     1      -5.073   9.305   2.105  0.00  0.00    -0.297 N 
ATOM     10  C   UNL     1      -5.173   8.029   1.383  0.00  0.00    +0.120 C 
ATOM     11  C   UNL     1      -3.885   9.929   2.234  0.00  0.00    +0.247 C 
ATOM     12  O   UNL     1      -2.898   9.477   1.687  0.00  0.00    -0.270 OA
BRANCH  11  13
ATOM     13  C   UNL     1      -3.784  11.161   3.039  0.00  0.00    +0.045 A 
ATOM     14  C   UNL     1      -4.600  12.248   2.765  0.00  0.00    +0.014 A 
ATOM     15  C   UNL     1      -4.513  13.408   3.523  0.00  0.00    +0.001 A 
ATOM     16  C   UNL     1      -3.620  13.517   4.547  0.00  0.00    +0.008 A 
ATOM     17  C   UNL     1      -2.769  12.442   4.857  0.00  0.00    -0.017 A 
ATOM     18  C   UNL     1      -2.847  11.248   4.099  0.00  0.00    -0.006 A 
ATOM     19  C   UNL     1      -1.997  10.178   4.409  0.00  0.00    +0.009 A 
ATOM     20  C   UNL     1      -1.109  10.297   5.436  0.00  0.00    +0.001 A 
ATOM     21  C   UNL     1      -1.030  11.470   6.183  0.00  0.00    +0.001 A 
ATOM     22  C   UNL     1      -1.840  12.530   5.909  0.00  0.00    +0.008 A 
ENDBRANCH  11  13
ENDBRANCH   2   5
BRANCH   1  23
ATOM     23  C   UNL     1      -5.267   3.813   0.258  0.00  0.00    +0.100 C 
ATOM     24  C   UNL     1      -5.585   4.147  -1.201  0.00  0.00    +0.033 C 
BRANCH  23  28
ATOM     25  C   UNL     1      -1.752   1.389   0.431  0.00  0.00    +0.033 A 
ATOM     26  C   UNL     1      -1.641   2.764   0.278  0.00  0.00    +0.023 A 
ATOM     27  C   UNL     1      -2.780   3.544   0.217  0.00  0.00    +0.007 A 
ATOM     28  C   UNL     1      -4.028   2.958   0.319  0.00  0.00    -0.027 A 
ATOM     29  C   UNL     1      -4.141   1.589   0.477  0.00  0.00    +0.007 A 
ATOM     30  C   UNL     1      -3.007   0.803   0.534  0.00  0.00    +0.023 A 
BRANCH  25  33
ATOM     31  C   UNL     1       0.486   0.931  -0.234  0.00  0.00    +0.217 C 
ATOM     32  O   UNL     1       0.437   1.867  -1.004  0.00  0.00    -0.275 OA
ATOM     33  N   UNL     1      -0.601   0.595   0.488  0.00  0.00    -0.286 N 
ATOM     34  H   UNL     1      -0.583  -0.303   1.123  0.00  0.00    +0.155 HD
BRANCH  31  36
ATOM     35  C   UNL     1       2.833   0.728  -1.010  0.00  0.00    +0.013 C 
ATOM     36  C   UNL     1       1.763   0.144  -0.085  0.00  0.00    +0.093 C 
ENDBRANCH  31  36
ENDBRANCH  25  33
ENDBRANCH  23  28
ENDBRANCH   1  23
TORSDOF 6
