REMARK  Name = ZINC58714719
REMARK  4 active torsions:
REMARK  status: ('A' for Active; 'I' for Inactive)
REMARK    1  A    between atoms: C_3  and  O_22
REMARK    2  A    between atoms: C_6  and  N_7
REMARK    3  A    between atoms: N_10  and  C_11
REMARK    4  A    between atoms: C_11  and  C_12
REMARK                            x       y       z     vdW  Elec       q    Type
REMARK                         _______ _______ _______ _____ _____    ______ ____
ROOT
ATOM      1  N   UNL     1      -1.372  -0.511   0.012  0.00  0.00    -0.297 N 
ATOM      2  C   UNL     1      -1.634  -1.740   0.502  0.00  0.00    +0.300 C 
ATOM      3  O   UNL     1      -0.729  -2.427   0.934  0.00  0.00    -0.253 OA
ATOM      4  N   UNL     1      -2.898  -2.206   0.511  0.00  0.00    -0.299 N 
ATOM      5  H   UNL     1      -2.094   0.037  -0.333  0.00  0.00    +0.151 HD
ATOM      6  H   UNL     1      -3.620  -1.658   0.166  0.00  0.00    +0.150 HD
ENDROOT
BRANCH   1  12
ATOM      7  C   UNL     1      -0.019   1.526   0.010  0.00  0.00    +0.025 C 
ATOM      8  C   UNL     1       1.417   2.055  -0.000  0.00  0.00    +0.033 C 
ATOM      9  C   UNL     1       2.133   1.562  -1.259  0.00  0.00    +0.115 C 
ATOM     10  C   UNL     1       2.154   0.032  -1.268  0.00  0.00    +0.033 C 
ATOM     11  C   UNL     1       0.718  -0.497  -1.257  0.00  0.00    +0.025 C 
ATOM     12  C   UNL     1       0.002  -0.004   0.002  0.00  0.00    +0.075 C 
BRANCH   9  13
ATOM     13  O   UNL     1       3.474   2.057  -1.269  0.00  0.00    -0.392 OA
ATOM     14  H   UNL     1       3.988   1.782  -2.041  0.00  0.00    +0.210 HD
ENDBRANCH   9  13
ENDBRANCH   1  12
BRANCH   4  15
ATOM     15  C   UNL     1      -3.182  -3.541   1.043  0.00  0.00    +0.112 C 
BRANCH  15  16
ATOM     16  C   UNL     1      -4.682  -3.824   0.938  0.00  0.00    -0.013 C 
ATOM     17  C   UNL     1      -5.456  -2.778   1.744  0.00  0.00    +0.012 C 
ATOM     18  C   UNL     1      -6.956  -3.061   1.638  0.00  0.00    -0.010 C 
ATOM     19  C   UNL     1      -7.253  -4.455   2.194  0.00  0.00    +0.007 C 
ATOM     20  C   UNL     1      -6.479  -5.500   1.388  0.00  0.00    -0.010 C 
ATOM     21  C   UNL     1      -4.979  -5.218   1.493  0.00  0.00    +0.012 C 
ATOM     22  C   UNL     1      -6.909  -5.433  -0.079  0.00  0.00    +0.007 C 
ATOM     23  C   UNL     1      -6.612  -4.039  -0.635  0.00  0.00    -0.010 C 
ATOM     24  C   UNL     1      -7.386  -2.994   0.172  0.00  0.00    +0.007 C 
ATOM     25  C   UNL     1      -5.112  -3.757  -0.529  0.00  0.00    +0.012 C 
ENDBRANCH  15  16
ENDBRANCH   4  15
TORSDOF 4
