REMARK  Name = ZINC09909492
REMARK  4 active torsions:
REMARK  status: ('A' for Active; 'I' for Inactive)
REMARK    1  A    between atoms: C_3  and  C_24
REMARK    2  A    between atoms: C_5  and  N_7
REMARK    3  A    between atoms: C_8  and  C_10
REMARK    4  A    between atoms: C_10  and  C_11
REMARK                            x       y       z     vdW  Elec       q    Type
REMARK                         _______ _______ _______ _____ _____    ______ ____
ROOT
ATOM      1  C   UNL     1       0.004   1.380   0.175  0.00  0.00    +0.003 A 
ATOM      2  C   UNL     1       1.174   2.089  -0.011  0.00  0.00    +0.013 A 
ATOM      3  C   UNL     1       2.378   1.410  -0.203  0.00  0.00    +0.039 A 
ATOM      4  C   UNL     1       2.395   0.015  -0.206  0.00  0.00    +0.036 A 
ATOM      5  C   UNL     1       1.215  -0.687  -0.018  0.00  0.00    +0.034 A 
ATOM      6  C   UNL     1       0.021  -0.002   0.172  0.00  0.00    +0.023 A 
ENDROOT
BRANCH   3   7
ATOM      7  C   UNL     1       3.632   2.167  -0.402  0.00  0.00    +0.250 C 
ATOM      8  O   UNL     1       4.680   1.574  -0.569  0.00  0.00    -0.270 OA
ATOM      9  N   UNL     1       3.614   3.515  -0.399  0.00  0.00    -0.261 N 
ATOM     10  C   UNL     1       4.792   4.226  -0.587  0.00  0.00    +0.165 A 
ATOM     11  N   UNL     1       6.005   3.759  -0.786  0.00  0.00    -0.229 NA
ATOM     12  C   UNL     1       7.050   4.565  -0.952  0.00  0.00    +0.054 A 
ATOM     13  C   UNL     1       6.762   5.891  -0.899  0.00  0.00    +0.014 A 
ATOM     14  S   UNL     1       5.013   5.896  -0.622  0.00  0.00    -0.057 S 
ATOM     15  C   UNL     1       7.707   7.035  -1.045  0.00  0.00    +0.044 C 
ATOM     16  C   UNL     1       9.139   6.496  -0.904  0.00  0.00    +0.006 C 
ATOM     17  C   UNL     1       9.286   5.248  -1.780  0.00  0.00    +0.006 C 
ATOM     18  C   UNL     1       8.477   4.092  -1.188  0.00  0.00    +0.056 C 
ATOM     19  H   UNL     1       2.777   3.988  -0.266  0.00  0.00    +0.157 HD
ENDBRANCH   3   7
BRANCH   5  20
ATOM     20  N   UNL     1       1.226  -2.087  -0.021  0.00  0.00    -0.285 N 
ATOM     21  C   UNL     1       2.295  -2.753   0.458  0.00  0.00    +0.219 C 
ATOM     22  O   UNL     1       3.205  -2.145   0.979  0.00  0.00    -0.275 OA
ATOM     23  H   UNL     1       0.464  -2.577  -0.368  0.00  0.00    +0.155 HD
BRANCH  21  24
ATOM     24  C   UNL     1       2.358  -4.255   0.347  0.00  0.00    +0.120 C 
BRANCH  24  25
ATOM     25  C   UNL     1       3.666  -4.757   0.963  0.00  0.00    +0.150 C 
ATOM     26  C   UNL     1       3.769  -6.276   0.889  0.00  0.00    +0.252 C 
ATOM     27  O   UNL     1       2.996  -7.031   1.445  0.00  0.00    -0.272 OA
ATOM     28  N   UNL     1       4.780  -6.681   0.162  0.00  0.00    -0.158 NA
ATOM     29  C   UNL     1       5.627  -5.871  -0.447  0.00  0.00    +0.150 C 
ATOM     30  S   UNL     1       5.115  -4.309  -0.078  0.00  0.00    -0.080 S 
ATOM     31  N   UNL     1       6.697  -6.226  -1.215  0.00  0.00    -0.312 N 
ATOM     32  C   UNL     1       7.555  -5.201  -1.823  0.00  0.00    +0.107 C 
ATOM     33  C   UNL     1       9.009  -5.478  -1.431  0.00  0.00    +0.019 C 
ATOM     34  C   UNL     1       9.373  -6.913  -1.818  0.00  0.00    +0.003 C 
ATOM     35  C   UNL     1       8.473  -7.892  -1.061  0.00  0.00    +0.019 C 
ATOM     36  C   UNL     1       7.016  -7.642  -1.444  0.00  0.00    +0.107 C 
ENDBRANCH  24  25
ENDBRANCH  21  24
ENDBRANCH   5  20
TORSDOF 4
