REMARK  Name = ZINC00622878
REMARK  7 active torsions:
REMARK  status: ('A' for Active; 'I' for Inactive)
REMARK    1  A    between atoms: C_4  and  C_7
REMARK    2  A    between atoms: C_14  and  N_35
REMARK    3  A    between atoms: C_15  and  C_33
REMARK    4  A    between atoms: C_16  and  C_18
REMARK    5  A    between atoms: C_22  and  O_24
REMARK    6  A    between atoms: O_24  and  C_25
REMARK    7  A    between atoms: C_25  and  C_26
REMARK                            x       y       z     vdW  Elec       q    Type
REMARK                         _______ _______ _______ _____ _____    ______ ____
ROOT
ATOM      1  C   UNL     1       3.699  -0.689  -0.037  0.00  0.00    +0.100 A 
ATOM      2  C   UNL     1       3.972  -1.905   0.597  0.00  0.00    +0.054 A 
ATOM      3  C   UNL     1       5.272  -2.232   0.341  0.00  0.00    +0.223 A 
ATOM      4  N   UNL     1       5.798  -1.256  -0.427  0.00  0.00    -0.246 N 
ATOM      5  H   UNL     1       6.707  -1.222  -0.764  0.00  0.00    +0.192 HD
ATOM      6  N   UNL     1       4.796  -0.300  -0.659  0.00  0.00    -0.171 NA
ATOM      7  O   UNL     1       5.849  -3.365   0.815  0.00  0.00    -0.423 OA
ATOM      8  C   UNL     1       5.037  -4.312   1.327  0.00  0.00    +0.200 C 
ATOM      9  C   UNL     1       3.737  -4.104   1.633  0.00  0.00    +0.098 C 
ATOM     10  C   UNL     1       3.064  -2.769   1.433  0.00  0.00    +0.102 C 
ENDROOT
BRANCH   1  14
ATOM     11  C   UNL     1      -0.017   1.379   0.010  0.00  0.00    +0.000 A 
ATOM     12  C   UNL     1       1.169   2.092   0.002  0.00  0.00    +0.001 A 
ATOM     13  C   UNL     1       2.377   1.426  -0.013  0.00  0.00    +0.010 A 
ATOM     14  C   UNL     1       2.402   0.033  -0.021  0.00  0.00    +0.003 A 
ATOM     15  C   UNL     1       1.205  -0.680  -0.013  0.00  0.00    +0.010 A 
ATOM     16  C   UNL     1       0.002  -0.004   0.002  0.00  0.00    +0.001 A 
ENDBRANCH   1  14
BRANCH  10  17
ATOM     17  C   UNL     1       2.827  -2.113   2.770  0.00  0.00    -0.031 A 
ATOM     18  C   UNL     1       3.895  -1.842   3.605  0.00  0.00    +0.005 A 
ATOM     19  C   UNL     1       3.681  -1.240   4.831  0.00  0.00    +0.004 A 
ATOM     20  C   UNL     1       2.399  -0.909   5.225  0.00  0.00    +0.045 A 
ATOM     21  C   UNL     1       1.326  -1.181   4.389  0.00  0.00    +0.121 A 
ATOM     22  C   UNL     1       1.544  -1.779   3.156  0.00  0.00    +0.050 A 
BRANCH  21  23
ATOM     23  O   UNL     1       0.064  -0.856   4.774  0.00  0.00    -0.487 OA
BRANCH  23  24
ATOM     24  C   UNL     1      -0.085  -0.238   6.054  0.00  0.00    +0.267 C 
BRANCH  24  25
ATOM     25  C   UNL     1      -1.543   0.047   6.308  0.00  0.00    +0.025 A 
ATOM     26  C   UNL     1      -2.490  -0.297   5.361  0.00  0.00    +0.010 A 
ATOM     27  C   UNL     1      -3.827  -0.035   5.593  0.00  0.00    +0.001 A 
ATOM     28  C   UNL     1      -4.219   0.570   6.773  0.00  0.00    +0.003 A 
ATOM     29  C   UNL     1      -3.275   0.914   7.721  0.00  0.00    +0.039 A 
ATOM     30  C   UNL     1      -1.935   0.648   7.492  0.00  0.00    +0.130 A 
ATOM     31  F   UNL     1      -1.012   0.980   8.420  0.00  0.00    -0.205 F 
ENDBRANCH  24  25
ENDBRANCH  23  24
ENDBRANCH  21  23
ENDBRANCH  10  17
BRANCH   8  32
ATOM     32  N   UNL     1       5.561  -5.561   1.549  0.00  0.00    -0.328 N 
ATOM     33  H   UNL     1       6.491  -5.742   1.339  0.00  0.00    +0.145 HD
ATOM     34  H   UNL     1       5.002  -6.264   1.916  0.00  0.00    +0.145 HD
ENDBRANCH   8  32
BRANCH   9  35
ATOM     35  C   UNL     1       2.972  -5.189   2.167  0.00  0.00    +0.101 C 
ATOM     36  N   UNL     1       2.364  -6.051   2.591  0.00  0.00    -0.191 NA
ENDBRANCH   9  35
TORSDOF 7
