REMARK  Name = ZINC55748786
REMARK  11 active torsions:
REMARK  status: ('A' for Active; 'I' for Inactive)
REMARK    1  A    between atoms: C_1  and  C_2
REMARK    2  A    between atoms: C_5  and  C_29
REMARK    3  A    between atoms: N_8  and  C_10
REMARK    4  A    between atoms: C_10  and  C_11
REMARK    5  A    between atoms: C_11  and  C_13
REMARK    6  A    between atoms: C_11  and  N_14
REMARK    7  A    between atoms: C_15  and  C_17
REMARK    8  A    between atoms: C_19  and  S_25
REMARK    9  A    between atoms: C_22  and  O_23
REMARK   10  A    between atoms: O_23  and  C_24
REMARK   11  A    between atoms: S_25  and  N_28
REMARK                            x       y       z     vdW  Elec       q    Type
REMARK                         _______ _______ _______ _____ _____    ______ ____
ROOT
ATOM      1  N   UNL     1       3.510  -2.495   0.951  0.00  0.00    -0.310 N 
ATOM      2  C   UNL     1       4.540  -1.852   0.365  0.00  0.00    +0.248 C 
ATOM      3  O   UNL     1       5.040  -0.884   0.906  0.00  0.00    -0.270 OA
ATOM      4  H   UNL     1       3.112  -3.266   0.519  0.00  0.00    +0.149 HD
ENDROOT
BRANCH   2   5
ATOM      5  C   UNL     1       5.061  -2.322  -0.933  0.00  0.00    +0.080 A 
ATOM      6  C   UNL     1       4.486  -3.429  -1.561  0.00  0.00    +0.045 A 
ATOM      7  C   UNL     1       4.977  -3.863  -2.773  0.00  0.00    +0.106 A 
ATOM      8  C   UNL     1       6.039  -3.205  -3.373  0.00  0.00    +0.032 A 
ATOM      9  C   UNL     1       6.616  -2.110  -2.764  0.00  0.00    +0.048 A 
ATOM     10  C   UNL     1       6.131  -1.656  -1.546  0.00  0.00    +0.132 A 
BRANCH   7  11
ATOM     11  S   UNL     1       4.251  -5.261  -3.564  0.00  0.00    +0.056 S 
ATOM     12  O   UNL     1       5.243  -5.799  -4.427  0.00  0.00    -0.153 OA
ATOM     13  O   UNL     1       3.632  -6.029  -2.542  0.00  0.00    -0.153 OA
BRANCH  11  14
ATOM     14  N   UNL     1       3.034  -4.696  -4.535  0.00  0.00    -0.204 NA
ATOM     15  H   UNL     1       2.849  -3.745  -4.578  0.00  0.00    +0.144 HD
ATOM     16  H   UNL     1       2.507  -5.317  -5.062  0.00  0.00    +0.144 HD
ENDBRANCH  11  14
ENDBRANCH   7  11
BRANCH  10  17
ATOM     17  O   UNL     1       6.694  -0.576  -0.948  0.00  0.00    -0.494 OA
ATOM     18  C   UNL     1       7.781   0.051  -1.631  0.00  0.00    +0.277 C 
ENDBRANCH  10  17
ENDBRANCH   2   5
BRANCH   1  19
ATOM     19  C   UNL     1       2.993  -2.028   2.239  0.00  0.00    +0.054 C 
ATOM     20  C   UNL     1       3.825  -2.634   3.372  0.00  0.00    +0.026 C 
BRANCH  19  21
ATOM     21  C   UNL     1       1.534  -2.461   2.390  0.00  0.00    -0.057 C 
BRANCH  21  27
ATOM     22  C   UNL     1      -0.019   1.526   0.010  0.00  0.00    +0.005 C 
ATOM     23  C   UNL     1       0.002  -0.004   0.002  0.00  0.00    -0.031 C 
ATOM     24  C   UNL     1      -1.434  -0.535   0.015  0.00  0.00    +0.003 C 
ATOM     25  C   UNL     1      -1.402  -2.064   0.086  0.00  0.00    -0.031 C 
ATOM     26  C   UNL     1      -0.613  -2.496   1.324  0.00  0.00    -0.076 C 
ATOM     27  N   UNL     1       0.758  -1.980   1.239  0.00  0.00    +0.381 N 
ATOM     28  C   UNL     1       0.740  -0.512   1.242  0.00  0.00    -0.076 C 
ATOM     29  C   UNL     1      -0.728  -2.620  -1.170  0.00  0.00    +0.005 C 
ATOM     30  H   UNL     1       1.188  -2.307   0.386  0.00  0.00    -0.082 HD
ENDBRANCH  21  27
ENDBRANCH  19  21
ENDBRANCH   1  19
TORSDOF 7
