REMARK  Name = ZINC43527597
REMARK  8 active torsions:
REMARK  status: ('A' for Active; 'I' for Inactive)
REMARK    1  A    between atoms: N_9  and  C_10
REMARK    2  A    between atoms: C_10  and  C_11
REMARK    3  A    between atoms: C_20  and  C_22
REMARK    4  A    between atoms: C_22  and  N_23
REMARK    5  A    between atoms: N_23  and  C_24
REMARK    6  A    between atoms: C_24  and  N_26
REMARK    7  A    between atoms: N_26  and  C_27
REMARK    8  A    between atoms: C_30  and  N_33
REMARK                            x       y       z     vdW  Elec       q    Type
REMARK                         _______ _______ _______ _____ _____    ______ ____
ROOT
ATOM      1  C   UNL     1       5.246  -0.838   1.014  0.00  0.00    -0.007 C 
ATOM      2  C   UNL     1       5.253  -2.054   1.944  0.00  0.00    -0.073 C 
ATOM      3  N   UNL     1       6.630  -2.401   2.304  0.00  0.00    +0.383 N 
ATOM      4  C   UNL     1       7.401  -2.756   1.111  0.00  0.00    -0.078 C 
ATOM      5  C   UNL     1       7.465  -1.564   0.153  0.00  0.00    -0.015 C 
ATOM      6  C   UNL     1       6.692  -0.388   0.771  0.00  0.00    -0.011 C 
ATOM      7  C   UNL     1       7.328  -0.052   2.127  0.00  0.00    -0.010 C 
ATOM      8  C   UNL     1       7.270  -1.295   3.021  0.00  0.00    -0.051 C 
ATOM      9  H   UNL     1       6.608  -3.205   2.912  0.00  0.00    -0.081 HD
ENDROOT
BRANCH   1  10
ATOM     10  C   UNL     1       4.596  -1.216  -0.318  0.00  0.00    +0.107 C 
BRANCH  10  19
ATOM     11  C   UNL     1      -0.202   0.885  -0.177  0.00  0.00    +0.000 A 
ATOM     12  C   UNL     1       1.013   1.495  -0.428  0.00  0.00    +0.002 A 
ATOM     13  C   UNL     1       2.176   0.755  -0.419  0.00  0.00    +0.023 A 
ATOM     14  C   UNL     1       2.136  -0.616  -0.156  0.00  0.00    +0.033 A 
ATOM     15  C   UNL     1       0.912  -1.217   0.094  0.00  0.00    -0.025 A 
ATOM     16  C   UNL     1      -0.251  -0.471   0.083  0.00  0.00    +0.005 A 
ATOM     17  C   UNL     1       1.143  -2.690   0.347  0.00  0.00    +0.056 C 
ATOM     18  C   UNL     1       2.664  -2.872   0.211  0.00  0.00    +0.110 C 
ATOM     19  N   UNL     1       3.183  -1.537  -0.099  0.00  0.00    -0.329 N 
ENDBRANCH  10  19
ENDBRANCH   1  10
BRANCH   8  20
ATOM     20  C   UNL     1       8.690  -1.702   3.419  0.00  0.00    +0.088 C 
BRANCH  20  21
ATOM     21  N   UNL     1       8.643  -2.949   4.187  0.00  0.00    -0.328 N 
ATOM     22  H   UNL     1       7.791  -3.378   4.365  0.00  0.00    +0.148 HD
BRANCH  21  23
ATOM     23  C   UNL     1       9.784  -3.501   4.646  0.00  0.00    +0.134 C 
ATOM     24  S   UNL     1      11.287  -2.745   4.332  0.00  0.00    -0.019 S 
BRANCH  23  25
ATOM     25  N   UNL     1       9.741  -4.648   5.353  0.00  0.00    -0.297 N 
ATOM     26  H   UNL     1       8.886  -5.034   5.600  0.00  0.00    +0.154 HD
BRANCH  25  27
ATOM     27  C   UNL     1      10.930  -5.283   5.730  0.00  0.00    +0.033 A 
ATOM     28  C   UNL     1      11.054  -5.827   7.002  0.00  0.00    +0.025 A 
ATOM     29  C   UNL     1      12.227  -6.453   7.373  0.00  0.00    +0.029 A 
ATOM     30  C   UNL     1      13.283  -6.538   6.476  0.00  0.00    +0.065 A 
ATOM     31  C   UNL     1      13.159  -5.995   5.204  0.00  0.00    +0.029 A 
ATOM     32  C   UNL     1      11.985  -5.374   4.830  0.00  0.00    +0.025 A 
BRANCH  30  33
ATOM     33  N   UNL     1      14.475  -7.174   6.854  0.00  0.00    -0.240 N 
ATOM     34  C   UNL     1      15.576  -7.322   6.084  0.00  0.00    +0.114 A 
ATOM     35  C   UNL     1      16.502  -7.987   6.814  0.00  0.00    +0.041 A 
ATOM     36  C   UNL     1      15.949  -8.254   8.071  0.00  0.00    +0.135 A 
ATOM     37  N   UNL     1      14.736  -7.763   8.098  0.00  0.00    -0.175 NA
ENDBRANCH  30  33
ENDBRANCH  25  27
ENDBRANCH  23  25
ENDBRANCH  21  23
ENDBRANCH  20  21
ENDBRANCH   8  20
TORSDOF 8
