REMARK  Name = ZINC63323716
REMARK  10 active torsions:
REMARK  status: ('A' for Active; 'I' for Inactive)
REMARK    1  A    between atoms: C_1  and  O_2
REMARK    2  A    between atoms: O_2  and  C_3
REMARK    3  A    between atoms: C_6  and  N_9
REMARK    4  A    between atoms: C_10  and  C_12
REMARK    5  A    between atoms: C_12  and  S_13
REMARK    6  A    between atoms: S_13  and  C_14
REMARK    7  A    between atoms: C_17  and  C_27
REMARK    8  A    between atoms: N_19  and  C_20
REMARK    9  A    between atoms: C_20  and  C_21
REMARK   10  A    between atoms: C_27  and  C_28
REMARK                            x       y       z     vdW  Elec       q    Type
REMARK                         _______ _______ _______ _____ _____    ______ ____
ROOT
ATOM      1  C   UNL     1       3.753  -6.799   6.943  0.00  0.00    +0.176 C 
ATOM      2  N   UNL     1       4.223  -6.151   7.955  0.00  0.00    -0.163 NA
ATOM      3  N   UNL     1       4.651  -7.020   8.966  0.00  0.00    -0.246 N 
ATOM      4  C   UNL     1       4.392  -8.383   8.473  0.00  0.00    +0.181 C 
ATOM      5  N   UNL     1       3.798  -8.171   7.142  0.00  0.00    -0.284 N 
ATOM      6  H   UNL     1       5.040  -6.773   9.820  0.00  0.00    +0.170 HD
ENDROOT
BRANCH   1   7
ATOM      7  S   UNL     1       3.123  -6.033   5.487  0.00  0.00    -0.080 S 
BRANCH   7   8
ATOM      8  C   UNL     1       3.324  -4.258   5.803  0.00  0.00    +0.173 C 
BRANCH   8  10
ATOM      9  N   UNL     1       2.866  -2.130   4.628  0.00  0.00    -0.285 N 
ATOM     10  C   UNL     1       2.817  -3.476   4.618  0.00  0.00    +0.227 C 
ATOM     11  O   UNL     1       2.365  -4.059   3.655  0.00  0.00    -0.275 OA
ATOM     12  H   UNL     1       3.293  -1.665   5.365  0.00  0.00    +0.155 HD
BRANCH   9  16
ATOM     13  C   UNL     1       1.180   0.043   1.493  0.00  0.00    +0.120 A 
ATOM     14  C   UNL     1       0.604  -1.153   1.897  0.00  0.00    +0.047 A 
ATOM     15  C   UNL     1       1.161  -1.873   2.935  0.00  0.00    +0.027 A 
ATOM     16  C   UNL     1       2.299  -1.400   3.575  0.00  0.00    +0.034 A 
ATOM     17  C   UNL     1       2.876  -0.203   3.170  0.00  0.00    +0.027 A 
ATOM     18  C   UNL     1       2.320   0.513   2.128  0.00  0.00    +0.047 A 
BRANCH  13  20
ATOM     19  C   UNL     1      -0.543   0.208  -0.137  0.00  0.00    +0.277 C 
ATOM     20  O   UNL     1       0.630   0.751   0.471  0.00  0.00    -0.495 OA
ENDBRANCH  13  20
ENDBRANCH   9  16
ENDBRANCH   8  10
ENDBRANCH   7   8
ENDBRANCH   1   7
BRANCH   5  21
ATOM     21  C   UNL     1       3.344  -9.206   6.210  0.00  0.00    +0.144 C 
BRANCH  21  22
ATOM     22  C   UNL     1       1.937  -9.617   6.561  0.00  0.00    -0.030 A 
ATOM     23  C   UNL     1       1.719 -10.581   7.527  0.00  0.00    +0.005 A 
ATOM     24  C   UNL     1       0.429 -10.957   7.848  0.00  0.00    +0.000 A 
ATOM     25  C   UNL     1      -0.644 -10.370   7.204  0.00  0.00    +0.000 A 
ATOM     26  C   UNL     1      -0.426  -9.405   6.238  0.00  0.00    +0.000 A 
ATOM     27  C   UNL     1       0.865  -9.025   5.920  0.00  0.00    +0.005 A 
ENDBRANCH  21  22
ENDBRANCH   5  21
BRANCH   4  28
ATOM     28  C   UNL     1       5.699  -9.172   8.366  0.00  0.00    +0.076 C 
BRANCH  28  29
ATOM     29  C   UNL     1       6.280  -9.370   9.742  0.00  0.00    -0.038 C 
ATOM     30  C   UNL     1       6.122 -10.448  10.544  0.00  0.00    -0.001 A 
ATOM     31  C   UNL     1       5.389 -11.709  10.382  0.00  0.00    +0.010 A 
ATOM     32  C   UNL     1       5.417 -12.617  11.384  0.00  0.00    +0.001 A 
ATOM     33  C   UNL     1       6.127 -12.385  12.570  0.00  0.00    +0.002 A 
ATOM     34  C   UNL     1       6.824 -11.250  12.792  0.00  0.00    +0.026 A 
ATOM     35  C   UNL     1       6.864 -10.226  11.806  0.00  0.00    +0.043 A 
ATOM     36  N   UNL     1       7.457  -9.058  11.785  0.00  0.00    -0.380 N 
ATOM     37  C   UNL     1       7.163  -8.407  10.503  0.00  0.00    +0.144 C 
ATOM     38  H   UNL     1       8.002  -8.687  12.496  0.00  0.00    +0.160 HD
ENDBRANCH  28  29
ENDBRANCH   4  28
TORSDOF 9
