REMARK  Name = ZINC39668957
REMARK  6 active torsions:
REMARK  status: ('A' for Active; 'I' for Inactive)
REMARK    1  A    between atoms: C_10  and  C_12
REMARK    2  A    between atoms: C_12  and  N_13
REMARK    3  A    between atoms: C_14  and  C_16
REMARK    4  A    between atoms: C_27  and  C_29
REMARK    5  A    between atoms: C_32  and  O_35
REMARK    6  A    between atoms: O_35  and  C_36
REMARK                            x       y       z     vdW  Elec       q    Type
REMARK                         _______ _______ _______ _____ _____    ______ ____
ROOT
ATOM      1  C   UNL     1       8.206  -0.341  -1.520  0.00  0.00    +0.100 C 
ATOM      2  C   UNL     1       9.040  -0.469  -0.226  0.00  0.00    +0.121 C 
ATOM      3  N   UNL     1      10.449  -0.374  -0.676  0.00  0.00    -0.296 N 
ATOM      4  C   UNL     1      10.428   0.666  -1.733  0.00  0.00    +0.115 C 
ATOM      5  C   UNL     1       9.120   0.405  -2.506  0.00  0.00    -0.004 C 
ATOM      6  C   UNL     1       9.396  -0.462  -3.731  0.00  0.00    -0.010 C 
ATOM      7  C   UNL     1      10.259   0.323  -4.722  0.00  0.00    -0.082 C 
ATOM      8  N   UNL     1       9.561   1.553  -5.116  0.00  0.00    +0.379 N 
ATOM      9  C   UNL     1       9.383   2.423  -3.947  0.00  0.00    -0.082 C 
ATOM     10  C   UNL     1       8.482   1.727  -2.923  0.00  0.00    -0.010 C 
ATOM     11  C   UNL     1      11.509  -1.075  -0.228  0.00  0.00    +0.247 C 
ATOM     12  O   UNL     1      11.345  -1.988   0.557  0.00  0.00    -0.270 OA
ATOM     13  H   UNL     1      10.104   2.037  -5.814  0.00  0.00    -0.086 HD
ATOM     14  H   UNL     1       8.658   1.317  -5.499  0.00  0.00    -0.086 HD
ENDROOT
BRANCH  11  15
ATOM     15  C   UNL     1      12.868  -0.733  -0.690  0.00  0.00    +0.037 A 
ATOM     16  C   UNL     1      13.131   0.534  -1.218  0.00  0.00    +0.016 A 
ATOM     17  C   UNL     1      14.401   0.850  -1.647  0.00  0.00    +0.047 A 
ATOM     18  C   UNL     1      15.421  -0.090  -1.556  0.00  0.00    +0.130 A 
ATOM     19  C   UNL     1      15.164  -1.351  -1.031  0.00  0.00    +0.047 A 
ATOM     20  C   UNL     1      13.898  -1.673  -0.595  0.00  0.00    +0.016 A 
BRANCH  18  21
ATOM     21  O   UNL     1      16.671   0.224  -1.981  0.00  0.00    -0.406 OA
BRANCH  21  22
ATOM     22  C   UNL     1      17.671  -0.789  -1.859  0.00  0.00    +0.575 C 
ATOM     23  F   UNL     1      17.292  -1.911  -2.603  0.00  0.00    -0.133 F 
ATOM     24  F   UNL     1      18.891  -0.300  -2.340  0.00  0.00    -0.133 F 
ATOM     25  F   UNL     1      17.811  -1.147  -0.513  0.00  0.00    -0.133 F 
ENDBRANCH  21  22
ENDBRANCH  18  21
ENDBRANCH  11  15
BRANCH   1  27
ATOM     26  N   UNL     1       5.839   0.211  -1.978  0.00  0.00    -0.312 N 
ATOM     27  C   UNL     1       6.954   0.456  -1.260  0.00  0.00    +0.218 C 
ATOM     28  O   UNL     1       6.948   1.316  -0.406  0.00  0.00    -0.275 OA
ATOM     29  H   UNL     1       5.843  -0.477  -2.661  0.00  0.00    +0.149 HD
BRANCH  26  30
ATOM     30  C   UNL     1       4.621   0.986  -1.725  0.00  0.00    +0.140 C 
BRANCH  30  40
ATOM     31  C   UNL     1      -0.032   2.760  -1.849  0.00  0.00    +0.000 A 
ATOM     32  C   UNL     1       0.743   2.272  -0.814  0.00  0.00    +0.000 A 
ATOM     33  C   UNL     1       1.886   1.549  -1.092  0.00  0.00    +0.006 A 
ATOM     34  C   UNL     1       2.261   1.311  -2.405  0.00  0.00    -0.014 A 
ATOM     35  C   UNL     1       1.490   1.802  -3.437  0.00  0.00    -0.040 A 
ATOM     36  C   UNL     1       0.341   2.525  -3.158  0.00  0.00    +0.004 A 
ATOM     37  C   UNL     1       1.873   1.577  -4.878  0.00  0.00    +0.063 C 
ATOM     38  C   UNL     1       2.893   0.441  -4.970  0.00  0.00    +0.165 C 
ATOM     39  O   UNL     1       3.934   0.687  -4.019  0.00  0.00    -0.370 OA
ATOM     40  C   UNL     1       3.512   0.513  -2.667  0.00  0.00    +0.165 C 
ENDBRANCH  30  40
ENDBRANCH  26  30
ENDBRANCH   1  27
TORSDOF 6
