REMARK  Name = ZINC06757815
REMARK  5 active torsions:
REMARK  status: ('A' for Active; 'I' for Inactive)
REMARK    1  A    between atoms: C_1  and  S_2
REMARK    2  A    between atoms: S_2  and  C_3
REMARK    3  A    between atoms: C_8  and  N_21
REMARK    4  A    between atoms: C_9  and  C_19
REMARK    5  A    between atoms: C_10  and  C_13
REMARK                            x       y       z     vdW  Elec       q    Type
REMARK                         _______ _______ _______ _____ _____    ______ ____
ROOT
ATOM      1  C   UNL     1      -1.702  -0.454   0.016  0.00  0.00    +0.210 A 
ATOM      2  N   UNL     1      -2.733   0.407   0.025  0.00  0.00    -0.187 NA
ATOM      3  C   UNL     1      -3.853  -0.255   0.036  0.00  0.00    +0.221 A 
ATOM      4  N   UNL     1      -3.551  -1.593   0.028  0.00  0.00    -0.184 N 
ATOM      5  N   UNL     1      -2.165  -1.686   0.014  0.00  0.00    -0.135 NA
ATOM      6  C   UNL     1      -4.535  -2.563   0.021  0.00  0.00    +0.137 C 
ATOM      7  C   UNL     1      -5.816  -2.178   0.296  0.00  0.00    +0.093 C 
ATOM      8  C   UNL     1      -6.152  -0.754   0.650  0.00  0.00    +0.147 C 
ATOM      9  N   UNL     1      -5.171   0.171   0.058  0.00  0.00    -0.302 N 
ATOM     10  H   UNL     1      -5.434   1.033  -0.299  0.00  0.00    +0.150 HD
ENDROOT
BRANCH   8  11
ATOM     11  C   UNL     1      -6.139  -0.598   2.149  0.00  0.00    -0.022 A 
ATOM     12  C   UNL     1      -4.939  -0.441   2.817  0.00  0.00    +0.006 A 
ATOM     13  C   UNL     1      -4.928  -0.298   4.192  0.00  0.00    +0.000 A 
ATOM     14  C   UNL     1      -6.116  -0.311   4.899  0.00  0.00    +0.000 A 
ATOM     15  C   UNL     1      -7.316  -0.466   4.230  0.00  0.00    +0.000 A 
ATOM     16  C   UNL     1      -7.328  -0.605   2.855  0.00  0.00    +0.006 A 
ENDBRANCH   8  11
BRANCH   6  17
ATOM     17  N   UNL     1      -4.233  -3.875  -0.254  0.00  0.00    -0.342 N 
ATOM     18  H   UNL     1      -3.318  -4.132  -0.448  0.00  0.00    +0.144 HD
ATOM     19  H   UNL     1      -4.936  -4.544  -0.254  0.00  0.00    +0.144 HD
ENDBRANCH   6  17
BRANCH   1  21
ATOM     20  C   UNL     1      -0.022   1.810   0.012  0.00  0.00    +0.093 C 
ATOM     21  S   UNL     1       0.002  -0.004   0.002  0.00  0.00    -0.088 S 
ENDBRANCH   1  21
BRANCH   7  22
ATOM     22  C   UNL     1      -6.864  -3.152   0.246  0.00  0.00    +0.100 C 
ATOM     23  N   UNL     1      -7.696  -3.924   0.206  0.00  0.00    -0.191 NA
ENDBRANCH   7  22
TORSDOF 4
