REMARK  Name = ZINC63572987
REMARK  7 active torsions:
REMARK  status: ('A' for Active; 'I' for Inactive)
REMARK    1  A    between atoms: C_1  and  C_2
REMARK    2  A    between atoms: C_5  and  N_9
REMARK    3  A    between atoms: C_18  and  O_35
REMARK    4  A    between atoms: C_25  and  C_27
REMARK    5  A    between atoms: C_30  and  O_33
REMARK    6  A    between atoms: O_33  and  C_34
REMARK    7  A    between atoms: O_35  and  C_36
REMARK                            x       y       z     vdW  Elec       q    Type
REMARK                         _______ _______ _______ _____ _____    ______ ____
ROOT
ATOM      1  N   UNL     1       0.173  -4.392   0.194  0.00  0.00    -0.268 N 
ATOM      2  C   UNL     1       0.014  -4.957  -1.019  0.00  0.00    +0.307 C 
ATOM      3  O   UNL     1      -0.062  -4.258  -2.011  0.00  0.00    -0.252 OA
ATOM      4  N   UNL     1      -0.060  -6.298  -1.133  0.00  0.00    -0.276 N 
ATOM      5  C   UNL     1      -0.085  -7.129   0.075  0.00  0.00    +0.114 C 
ATOM      6  C   UNL     1       1.089  -8.124   0.037  0.00  0.00    +0.052 C 
ATOM      7  C   UNL     1       1.112  -8.714  -1.351  0.00  0.00    -0.035 C 
ATOM      8  C   UNL     1       1.131  -9.973  -1.769  0.00  0.00    +0.003 A 
ATOM      9  C   UNL     1       1.247 -11.248  -1.044  0.00  0.00    +0.055 A 
ATOM     10  C   UNL     1       1.213 -12.383  -1.795  0.00  0.00    +0.121 A 
ATOM     11  C   UNL     1       1.076 -12.396  -3.191  0.00  0.00    +0.047 A 
ATOM     12  C   UNL     1       0.971 -11.281  -3.958  0.00  0.00    +0.029 A 
ATOM     13  C   UNL     1       1.003  -9.989  -3.259  0.00  0.00    +0.043 A 
ATOM     14  N   UNL     1       0.946  -8.778  -3.724  0.00  0.00    -0.375 N 
ATOM     15  C   UNL     1       1.093  -7.847  -2.604  0.00  0.00    +0.131 C 
ATOM     16  C   UNL     1      -0.121  -6.913  -2.469  0.00  0.00    +0.134 C 
ATOM     17  H   UNL     1       0.280  -4.951   0.979  0.00  0.00    +0.156 HD
ATOM     18  H   UNL     1       0.826  -8.532  -4.655  0.00  0.00    +0.160 HD
ENDROOT
BRANCH   1  23
ATOM     19  C   UNL     1       0.210   1.260   0.705  0.00  0.00    +0.044 C 
ATOM     20  C   UNL     1       0.200  -0.241   0.570  0.00  0.00    -0.049 A 
ATOM     21  C   UNL     1       0.587  -0.830  -0.620  0.00  0.00    +0.005 A 
ATOM     22  C   UNL     1       0.579  -2.205  -0.748  0.00  0.00    +0.025 A 
ATOM     23  C   UNL     1       0.182  -2.998   0.320  0.00  0.00    +0.053 A 
ATOM     24  C   UNL     1      -0.206  -2.404   1.515  0.00  0.00    +0.062 A 
ATOM     25  C   UNL     1      -0.192  -1.028   1.638  0.00  0.00    +0.025 A 
ATOM     26 CL   UNL     1      -0.705  -3.391   2.854  0.00  0.00    -0.082 Cl
ENDBRANCH   1  23
BRANCH  16  27
ATOM     27  C   UNL     1      -1.396  -7.704  -2.609  0.00  0.00    -0.024 A 
ATOM     28  C   UNL     1      -2.294  -7.391  -3.613  0.00  0.00    +0.009 A 
ATOM     29  C   UNL     1      -3.464  -8.114  -3.743  0.00  0.00    +0.046 A 
ATOM     30  C   UNL     1      -3.737  -9.155  -2.867  0.00  0.00    +0.120 A 
ATOM     31  C   UNL     1      -2.833  -9.466  -1.861  0.00  0.00    +0.046 A 
ATOM     32  C   UNL     1      -1.663  -8.744  -1.738  0.00  0.00    +0.009 A 
BRANCH  30  33
ATOM     33  O   UNL     1      -4.887  -9.867  -2.993  0.00  0.00    -0.495 OA
ATOM     34  C   UNL     1      -5.102 -10.924  -2.056  0.00  0.00    +0.277 C 
ENDBRANCH  30  33
ENDBRANCH  16  27
BRANCH  10  35
ATOM     35  O   UNL     1       1.319 -13.576  -1.153  0.00  0.00    -0.495 OA
ATOM     36  C   UNL     1       1.280 -14.754  -1.962  0.00  0.00    +0.277 C 
ENDBRANCH  10  35
TORSDOF 4
