REMARK  Name = ZINC19955546
REMARK  8 active torsions:
REMARK  status: ('A' for Active; 'I' for Inactive)
REMARK    1  A    between atoms: C_1  and  C_2
REMARK    2  A    between atoms: C_5  and  C_7
REMARK    3  A    between atoms: C_10  and  C_26
REMARK    4  A    between atoms: C_11  and  N_13
REMARK    5  A    between atoms: C_16  and  N_19
REMARK    6  A    between atoms: C_22  and  O_25
REMARK    7  A    between atoms: N_28  and  C_29
REMARK    8  A    between atoms: C_29  and  C_30
REMARK                            x       y       z     vdW  Elec       q    Type
REMARK                         _______ _______ _______ _____ _____    ______ ____
ROOT
ATOM      1  C   UNL     1      -0.020   1.471  -0.042  0.00  0.00    +0.080 A 
ATOM      2  C   UNL     1       1.189   2.174  -0.002  0.00  0.00    +0.030 A 
ATOM      3  C   UNL     1       1.173   3.541   0.058  0.00  0.00    +0.018 A 
ATOM      4  C   UNL     1      -0.067   4.198   0.078  0.00  0.00    +0.077 A 
ATOM      5  C   UNL     1      -1.246   3.432   0.036  0.00  0.00    +0.134 A 
ATOM      6  N   UNL     1      -1.185   2.113  -0.027  0.00  0.00    -0.231 NA
ENDROOT
BRANCH   1  11
ATOM      7  C   UNL     1       1.032  -4.057  -0.278  0.00  0.00    +0.051 C 
ATOM      8  C   UNL     1       0.497  -2.650  -0.220  0.00  0.00    -0.013 A 
ATOM      9  C   UNL     1      -0.795  -2.226  -0.211  0.00  0.00    +0.011 A 
ATOM     10  C   UNL     1      -1.058  -0.878  -0.147  0.00  0.00    +0.018 A 
ATOM     11  C   UNL     1      -0.003  -0.001  -0.106  0.00  0.00    +0.038 A 
ATOM     12  S   UNL     1       1.397  -1.109  -0.145  0.00  0.00    -0.092 S 
ENDBRANCH   1  11
BRANCH   5  13
ATOM     13  N   UNL     1      -2.476   4.063   0.054  0.00  0.00    -0.315 N 
ATOM     14  C   UNL     1      -2.971   4.293  -1.309  0.00  0.00    +0.105 C 
ATOM     15  C   UNL     1      -4.258   5.119  -1.254  0.00  0.00    +0.004 C 
ATOM     16  C   UNL     1      -5.307   4.366  -0.431  0.00  0.00    -0.066 C 
ATOM     17  C   UNL     1      -4.749   4.097   0.969  0.00  0.00    +0.004 C 
ATOM     18  C   UNL     1      -3.447   3.301   0.850  0.00  0.00    +0.105 C 
BRANCH  16  19
ATOM     19  N   UNL     1      -6.526   5.179  -0.326  0.00  0.00    +0.382 N 
ATOM     20  C   UNL     1      -6.267   6.422   0.412  0.00  0.00    -0.076 C 
ATOM     21  C   UNL     1      -7.584   7.172   0.628  0.00  0.00    +0.013 C 
ATOM     22  C   UNL     1      -8.216   7.485  -0.731  0.00  0.00    +0.111 C 
ATOM     23  C   UNL     1      -8.431   6.178  -1.499  0.00  0.00    +0.013 C 
ATOM     24  C   UNL     1      -7.089   5.457  -1.653  0.00  0.00    -0.076 C 
ATOM     25  H   UNL     1      -7.271   4.602   0.240  0.00  0.00    -0.081 HD
BRANCH  22  26
ATOM     26  O   UNL     1      -9.474   8.135  -0.534  0.00  0.00    -0.392 OA
ATOM     27  H   UNL     1     -10.078   8.438  -1.402  0.00  0.00    +0.210 HD
ENDBRANCH  22  26
ENDBRANCH  16  19
ENDBRANCH   5  13
BRANCH   4  28
ATOM     28  C   UNL     1      -0.132   5.666   0.141  0.00  0.00    +0.247 C 
ATOM     29  O   UNL     1      -1.206   6.231   0.063  0.00  0.00    -0.270 OA
ATOM     30  N   UNL     1       0.999   6.385   0.286  0.00  0.00    -0.311 N 
ATOM     31  H   UNL     1       1.970   5.874   0.357  0.00  0.00    +0.149 HD
BRANCH  30  32
ATOM     32  C   UNL     1       0.934   7.848   0.350  0.00  0.00    +0.108 C 
BRANCH  32  33
ATOM     33  C   UNL     1       2.346   8.414   0.515  0.00  0.00    +0.014 C 
ATOM     34  C   UNL     1       2.935   8.015   1.893  0.00  0.00    +0.013 C 
ATOM     35  C   UNL     1       3.179   9.391   2.603  0.00  0.00    +0.018 C 
ATOM     36  C   UNL     1       4.302  10.023   1.760  0.00  0.00    -0.027 C 
ATOM     37  C   UNL     1       3.799  10.363   0.586  0.00  0.00    -0.026 C 
ATOM     38  C   UNL     1       2.308   9.980   0.569  0.00  0.00    +0.023 C 
ATOM     39  C   UNL     1       1.972  10.195   2.064  0.00  0.00    -0.016 C 
ATOM     40  C   UNL     1       1.443  11.463   2.658  0.00  0.00    +0.008 C 
ATOM     41  C   UNL     1       0.594  10.182   2.650  0.00  0.00    +0.008 C 
ENDBRANCH  32  33
ENDBRANCH  30  32
ENDBRANCH   4  28
TORSDOF 7
