REMARK  Name = ZINC39675345
REMARK  10 active torsions:
REMARK  status: ('A' for Active; 'I' for Inactive)
REMARK    1  A    between atoms: C_1  and  C_2
REMARK    2  A    between atoms: C_5  and  C_10
REMARK    3  A    between atoms: C_14  and  C_23
REMARK    4  A    between atoms: N_25  and  C_26
REMARK    5  A    between atoms: C_26  and  C_28
REMARK    6  A    between atoms: C_26  and  C_29
REMARK    7  A    between atoms: C_29  and  C_30
REMARK    8  A    between atoms: C_30  and  C_31
REMARK    9  A    between atoms: C_34  and  O_37
REMARK   10  A    between atoms: O_37  and  C_38
REMARK                            x       y       z     vdW  Elec       q    Type
REMARK                         _______ _______ _______ _____ _____    ______ ____
ROOT
ATOM      1  C   UNL     1       0.145  -4.488   0.053  0.00  0.00    +0.250 C 
ATOM      2  O   UNL     1       0.270  -5.175   1.048  0.00  0.00    -0.270 OA
ATOM      3  N   UNL     1       0.014  -5.070  -1.156  0.00  0.00    -0.296 N 
ATOM      4  C   UNL     1      -0.041  -4.409  -2.481  0.00  0.00    +0.121 C 
ATOM      5  C   UNL     1       0.779  -5.332  -3.412  0.00  0.00    +0.100 C 
ATOM      6  C   UNL     1       0.730  -6.713  -2.737  0.00  0.00    -0.004 C 
ATOM      7  C   UNL     1      -0.101  -6.517  -1.460  0.00  0.00    +0.115 C 
ATOM      8  C   UNL     1       2.138  -7.176  -2.377  0.00  0.00    -0.010 C 
ATOM      9  C   UNL     1       2.068  -8.575  -1.760  0.00  0.00    -0.082 C 
ATOM     10  N   UNL     1       1.456  -9.504  -2.717  0.00  0.00    +0.379 N 
ATOM     11  C   UNL     1       0.070  -9.104  -2.987  0.00  0.00    -0.082 C 
ATOM     12  C   UNL     1       0.055  -7.727  -3.656  0.00  0.00    -0.010 C 
ATOM     13  H   UNL     1       1.982  -9.492  -3.578  0.00  0.00    -0.086 HD
ATOM     14  H   UNL     1       1.467 -10.437  -2.333  0.00  0.00    -0.086 HD
ENDROOT
BRANCH   1  19
ATOM     15  C   UNL     1       0.104   1.251   0.498  0.00  0.00    +0.047 C 
ATOM     16  C   UNL     1       0.116  -0.252   0.383  0.00  0.00    -0.012 A 
ATOM     17  C   UNL     1      -0.657  -0.875  -0.581  0.00  0.00    +0.007 A 
ATOM     18  C   UNL     1      -0.652  -2.249  -0.693  0.00  0.00    +0.016 A 
ATOM     19  C   UNL     1       0.136  -3.016   0.168  0.00  0.00    +0.075 A 
ATOM     20  C   UNL     1       0.916  -2.383   1.140  0.00  0.00    +0.171 A 
ATOM     21  C   UNL     1       0.905  -1.001   1.238  0.00  0.00    +0.162 A 
ATOM     22  F   UNL     1       1.662  -0.385   2.172  0.00  0.00    -0.202 F 
ATOM     23  F   UNL     1       1.681  -3.116   1.978  0.00  0.00    -0.202 F 
ENDBRANCH   1  19
BRANCH   5  24
ATOM     24  C   UNL     1       2.201  -4.845  -3.513  0.00  0.00    +0.218 C 
ATOM     25  O   UNL     1       2.714  -4.272  -2.576  0.00  0.00    -0.275 OA
ATOM     26  N   UNL     1       2.903  -5.047  -4.646  0.00  0.00    -0.312 N 
ATOM     27  H   UNL     1       2.493  -5.506  -5.395  0.00  0.00    +0.149 HD
BRANCH  26  28
ATOM     28  C   UNL     1       4.286  -4.574  -4.744  0.00  0.00    +0.070 C 
ATOM     29  C   UNL     1       4.294  -3.106  -5.175  0.00  0.00    +0.028 C 
BRANCH  28  30
ATOM     30  C   UNL     1       5.040  -5.413  -5.778  0.00  0.00    +0.026 C 
BRANCH  30  31
ATOM     31  C   UNL     1       5.141  -6.858  -5.287  0.00  0.00    +0.037 C 
BRANCH  31  32
ATOM     32  C   UNL     1       5.883  -7.685  -6.305  0.00  0.00    -0.047 A 
ATOM     33  C   UNL     1       5.188  -8.316  -7.320  0.00  0.00    +0.007 A 
ATOM     34  C   UNL     1       5.866  -9.075  -8.254  0.00  0.00    +0.046 A 
ATOM     35  C   UNL     1       7.245  -9.202  -8.174  0.00  0.00    +0.120 A 
ATOM     36  C   UNL     1       7.940  -8.567  -7.155  0.00  0.00    +0.046 A 
ATOM     37  C   UNL     1       7.258  -7.806  -6.226  0.00  0.00    +0.007 A 
BRANCH  35  38
ATOM     38  O   UNL     1       7.915  -9.948  -9.092  0.00  0.00    -0.495 OA
ATOM     39  C   UNL     1       9.334 -10.035  -8.947  0.00  0.00    +0.277 C 
ENDBRANCH  35  38
ENDBRANCH  31  32
ENDBRANCH  30  31
ENDBRANCH  28  30
ENDBRANCH  26  28
ENDBRANCH   5  24
TORSDOF 7
