REMARK  Name = ZINC14816773
REMARK  9 active torsions:
REMARK  status: ('A' for Active; 'I' for Inactive)
REMARK    1  A    between atoms: C_1  and  C_2
REMARK    2  A    between atoms: C_6  and  N_8
REMARK    3  A    between atoms: C_9  and  C_11
REMARK    4  A    between atoms: C_16  and  N_17
REMARK    5  A    between atoms: C_18  and  C_20
REMARK    6  A    between atoms: C_24  and  S_26
REMARK    7  A    between atoms: S_26  and  N_29
REMARK    8  A    between atoms: N_29  and  C_30
REMARK    9  A    between atoms: N_29  and  C_31
REMARK                            x       y       z     vdW  Elec       q    Type
REMARK                         _______ _______ _______ _____ _____    ______ ____
ROOT
ATOM      1  C   UNL     1       1.059   7.409   0.242  0.00  0.00    +0.058 A 
ATOM      2  C   UNL     1      -0.156   8.087   0.371  0.00  0.00    +0.015 A 
ATOM      3  C   UNL     1      -0.167   9.459   0.496  0.00  0.00    +0.001 A 
ATOM      4  C   UNL     1       1.021  10.172   0.496  0.00  0.00    +0.002 A 
ATOM      5  C   UNL     1       2.229   9.517   0.370  0.00  0.00    +0.024 A 
ATOM      6  C   UNL     1       2.261   8.134   0.248  0.00  0.00    +0.046 A 
ENDROOT
BRANCH   1   8
ATOM      7  N   UNL     1      -0.079   5.258   0.008  0.00  0.00    -0.281 N 
ATOM      8  C   UNL     1       1.079   5.941   0.108  0.00  0.00    +0.250 C 
ATOM      9  O   UNL     1       2.139   5.346   0.088  0.00  0.00    -0.270 OA
ATOM     10  H   UNL     1      -0.921   5.736  -0.042  0.00  0.00    +0.155 HD
BRANCH   7  16
ATOM     11  C   UNL     1      -2.191   0.979   1.190  0.00  0.00    +0.044 C 
ATOM     12  C   UNL     1      -1.077   1.760   0.543  0.00  0.00    -0.049 A 
ATOM     13  C   UNL     1      -0.040   1.094  -0.084  0.00  0.00    +0.003 A 
ATOM     14  C   UNL     1       0.982   1.806  -0.684  0.00  0.00    +0.002 A 
ATOM     15  C   UNL     1       0.972   3.188  -0.655  0.00  0.00    +0.023 A 
ATOM     16  C   UNL     1      -0.066   3.860  -0.022  0.00  0.00    +0.034 A 
ATOM     17  C   UNL     1      -1.090   3.140   0.580  0.00  0.00    +0.026 A 
ENDBRANCH   7  16
ENDBRANCH   1   8
BRANCH   6  18
ATOM     18  N   UNL     1       3.478   7.470   0.126  0.00  0.00    -0.281 N 
ATOM     19  C   UNL     1       4.491   8.040  -0.556  0.00  0.00    +0.248 C 
ATOM     20  O   UNL     1       4.371   9.167  -0.993  0.00  0.00    -0.270 OA
ATOM     21  H   UNL     1       3.597   6.597   0.532  0.00  0.00    +0.155 HD
BRANCH  19  22
ATOM     22  C   UNL     1       5.749   7.294  -0.771  0.00  0.00    +0.039 A 
ATOM     23  C   UNL     1       5.891   5.999  -0.270  0.00  0.00    +0.013 A 
ATOM     24  C   UNL     1       7.067   5.308  -0.474  0.00  0.00    +0.003 A 
ATOM     25  C   UNL     1       8.105   5.896  -1.175  0.00  0.00    +0.028 A 
ATOM     26  C   UNL     1       7.972   7.180  -1.674  0.00  0.00    +0.106 A 
ATOM     27  C   UNL     1       6.798   7.879  -1.481  0.00  0.00    +0.041 A 
BRANCH  26  28
ATOM     28  S   UNL     1       9.300   7.919  -2.565  0.00  0.00    +0.060 S 
ATOM     29  O   UNL     1       9.128   9.326  -2.457  0.00  0.00    -0.153 OA
ATOM     30  O   UNL     1      10.487   7.262  -2.144  0.00  0.00    -0.153 OA
BRANCH  28  31
ATOM     31  N   UNL     1       9.090   7.538  -4.163  0.00  0.00    -0.183 NA
ATOM     32  C   UNL     1       8.304   8.421  -5.029  0.00  0.00    +0.131 C 
ATOM     33  C   UNL     1       9.689   6.319  -4.710  0.00  0.00    +0.131 C 
ENDBRANCH  28  31
ENDBRANCH  26  28
ENDBRANCH  19  22
ENDBRANCH   6  18
TORSDOF 6
