REMARK  Name = ZINC14269388
REMARK  6 active torsions:
REMARK  status: ('A' for Active; 'I' for Inactive)
REMARK    1  A    between atoms: C_1  and  C_2
REMARK    2  A    between atoms: C_9  and  C_11
REMARK    3  A    between atoms: C_14  and  N_17
REMARK    4  A    between atoms: N_17  and  C_18
REMARK    5  A    between atoms: C_18  and  N_20
REMARK    6  A    between atoms: C_21  and  C_23
REMARK                            x       y       z     vdW  Elec       q    Type
REMARK                         _______ _______ _______ _____ _____    ______ ____
ROOT
ATOM      1  N   UNL     1       4.894  -4.051  -0.082  0.00  0.00    -0.297 N 
ATOM      2  H   UNL     1       4.170  -4.368  -0.644  0.00  0.00    +0.154 HD
ENDROOT
BRANCH   1   6
ATOM      3  C   UNL     1       8.646  -5.852  -0.303  0.00  0.00    +0.037 A 
ATOM      4  C   UNL     1       7.490  -6.637  -0.320  0.00  0.00    +0.015 A 
ATOM      5  C   UNL     1       6.252  -6.038  -0.247  0.00  0.00    +0.024 A 
ATOM      6  C   UNL     1       6.151  -4.654  -0.156  0.00  0.00    +0.033 A 
ATOM      7  C   UNL     1       7.299  -3.870  -0.144  0.00  0.00    +0.024 A 
ATOM      8  C   UNL     1       8.541  -4.462  -0.211  0.00  0.00    +0.015 A 
BRANCH   3  17
ATOM      9  C   UNL     1      15.791  -7.670  -0.621  0.00  0.00    +0.044 C 
ATOM     10  C   UNL     1      14.289  -7.784  -0.586  0.00  0.00    -0.048 A 
ATOM     11  C   UNL     1      13.692  -9.035  -0.649  0.00  0.00    +0.007 A 
ATOM     12  C   UNL     1      12.318  -9.157  -0.617  0.00  0.00    +0.049 A 
ATOM     13  C   UNL     1      11.525  -8.023  -0.522  0.00  0.00    +0.156 A 
ATOM     14  C   UNL     1      12.126  -6.755  -0.459  0.00  0.00    +0.110 A 
ATOM     15  C   UNL     1      13.518  -6.647  -0.491  0.00  0.00    +0.035 A 
ATOM     16  N   UNL     1      11.117  -5.850  -0.377  0.00  0.00    -0.209 NA
ATOM     17  C   UNL     1       9.975  -6.491  -0.381  0.00  0.00    +0.228 A 
ATOM     18  O   UNL     1      10.190  -7.817  -0.471  0.00  0.00    -0.435 OA
ENDBRANCH   3  17
ENDBRANCH   1   6
BRANCH   1  19
ATOM     19  C   UNL     1       4.688  -3.028   0.770  0.00  0.00    +0.141 C 
ATOM     20  S   UNL     1       5.920  -2.560   1.862  0.00  0.00    -0.018 S 
BRANCH  19  21
ATOM     21  N   UNL     1       3.510  -2.372   0.763  0.00  0.00    -0.264 N 
ATOM     22  C   UNL     1       3.303  -1.349   1.615  0.00  0.00    +0.250 C 
ATOM     23  O   UNL     1       4.178  -1.017   2.390  0.00  0.00    -0.270 OA
ATOM     24  H   UNL     1       2.811  -2.637   0.144  0.00  0.00    +0.157 HD
BRANCH  22  25
ATOM     25  C   UNL     1       2.014  -0.632   1.607  0.00  0.00    +0.041 A 
ATOM     26  C   UNL     1       1.006  -1.012   0.717  0.00  0.00    +0.017 A 
ATOM     27  C   UNL     1      -0.196  -0.340   0.711  0.00  0.00    +0.050 A 
ATOM     28  C   UNL     1      -0.412   0.717   1.588  0.00  0.00    +0.162 A 
ATOM     29  C   UNL     1       0.587   1.099   2.480  0.00  0.00    +0.163 A 
ATOM     30  C   UNL     1       1.796   0.429   2.490  0.00  0.00    +0.062 A 
ATOM     31  O   UNL     1       0.387   2.126   3.351  0.00  0.00    -0.485 OA
ATOM     32  C   UNL     1      -0.696   3.015   3.060  0.00  0.00    +0.270 C 
ATOM     33  C   UNL     1      -1.927   2.171   2.702  0.00  0.00    +0.270 C 
ATOM     34  O   UNL     1      -1.604   1.371   1.559  0.00  0.00    -0.485 OA
ENDBRANCH  22  25
ENDBRANCH  19  21
ENDBRANCH   1  19
TORSDOF 5
