REMARK  Name = ZINC59461748
REMARK  7 active torsions:
REMARK  status: ('A' for Active; 'I' for Inactive)
REMARK    1  A    between atoms: C_1  and  C_2
REMARK    2  A    between atoms: C_5  and  C_8
REMARK    3  A    between atoms: N_13  and  N_14
REMARK    4  A    between atoms: C_16  and  C_34
REMARK    5  A    between atoms: C_23  and  C_26
REMARK    6  A    between atoms: C_29  and  O_32
REMARK    7  A    between atoms: O_32  and  C_33
REMARK                            x       y       z     vdW  Elec       q    Type
REMARK                         _______ _______ _______ _____ _____    ______ ____
ROOT
ATOM      1  N   UNL     1       0.115  -8.468   1.835  0.00  0.00    -0.140 NA
ATOM      2  C   UNL     1       0.126  -9.345   2.843  0.00  0.00    +0.172 C 
ATOM      3  C   UNL     1       0.150 -10.761   2.739  0.00  0.00    +0.089 C 
ATOM      4  N   UNL     1       0.155 -11.258   3.941  0.00  0.00    -0.173 NA
ATOM      5  N   UNL     1       0.135 -10.224   4.882  0.00  0.00    -0.130 N 
ATOM      6  C   UNL     1       0.123  -9.044   4.229  0.00  0.00    +0.294 C 
ATOM      7  O   UNL     1       0.108  -7.932   4.733  0.00  0.00    -0.266 OA
ATOM      8  C   UNL     1       0.133 -10.386   6.264  0.00  0.00    +0.189 A 
ATOM      9  N   UNL     1       0.156 -11.497   6.975  0.00  0.00    -0.223 NA
ATOM     10  C   UNL     1       0.150 -11.467   8.299  0.00  0.00    +0.080 A 
ATOM     11  C   UNL     1       0.121 -10.261   8.942  0.00  0.00    +0.077 A 
ATOM     12  S   UNL     1       0.108  -9.142   7.548  0.00  0.00    -0.058 S 
ATOM     13  C   UNL     1       0.167 -11.551   1.456  0.00  0.00    +0.070 C 
ENDROOT
BRANCH   1  19
ATOM     14  C   UNL     1       0.060  -4.252  -0.021  0.00  0.00    +0.055 A 
ATOM     15  C   UNL     1       0.069  -4.957  -1.180  0.00  0.00    +0.075 A 
ATOM     16  S   UNL     1       0.091  -6.637  -0.583  0.00  0.00    -0.056 S 
ATOM     17  C   UNL     1       0.087  -6.323   1.068  0.00  0.00    +0.192 A 
ATOM     18  N   UNL     1       0.075  -4.972   1.133  0.00  0.00    -0.332 N 
ATOM     19  N   UNL     1       0.099  -7.202   2.080  0.00  0.00    -0.123 NA
ATOM     20  H   UNL     1       0.074  -4.522   1.993  0.00  0.00    +0.168 HD
BRANCH  14  25
ATOM     21  C   UNL     1      -0.018   1.503   0.010  0.00  0.00    +0.044 C 
ATOM     22  C   UNL     1       0.002  -0.004   0.002  0.00  0.00    -0.050 A 
ATOM     23  C   UNL     1       0.006  -0.686  -1.202  0.00  0.00    +0.004 A 
ATOM     24  C   UNL     1       0.024  -2.066  -1.216  0.00  0.00    +0.010 A 
ATOM     25  C   UNL     1       0.040  -2.773  -0.013  0.00  0.00    -0.001 A 
ATOM     26  C   UNL     1       0.037  -2.079   1.197  0.00  0.00    +0.010 A 
ATOM     27  C   UNL     1       0.023  -0.699   1.198  0.00  0.00    +0.004 A 
ENDBRANCH  14  25
ENDBRANCH   1  19
BRANCH  10  28
ATOM     28  C   UNL     1       0.175 -12.730   9.076  0.00  0.00    +0.001 A 
ATOM     29  C   UNL     1       0.163 -12.693  10.469  0.00  0.00    +0.013 A 
ATOM     30  C   UNL     1       0.186 -13.870  11.189  0.00  0.00    +0.046 A 
ATOM     31  C   UNL     1       0.222 -15.089  10.528  0.00  0.00    +0.120 A 
ATOM     32  C   UNL     1       0.235 -15.130   9.141  0.00  0.00    +0.046 A 
ATOM     33  C   UNL     1       0.205 -13.957   8.415  0.00  0.00    +0.013 A 
BRANCH  31  34
ATOM     34  O   UNL     1       0.245 -16.247  11.240  0.00  0.00    -0.495 OA
ATOM     35  C   UNL     1       0.281 -17.466  10.496  0.00  0.00    +0.277 C 
ENDBRANCH  31  34
ENDBRANCH  10  28
TORSDOF 4
