REMARK  Name = ZINC42016669
REMARK  6 active torsions:
REMARK  status: ('A' for Active; 'I' for Inactive)
REMARK    1  A    between atoms: C_1  and  C_2
REMARK    2  A    between atoms: C_7  and  N_12
REMARK    3  A    between atoms: C_9  and  C_11
REMARK    4  A    between atoms: C_13  and  C_17
REMARK    5  A    between atoms: C_20  and  N_24
REMARK    6  A    between atoms: C_22  and  N_23
REMARK                            x       y       z     vdW  Elec       q    Type
REMARK                         _______ _______ _______ _____ _____    ______ ____
ROOT
ATOM      1  N   UNL     1       1.516  -2.620   2.418  0.00  0.00    -0.222 N 
ATOM      2  C   UNL     1       0.973  -3.293   3.471  0.00  0.00    +0.184 A 
ATOM      3  N   UNL     1       1.941  -3.484   4.344  0.00  0.00    -0.108 NA
ATOM      4  N   UNL     1       3.041  -2.981   3.914  0.00  0.00    -0.023 NA
ATOM      5  N   UNL     1       2.870  -2.445   2.754  0.00  0.00    -0.043 NA
ENDROOT
BRANCH   1  11
ATOM      6  C   UNL     1       0.574   1.285  -0.464  0.00  0.00    +0.008 C 
ATOM      7  C   UNL     1       0.351  -0.216  -0.271  0.00  0.00    -0.009 C 
ATOM      8  C   UNL     1       0.918  -0.975  -1.472  0.00  0.00    +0.004 C 
ATOM      9  C   UNL     1       0.694  -2.476  -1.279  0.00  0.00    +0.002 C 
ATOM     10  C   UNL     1       1.403  -2.937  -0.004  0.00  0.00    +0.027 C 
ATOM     11  C   UNL     1       0.837  -2.178   1.198  0.00  0.00    +0.114 C 
ATOM     12  C   UNL     1       1.060  -0.677   1.004  0.00  0.00    +0.013 C 
ATOM     13  C   UNL     1       0.493   0.082   2.206  0.00  0.00    +0.010 C 
ENDBRANCH   1  11
BRANCH   2  14
ATOM     14  C   UNL     1      -0.433  -3.727   3.607  0.00  0.00    +0.041 A 
ATOM     15  C   UNL     1      -1.064  -4.395   2.556  0.00  0.00    +0.015 A 
ATOM     16  C   UNL     1      -2.375  -4.798   2.685  0.00  0.00    +0.023 A 
ATOM     17  C   UNL     1      -3.074  -4.543   3.862  0.00  0.00    +0.026 A 
ATOM     18  C   UNL     1      -2.455  -3.879   4.912  0.00  0.00    +0.046 A 
ATOM     19  C   UNL     1      -1.135  -3.474   4.794  0.00  0.00    +0.037 A 
BRANCH  19  20
ATOM     20  N   UNL     1      -0.510  -2.813   5.849  0.00  0.00    -0.357 N 
ATOM     21  H   UNL     1       0.381  -2.449   5.733  0.00  0.00    +0.142 HD
ATOM     22  H   UNL     1      -0.966  -2.717   6.700  0.00  0.00    +0.142 HD
ENDBRANCH  19  20
BRANCH  17  23
ATOM     23  N   UNL     1      -4.401  -4.954   3.985  0.00  0.00    -0.358 N 
ATOM     24  H   UNL     1      -4.835  -5.418   3.251  0.00  0.00    +0.142 HD
ATOM     25  H   UNL     1      -4.889  -4.777   4.804  0.00  0.00    +0.142 HD
ENDBRANCH  17  23
ENDBRANCH   2  14
TORSDOF 4
