REMARK  Name = ZINC56807135
REMARK  8 active torsions:
REMARK  status: ('A' for Active; 'I' for Inactive)
REMARK    1  A    between atoms: C_1  and  C_2
REMARK    2  A    between atoms: C_2  and  C_3
REMARK    3  A    between atoms: N_5  and  C_6
REMARK    4  A    between atoms: C_9  and  C_12
REMARK    5  A    between atoms: C_12  and  C_14
REMARK    6  A    between atoms: C_12  and  N_15
REMARK    7  A    between atoms: N_18  and  C_19
REMARK    8  A    between atoms: N_28  and  C_30
REMARK                            x       y       z     vdW  Elec       q    Type
REMARK                         _______ _______ _______ _____ _____    ______ ____
ROOT
ATOM      1  N   UNL     1       4.236  -4.615   5.988  0.00  0.00    -0.293 N 
ATOM      2  C   UNL     1       5.276  -4.856   6.811  0.00  0.00    +0.300 C 
ATOM      3  O   UNL     1       5.462  -4.146   7.780  0.00  0.00    -0.253 OA
ATOM      4  N   UNL     1       6.110  -5.885   6.559  0.00  0.00    -0.296 N 
ATOM      5  H   UNL     1       4.088  -5.182   5.215  0.00  0.00    +0.151 HD
ATOM      6  H   UNL     1       5.961  -6.452   5.786  0.00  0.00    +0.151 HD
ENDROOT
BRANCH   4   7
ATOM      7  C   UNL     1       7.238  -6.146   7.451  0.00  0.00    +0.077 C 
ATOM      8  C   UNL     1       6.800  -7.037   8.616  0.00  0.00    -0.007 C 
ATOM      9  C   UNL     1       7.961  -7.201   9.591  0.00  0.00    +0.003 C 
ATOM     10  C   UNL     1       9.214  -7.747   8.925  0.00  0.00    +0.001 C 
ATOM     11  C   UNL     1       9.556  -7.048   7.619  0.00  0.00    +0.003 C 
ATOM     12  C   UNL     1       8.348  -6.888   6.702  0.00  0.00    -0.007 C 
ATOM     13  C   UNL     1       7.840  -8.232   6.203  0.00  0.00    -0.073 C 
ATOM     14  N   UNL     1       7.284  -9.069   7.261  0.00  0.00    +0.382 N 
ATOM     15  C   UNL     1       6.309  -8.380   8.098  0.00  0.00    -0.073 C 
ATOM     16  H   UNL     1       8.023  -9.453   7.828  0.00  0.00    -0.081 HD
BRANCH  14  17
ATOM     17  C   UNL     1       6.613 -10.213   6.629  0.00  0.00    -0.069 C 
ATOM     18  C   UNL     1       6.981 -11.612   7.128  0.00  0.00    -0.017 C 
ATOM     19  C   UNL     1       7.465 -11.137   5.756  0.00  0.00    -0.017 C 
ENDBRANCH  14  17
ENDBRANCH   4   7
BRANCH   1  20
ATOM     20  C   UNL     1       3.330  -3.497   6.262  0.00  0.00    +0.102 C 
ATOM     21  C   UNL     1       2.253  -3.944   7.253  0.00  0.00    +0.033 C 
BRANCH  20  25
ATOM     22  C   UNL     1       1.480  -2.240   2.620  0.00  0.00    +0.033 A 
ATOM     23  C   UNL     1       1.895  -1.297   3.551  0.00  0.00    +0.023 A 
ATOM     24  C   UNL     1       2.493  -1.706   4.727  0.00  0.00    +0.007 A 
ATOM     25  C   UNL     1       2.677  -3.054   4.978  0.00  0.00    -0.027 A 
ATOM     26  C   UNL     1       2.265  -3.995   4.052  0.00  0.00    +0.007 A 
ATOM     27  C   UNL     1       1.661  -3.592   2.877  0.00  0.00    +0.023 A 
BRANCH  22  30
ATOM     28  C   UNL     1      -0.114  -2.566   0.884  0.00  0.00    +0.217 C 
ATOM     29  O   UNL     1      -0.421  -3.628   1.381  0.00  0.00    -0.275 OA
ATOM     30  N   UNL     1       0.874  -1.828   1.428  0.00  0.00    -0.286 N 
ATOM     31  H   UNL     1       1.165  -1.011   0.993  0.00  0.00    +0.155 HD
BRANCH  28  33
ATOM     32  C   UNL     1      -1.903  -3.088  -0.752  0.00  0.00    +0.013 C 
ATOM     33  C   UNL     1      -0.837  -2.070  -0.342  0.00  0.00    +0.093 C 
ENDBRANCH  28  33
ENDBRANCH  22  30
ENDBRANCH  20  25
ENDBRANCH   1  20
TORSDOF 6
