REMARK  Name = ZINC57898302
REMARK  7 active torsions:
REMARK  status: ('A' for Active; 'I' for Inactive)
REMARK    1  A    between atoms: C_1  and  C_2
REMARK    2  A    between atoms: C_2  and  C_4
REMARK    3  A    between atoms: C_2  and  N_14
REMARK    4  A    between atoms: C_8  and  S_10
REMARK    5  A    between atoms: S_10  and  N_13
REMARK    6  A    between atoms: C_15  and  C_17
REMARK    7  A    between atoms: C_20  and  C_23
REMARK                            x       y       z     vdW  Elec       q    Type
REMARK                         _______ _______ _______ _____ _____    ______ ____
ROOT
ATOM      1  N   UNL     1       0.688  -0.476  -1.203  0.00  0.00    -0.305 N 
ATOM      2  C   UNL     1       2.031  -0.587  -1.215  0.00  0.00    +0.245 C 
ATOM      3  O   UNL     1       2.673  -0.295  -0.225  0.00  0.00    -0.270 OA
ATOM      4  H   UNL     1       0.175  -0.710  -1.993  0.00  0.00    +0.150 HD
ENDROOT
BRANCH   2   5
ATOM      5  C   UNL     1       2.723  -1.064  -2.431  0.00  0.00    +0.037 A 
ATOM      6  C   UNL     1       1.989  -1.395  -3.571  0.00  0.00    +0.013 A 
ATOM      7  C   UNL     1       2.641  -1.839  -4.703  0.00  0.00    +0.004 A 
ATOM      8  C   UNL     1       4.019  -1.956  -4.710  0.00  0.00    -0.044 A 
ATOM      9  C   UNL     1       4.753  -1.630  -3.583  0.00  0.00    +0.004 A 
ATOM     10  C   UNL     1       4.114  -1.179  -2.447  0.00  0.00    +0.013 A 
BRANCH   8  11
ATOM     11  C   UNL     1       4.724  -2.442  -5.950  0.00  0.00    +0.019 C 
ATOM     12  C   UNL     1       5.500  -3.721  -5.627  0.00  0.00    +0.008 C 
ATOM     13  C   UNL     1       6.216  -4.215  -6.886  0.00  0.00    +0.001 C 
ATOM     14  C   UNL     1       7.188  -3.139  -7.375  0.00  0.00    +0.000 C 
ATOM     15  C   UNL     1       6.413  -1.860  -7.697  0.00  0.00    +0.001 C 
ATOM     16  C   UNL     1       5.697  -1.367  -6.438  0.00  0.00    +0.008 C 
ENDBRANCH   8  11
ENDBRANCH   2   5
BRANCH   1  18
ATOM     17  C   UNL     1      -0.019   1.526   0.010  0.00  0.00    +0.033 C 
ATOM     18  C   UNL     1       0.002  -0.004   0.002  0.00  0.00    +0.100 C 
BRANCH  18  19
ATOM     19  C   UNL     1      -1.412  -0.526   0.013  0.00  0.00    -0.026 A 
ATOM     20  C   UNL     1      -2.142  -0.569  -1.161  0.00  0.00    +0.005 A 
ATOM     21  C   UNL     1      -3.438  -1.047  -1.151  0.00  0.00    +0.002 A 
ATOM     22  C   UNL     1      -4.005  -1.483   0.032  0.00  0.00    +0.028 A 
ATOM     23  C   UNL     1      -3.275  -1.441   1.205  0.00  0.00    +0.105 A 
ATOM     24  C   UNL     1      -1.977  -0.966   1.195  0.00  0.00    +0.034 A 
BRANCH  23  25
ATOM     25  S   UNL     1      -3.998  -1.996   2.713  0.00  0.00    +0.056 S 
ATOM     26  O   UNL     1      -3.297  -1.344   3.764  0.00  0.00    -0.153 OA
ATOM     27  O   UNL     1      -5.406  -1.885   2.554  0.00  0.00    -0.153 OA
BRANCH  25  28
ATOM     28  N   UNL     1      -3.663  -3.611   2.851  0.00  0.00    -0.204 NA
ATOM     29  H   UNL     1      -3.152  -4.061   2.161  0.00  0.00    +0.144 HD
ATOM     30  H   UNL     1      -3.978  -4.108   3.623  0.00  0.00    +0.144 HD
ENDBRANCH  25  28
ENDBRANCH  23  25
ENDBRANCH  18  19
ENDBRANCH   1  18
TORSDOF 6
