REMARK  Name = ZINC08690872
REMARK  9 active torsions:
REMARK  status: ('A' for Active; 'I' for Inactive)
REMARK    1  A    between atoms: C_1  and  C_2
REMARK    2  A    between atoms: C_3  and  C_18
REMARK    3  A    between atoms: C_4  and  N_13
REMARK    4  A    between atoms: N_5  and  C_7
REMARK    5  A    between atoms: N_19  and  N_20
REMARK    6  A    between atoms: N_20  and  C_21
REMARK    7  A    between atoms: C_21  and  N_22
REMARK    8  A    between atoms: N_22  and  C_23
REMARK    9  A    between atoms: C_25  and  C_30
REMARK                            x       y       z     vdW  Elec       q    Type
REMARK                         _______ _______ _______ _____ _____    ______ ____
ROOT
ATOM      1  C   UNL     1       0.066  -0.205  -2.422  0.00  0.00    +0.143 C 
ATOM      2  N   UNL     1      -0.108   1.023  -2.805  0.00  0.00    -0.188 NA
ENDROOT
BRANCH   1   5
ATOM      3  C   UNL     1       0.270   1.920  -0.082  0.00  0.00    +0.068 C 
ATOM      4  C   UNL     1       0.328   0.421   0.062  0.00  0.00    +0.071 A 
ATOM      5  C   UNL     1       0.236  -0.514  -0.992  0.00  0.00    +0.057 A 
ATOM      6  C   UNL     1       0.334  -1.779  -0.428  0.00  0.00    +0.134 A 
ATOM      7  N   UNL     1       0.480  -1.606   0.913  0.00  0.00    -0.218 N 
ATOM      8  N   UNL     1       0.478  -0.233   1.181  0.00  0.00    -0.169 NA
BRANCH   7   9
ATOM      9  C   UNL     1       0.614  -2.628   1.863  0.00  0.00    +0.067 A 
ATOM     10  C   UNL     1      -0.125  -3.797   1.737  0.00  0.00    +0.028 A 
ATOM     11  C   UNL     1       0.009  -4.802   2.674  0.00  0.00    +0.002 A 
ATOM     12  C   UNL     1       0.879  -4.646   3.737  0.00  0.00    +0.000 A 
ATOM     13  C   UNL     1       1.617  -3.483   3.866  0.00  0.00    +0.002 A 
ATOM     14  C   UNL     1       1.492  -2.477   2.928  0.00  0.00    +0.028 A 
ENDBRANCH   7   9
BRANCH   6  15
ATOM     15  N   UNL     1       0.292  -2.988  -1.103  0.00  0.00    -0.315 N 
ATOM     16  C   UNL     1       1.460  -3.772  -1.532  0.00  0.00    +0.106 C 
ATOM     17  C   UNL     1       0.928  -5.022  -2.264  0.00  0.00    +0.020 C 
ATOM     18  C   UNL     1      -0.496  -4.590  -2.702  0.00  0.00    +0.020 C 
ATOM     19  C   UNL     1      -0.932  -3.705  -1.505  0.00  0.00    +0.106 C 
ENDBRANCH   6  15
ENDBRANCH   1   5
BRANCH   2  20
ATOM     20  N   UNL     1      -0.270   1.317  -4.166  0.00  0.00    -0.218 N 
ATOM     21  H   UNL     1      -0.251   0.602  -4.822  0.00  0.00    +0.176 HD
BRANCH  20  22
ATOM     22  C   UNL     1      -0.451   2.592  -4.563  0.00  0.00    +0.154 C 
ATOM     23  S   UNL     1      -0.648   2.950  -6.226  0.00  0.00    -0.017 S 
BRANCH  22  24
ATOM     24  N   UNL     1      -0.477   3.584  -3.652  0.00  0.00    -0.294 N 
ATOM     25  H   UNL     1      -0.408   3.377  -2.707  0.00  0.00    +0.154 HD
BRANCH  24  26
ATOM     26  C   UNL     1      -0.605   4.914  -4.069  0.00  0.00    +0.052 A 
ATOM     27  C   UNL     1       0.053   5.351  -5.211  0.00  0.00    +0.037 A 
ATOM     28  C   UNL     1      -0.074   6.664  -5.620  0.00  0.00    +0.057 A 
ATOM     29  C   UNL     1      -0.857   7.543  -4.895  0.00  0.00    +0.014 A 
ATOM     30  C   UNL     1      -1.515   7.112  -3.758  0.00  0.00    +0.022 A 
ATOM     31  C   UNL     1      -1.396   5.798  -3.345  0.00  0.00    +0.062 A 
ATOM     32 CL   UNL     1      -2.227   5.255  -1.922  0.00  0.00    -0.082 Cl
BRANCH  28  33
ATOM     33  C   UNL     1       0.640   7.139  -6.859  0.00  0.00    +0.417 C 
ATOM     34  F   UNL     1      -0.185   6.956  -7.973  0.00  0.00    -0.166 F 
ATOM     35  F   UNL     1       0.951   8.497  -6.727  0.00  0.00    -0.166 F 
ATOM     36  F   UNL     1       1.820   6.405  -7.027  0.00  0.00    -0.166 F 
ENDBRANCH  28  33
ENDBRANCH  24  26
ENDBRANCH  22  24
ENDBRANCH  20  22
ENDBRANCH   2  20
TORSDOF 8
