REMARK  Name = ZINC36160222
REMARK  12 active torsions:
REMARK  status: ('A' for Active; 'I' for Inactive)
REMARK    1  A    between atoms: C_1  and  C_2
REMARK    2  A    between atoms: C_2  and  O_3
REMARK    3  A    between atoms: O_3  and  C_4
REMARK    4  A    between atoms: C_4  and  C_5
REMARK    5  A    between atoms: C_5  and  C_7
REMARK    6  A    between atoms: C_5  and  O_30
REMARK    7  A    between atoms: C_7  and  N_8
REMARK    8  A    between atoms: N_8  and  C_9
REMARK    9  A    between atoms: C_9  and  C_11
REMARK   10  A    between atoms: C_9  and  C_18
REMARK   11  A    between atoms: C_11  and  C_12
REMARK   12  A    between atoms: C_20  and  C_23
REMARK                            x       y       z     vdW  Elec       q    Type
REMARK                         _______ _______ _______ _____ _____    ______ ____
ROOT
ATOM      1  C   UNL     1       2.516  -5.649   3.859  0.00  0.00    +0.023 C 
ENDROOT
BRANCH   1   2
ATOM      2  C   UNL     1       2.968  -6.135   5.213  0.00  0.00    +0.214 A 
ATOM      3  N   UNL     1       2.408  -7.085   5.906  0.00  0.00    -0.193 NA
ATOM      4  C   UNL     1       3.068  -7.258   7.066  0.00  0.00    +0.202 A 
ATOM      5  N   UNL     1       4.063  -6.408   7.112  0.00  0.00    -0.056 NA
ATOM      6  O   UNL     1       4.016  -5.666   5.903  0.00  0.00    -0.339 OA
BRANCH   4   7
ATOM      7  C   UNL     1       2.725  -8.249   8.116  0.00  0.00    +0.023 A 
ATOM      8  C   UNL     1       1.639  -9.105   7.943  0.00  0.00    +0.013 A 
ATOM      9  C   UNL     1       1.325 -10.024   8.923  0.00  0.00    +0.016 A 
ATOM     10  C   UNL     1       2.086 -10.096  10.077  0.00  0.00    +0.018 A 
ATOM     11  C   UNL     1       3.165  -9.248  10.254  0.00  0.00    +0.016 A 
ATOM     12  C   UNL     1       3.491  -8.330   9.277  0.00  0.00    +0.013 A 
ATOM     13 BR   UNL     1       1.649 -11.358  11.416  0.00  0.00    -0.050 Br
ENDBRANCH   4   7
ENDBRANCH   1   2
BRANCH   1  14
ATOM     14  N   UNL     1       2.523  -4.181   3.839  0.00  0.00    +0.389 N 
ATOM     15  H   UNL     1       3.471  -3.847   3.924  0.00  0.00    -0.085 HD
ATOM     16  H   UNL     1       1.973  -3.831   4.609  0.00  0.00    -0.085 HD
BRANCH  14  17
ATOM     17  C   UNL     1       1.949  -3.706   2.572  0.00  0.00    -0.048 C 
BRANCH  17  18
ATOM     18  C   UNL     1       1.833  -2.181   2.604  0.00  0.00    +0.123 C 
BRANCH  18  19
ATOM     19  O   UNL     1       0.987  -1.790   3.687  0.00  0.00    -0.391 OA
ATOM     20  H   UNL     1       0.088  -2.143   3.631  0.00  0.00    +0.210 HD
ENDBRANCH  18  19
BRANCH  18  21
ATOM     21  C   UNL     1       1.236  -1.687   1.286  0.00  0.00    +0.189 C 
BRANCH  21  22
ATOM     22  O   UNL     1       1.235  -0.258   1.268  0.00  0.00    -0.378 OA
BRANCH  22  24
ATOM     23  C   UNL     1       0.744   1.835   0.165  0.00  0.00    +0.034 C 
ATOM     24  C   UNL     1       0.694   0.309   0.073  0.00  0.00    +0.156 C 
ENDBRANCH  22  24
ENDBRANCH  21  22
ENDBRANCH  18  21
ENDBRANCH  17  18
ENDBRANCH  14  17
ENDBRANCH   1  14
BRANCH   1  25
ATOM     25  C   UNL     1       3.468  -6.179   2.784  0.00  0.00    +0.029 C 
BRANCH  25  26
ATOM     26  C   UNL     1       3.362  -7.681   2.716  0.00  0.00    -0.048 A 
ATOM     27  C   UNL     1       4.252  -8.469   3.421  0.00  0.00    +0.003 A 
ATOM     28  C   UNL     1       4.155  -9.847   3.358  0.00  0.00    +0.000 A 
ATOM     29  C   UNL     1       3.168 -10.436   2.590  0.00  0.00    +0.000 A 
ATOM     30  C   UNL     1       2.279  -9.647   1.885  0.00  0.00    +0.000 A 
ATOM     31  C   UNL     1       2.373  -8.270   1.951  0.00  0.00    +0.003 A 
ENDBRANCH  25  26
ENDBRANCH   1  25
TORSDOF 11
