REMARK  Name = ZINC13073008
REMARK  10 active torsions:
REMARK  status: ('A' for Active; 'I' for Inactive)
REMARK    1  A    between atoms: C_1  and  C_2
REMARK    2  A    between atoms: C_3  and  C_32
REMARK    3  A    between atoms: C_4  and  C_31
REMARK    4  A    between atoms: C_5  and  S_10
REMARK    5  A    between atoms: C_6  and  C_9
REMARK    6  A    between atoms: C_7  and  C_8
REMARK    7  A    between atoms: S_10  and  N_13
REMARK    8  A    between atoms: N_16  and  S_19
REMARK    9  A    between atoms: S_19  and  C_22
REMARK   10  A    between atoms: C_26  and  C_28
REMARK                            x       y       z     vdW  Elec       q    Type
REMARK                         _______ _______ _______ _____ _____    ______ ____
ROOT
ATOM      1  N   UNL     1       0.364  -0.186   2.074  0.00  0.00    -0.174 NA
ATOM      2  C   UNL     1       1.635  -0.053   2.800  0.00  0.00    +0.126 C 
ATOM      3  C   UNL     1       1.450   0.987   3.917  0.00  0.00    +0.126 C 
ATOM      4  N   UNL     1       0.235   0.651   4.673  0.00  0.00    -0.174 NA
ATOM      5  C   UNL     1      -1.035   0.512   3.946  0.00  0.00    +0.126 C 
ATOM      6  C   UNL     1      -0.851  -0.523   2.829  0.00  0.00    +0.126 C 
ENDROOT
BRANCH   1   7
ATOM      7  S   UNL     1       0.303   0.032   0.433  0.00  0.00    +0.061 S 
ATOM      8  O   UNL     1      -0.835  -0.683  -0.029  0.00  0.00    -0.153 OA
ATOM      9  O   UNL     1       1.612  -0.220  -0.059  0.00  0.00    -0.153 OA
BRANCH   7  14
ATOM     10  C   UNL     1      -0.815   5.879  -0.547  0.00  0.00    +0.044 C 
ATOM     11  C   UNL     1      -0.535   4.419  -0.302  0.00  0.00    -0.044 A 
ATOM     12  C   UNL     1      -1.571   3.562   0.022  0.00  0.00    -0.043 A 
ATOM     13  C   UNL     1      -1.315   2.222   0.247  0.00  0.00    -0.021 A 
ATOM     14  C   UNL     1      -0.023   1.739   0.147  0.00  0.00    +0.112 A 
ATOM     15  C   UNL     1       1.013   2.597  -0.172  0.00  0.00    -0.021 A 
ATOM     16  C   UNL     1       0.756   3.936  -0.402  0.00  0.00    -0.043 A 
ATOM     17  C   UNL     1       1.885   4.870  -0.755  0.00  0.00    +0.044 C 
ATOM     18  C   UNL     1       2.421   2.071  -0.275  0.00  0.00    +0.046 C 
ATOM     19  C   UNL     1      -2.443   1.289   0.600  0.00  0.00    +0.046 C 
ATOM     20  C   UNL     1      -2.978   4.089   0.130  0.00  0.00    +0.044 C 
ENDBRANCH   7  14
ENDBRANCH   1   7
BRANCH   4  21
ATOM     21  S   UNL     1       0.296   0.431   6.313  0.00  0.00    +0.061 S 
ATOM     22  O   UNL     1       1.432   1.148   6.776  0.00  0.00    -0.153 OA
ATOM     23  O   UNL     1      -1.014   0.680   6.805  0.00  0.00    -0.153 OA
BRANCH  21  24
ATOM     24  C   UNL     1       0.626  -1.276   6.598  0.00  0.00    +0.106 A 
ATOM     25  C   UNL     1      -0.424  -2.169   6.730  0.00  0.00    +0.031 A 
ATOM     26  C   UNL     1      -0.177  -3.511   6.948  0.00  0.00    +0.041 A 
ATOM     27  C   UNL     1       1.125  -3.969   7.048  0.00  0.00    +0.138 A 
ATOM     28  C   UNL     1       2.189  -3.070   6.922  0.00  0.00    +0.100 A 
ATOM     29  C   UNL     1       1.928  -1.717   6.696  0.00  0.00    +0.046 A 
ATOM     30  F   UNL     1       1.367  -5.280   7.267  0.00  0.00    -0.205 F 
BRANCH  28  31
ATOM     31  C   UNL     1       3.581  -3.550   7.027  0.00  0.00    +0.389 C 
ATOM     32  O   UNL     1       3.804  -4.728   7.224  0.00  0.00    -0.240 OA
ATOM     33  O   UNL     1       4.604  -2.681   6.905  0.00  0.00    -0.240 OA
ENDBRANCH  28  31
ENDBRANCH  21  24
ENDBRANCH   4  21
TORSDOF 5
