REMARK  Name = ZINC18240539
REMARK  5 active torsions:
REMARK  status: ('A' for Active; 'I' for Inactive)
REMARK    1  A    between atoms: C_1  and  C_2
REMARK    2  A    between atoms: C_4  and  C_8
REMARK    3  A    between atoms: N_10  and  N_11
REMARK    4  A    between atoms: C_12  and  C_13
REMARK    5  A    between atoms: C_18  and  O_19
REMARK                            x       y       z     vdW  Elec       q    Type
REMARK                         _______ _______ _______ _____ _____    ______ ____
ROOT
ATOM      1  N   UNL     1       0.072  -5.732  -1.583  0.00  0.00    -0.187 NA
ATOM      2  C   UNL     1       0.090  -6.885  -0.988  0.00  0.00    +0.142 C 
ENDROOT
BRANCH   2   3
ATOM      3  C   UNL     1       0.103  -8.125  -1.785  0.00  0.00    +0.038 A 
ATOM      4  C   UNL     1       0.117  -9.369  -1.148  0.00  0.00    +0.028 A 
ATOM      5  C   UNL     1       0.129 -10.526  -1.899  0.00  0.00    +0.020 A 
ATOM      6  C   UNL     1       0.128 -10.460  -3.283  0.00  0.00    +0.034 A 
ATOM      7  C   UNL     1       0.114  -9.235  -3.924  0.00  0.00    +0.061 A 
ATOM      8  C   UNL     1       0.096  -8.063  -3.184  0.00  0.00    +0.139 A 
ATOM      9 BR   UNL     1       0.113  -9.159  -5.814  0.00  0.00    -0.046 Br
ATOM     10 BR   UNL     1       0.148 -12.208  -1.037  0.00  0.00    -0.050 Br
BRANCH   8  11
ATOM     11  O   UNL     1       0.076  -6.859  -3.814  0.00  0.00    -0.505 OA
ATOM     12  H   UNL     1       0.954  -6.499  -4.000  0.00  0.00    +0.292 HD
ENDBRANCH   8  11
ENDBRANCH   2   3
BRANCH   1  15
ATOM     13  C   UNL     1       0.041  -3.355  -1.444  0.00  0.00    +0.281 C 
ATOM     14  O   UNL     1       0.034  -3.298  -2.659  0.00  0.00    -0.267 OA
ATOM     15  N   UNL     1       0.060  -4.553  -0.826  0.00  0.00    -0.202 N 
ATOM     16  H   UNL     1       0.065  -4.599   0.143  0.00  0.00    +0.178 HD
BRANCH  13  20
ATOM     17  C   UNL     1      -0.018   1.503   0.010  0.00  0.00    +0.067 C 
ATOM     18  C   UNL     1       0.002  -0.004   0.002  0.00  0.00    +0.060 A 
ATOM     19  C   UNL     1       0.008  -0.820  -1.131  0.00  0.00    +0.057 A 
ATOM     20  C   UNL     1       0.028  -2.118  -0.649  0.00  0.00    +0.122 A 
ATOM     21  N   UNL     1       0.033  -2.018   0.714  0.00  0.00    -0.272 N 
ATOM     22  H   UNL     1       0.046  -2.768   1.329  0.00  0.00    +0.189 HD
ATOM     23  N   UNL     1       0.023  -0.780   1.056  0.00  0.00    -0.178 NA
ENDBRANCH  13  20
ENDBRANCH   1  15
TORSDOF 4
