REMARK  Name = ZINC02891196
REMARK  10 active torsions:
REMARK  status: ('A' for Active; 'I' for Inactive)
REMARK    1  A    between atoms: C_1  and  C_2
REMARK    2  A    between atoms: C_6  and  C_10
REMARK    3  A    between atoms: C_7  and  O_8
REMARK    4  A    between atoms: O_8  and  C_9
REMARK    5  A    between atoms: N_12  and  C_13
REMARK    6  A    between atoms: C_13  and  N_15
REMARK    7  A    between atoms: N_15  and  C_16
REMARK    8  A    between atoms: C_18  and  C_24
REMARK    9  A    between atoms: C_19  and  C_23
REMARK   10  A    between atoms: C_21  and  O_22
REMARK                            x       y       z     vdW  Elec       q    Type
REMARK                         _______ _______ _______ _____ _____    ______ ____
ROOT
ATOM      1  C   UNL     1       1.097   3.301  -0.769  0.00  0.00    +0.253 C 
ATOM      2  O   UNL     1       0.050   3.816  -1.109  0.00  0.00    -0.270 OA
ATOM      3  N   UNL     1       1.119   2.009  -0.387  0.00  0.00    -0.263 N 
ATOM      4  H   UNL     1       1.955   1.597  -0.115  0.00  0.00    +0.157 HD
ENDROOT
BRANCH   1  10
ATOM      5  C   UNL     1       3.490   7.610  -1.604  0.00  0.00    +0.047 C 
ATOM      6  C   UNL     1       3.503   6.165  -1.177  0.00  0.00    -0.007 A 
ATOM      7  C   UNL     1       4.688   5.572  -0.789  0.00  0.00    +0.022 A 
ATOM      8  C   UNL     1       4.711   4.243  -0.394  0.00  0.00    +0.019 A 
ATOM      9  C   UNL     1       3.549   3.501  -0.386  0.00  0.00    +0.032 A 
ATOM     10  C   UNL     1       2.343   4.089  -0.776  0.00  0.00    +0.080 A 
ATOM     11  C   UNL     1       2.326   5.432  -1.179  0.00  0.00    +0.135 A 
ATOM     12 BR   UNL     1       6.342   3.446   0.134  0.00  0.00    -0.050 Br
BRANCH  11  13
ATOM     13  O   UNL     1       1.162   6.012  -1.564  0.00  0.00    -0.494 OA
ATOM     14  C   UNL     1       0.386   6.648  -0.547  0.00  0.00    +0.277 C 
ENDBRANCH  11  13
ENDBRANCH   1  10
BRANCH   3  15
ATOM     15  C   UNL     1      -0.020   1.288  -0.381  0.00  0.00    +0.141 C 
ATOM     16  S   UNL     1      -1.493   2.012  -0.866  0.00  0.00    -0.018 S 
BRANCH  15  17
ATOM     17  N   UNL     1       0.002  -0.004   0.002  0.00  0.00    -0.294 N 
ATOM     18  H   UNL     1       0.847  -0.437   0.199  0.00  0.00    +0.154 HD
BRANCH  17  19
ATOM     19  C   UNL     1      -1.196  -0.722   0.115  0.00  0.00    +0.075 A 
ATOM     20  C   UNL     1      -2.296  -0.145   0.734  0.00  0.00    +0.030 A 
ATOM     21  C   UNL     1      -3.476  -0.855   0.845  0.00  0.00    -0.046 A 
ATOM     22  C   UNL     1      -3.565  -2.139   0.340  0.00  0.00    -0.044 A 
ATOM     23  C   UNL     1      -2.473  -2.720  -0.278  0.00  0.00    +0.051 A 
ATOM     24  C   UNL     1      -1.288  -2.013  -0.398  0.00  0.00    +0.138 A 
ATOM     25  C   UNL     1      -4.855  -2.909   0.465  0.00  0.00    +0.044 C 
ATOM     26  C   UNL     1      -4.670  -0.228   1.518  0.00  0.00    +0.044 C 
BRANCH  24  27
ATOM     27  O   UNL     1      -0.215  -2.581  -1.011  0.00  0.00    -0.505 OA
ATOM     28  H   UNL     1       0.365  -3.072  -0.414  0.00  0.00    +0.292 HD
ENDBRANCH  24  27
ENDBRANCH  17  19
ENDBRANCH  15  17
ENDBRANCH   3  15
TORSDOF 6
