REMARK  Name = ZINC59382349
REMARK  8 active torsions:
REMARK  status: ('A' for Active; 'I' for Inactive)
REMARK    1  A    between atoms: C_1  and  C_2
REMARK    2  A    between atoms: C_5  and  N_8
REMARK    3  A    between atoms: C_17  and  C_31
REMARK    4  A    between atoms: N_32  and  N_33
REMARK    5  A    between atoms: C_34  and  C_36
REMARK    6  A    between atoms: C_36  and  C_37
REMARK    7  A    between atoms: C_37  and  C_38
REMARK    8  A    between atoms: C_38  and  O_39
REMARK                            x       y       z     vdW  Elec       q    Type
REMARK                         _______ _______ _______ _____ _____    ______ ____
ROOT
ATOM      1  N   UNL     1      -0.008  -4.177  -0.020  0.00  0.00    -0.210 N 
ATOM      2  C   UNL     1       0.016  -4.929  -1.167  0.00  0.00    +0.231 C 
ATOM      3  O   UNL     1       0.369  -4.595  -2.278  0.00  0.00    -0.274 OA
ATOM      4  C   UNL     1      -0.510  -6.296  -0.707  0.00  0.00    +0.101 C 
ATOM      5  C   UNL     1       0.376  -6.272   0.593  0.00  0.00    +0.109 C 
ATOM      6  C   UNL     1       0.023  -4.944   1.121  0.00  0.00    +0.232 C 
ATOM      7  O   UNL     1      -0.187  -4.612   2.268  0.00  0.00    -0.274 OA
ATOM      8  C   UNL     1       0.301  -7.610   1.327  0.00  0.00    +0.070 C 
ATOM      9  C   UNL     1       1.541  -8.140   0.528  0.00  0.00    -0.027 A 
ATOM     10  C   UNL     1       2.604  -8.746   1.114  0.00  0.00    +0.005 A 
ATOM     11  C   UNL     1       3.687  -9.087   0.308  0.00  0.00    +0.000 A 
ATOM     12  C   UNL     1       3.656  -8.791  -1.042  0.00  0.00    +0.000 A 
ATOM     13  C   UNL     1       2.546  -8.200  -1.623  0.00  0.00    +0.004 A 
ATOM     14  C   UNL     1       1.453  -7.910  -0.833  0.00  0.00    -0.035 A 
ATOM     15  C   UNL     1       0.115  -7.505  -1.496  0.00  0.00    +0.062 C 
ATOM     16  C   UNL     1      -0.805  -8.532  -0.779  0.00  0.00    -0.035 A 
ATOM     17  C   UNL     1      -0.759  -8.494   0.624  0.00  0.00    -0.027 A 
ATOM     18  C   UNL     1      -1.627  -9.264   1.364  0.00  0.00    +0.005 A 
ATOM     19  C   UNL     1      -2.507 -10.104   0.699  0.00  0.00    +0.000 A 
ATOM     20  C   UNL     1      -2.512 -10.178  -0.682  0.00  0.00    +0.000 A 
ATOM     21  C   UNL     1      -1.644  -9.373  -1.449  0.00  0.00    +0.004 A 
ENDROOT
BRANCH   1  26
ATOM     22  C   UNL     1      -0.194   1.495   0.012  0.00  0.00    +0.044 C 
ATOM     23  C   UNL     1      -0.145  -0.011   0.003  0.00  0.00    -0.050 A 
ATOM     24  C   UNL     1      -0.128  -0.694  -1.199  0.00  0.00    +0.005 A 
ATOM     25  C   UNL     1      -0.083  -2.075  -1.210  0.00  0.00    +0.024 A 
ATOM     26  C   UNL     1      -0.053  -2.776  -0.012  0.00  0.00    +0.044 A 
ATOM     27  C   UNL     1      -0.070  -2.088   1.193  0.00  0.00    +0.024 A 
ATOM     28  C   UNL     1      -0.110  -0.707   1.198  0.00  0.00    +0.005 A 
ENDBRANCH   1  26
BRANCH   8  29
ATOM     29  C   UNL     1       0.314  -7.595   2.834  0.00  0.00    +0.120 C 
ATOM     30  N   UNL     1       1.174  -8.295   3.473  0.00  0.00    -0.191 NA
BRANCH  30  31
ATOM     31  N   UNL     1       1.186  -8.281   4.874  0.00  0.00    -0.207 N 
ATOM     32  C   UNL     1       2.091  -9.018   5.548  0.00  0.00    +0.232 C 
ATOM     33  O   UNL     1       2.896  -9.693   4.941  0.00  0.00    -0.274 OA
ATOM     34  H   UNL     1       0.542  -7.742   5.359  0.00  0.00    +0.177 HD
BRANCH  32  35
ATOM     35  C   UNL     1       2.104  -9.003   7.055  0.00  0.00    +0.100 C 
BRANCH  35  36
ATOM     36  C   UNL     1       3.221  -9.917   7.564  0.00  0.00    +0.037 C 
BRANCH  36  37
ATOM     37  C   UNL     1       3.233  -9.902   9.094  0.00  0.00    +0.156 C 
BRANCH  37  38
ATOM     38  O   UNL     1       4.276 -10.755   9.570  0.00  0.00    -0.395 OA
ATOM     39  H   UNL     1       4.343 -10.794  10.534  0.00  0.00    +0.209 HD
ENDBRANCH  37  38
ENDBRANCH  36  37
ENDBRANCH  35  36
ENDBRANCH  32  35
ENDBRANCH  30  31
ENDBRANCH   8  29
TORSDOF 7
