REMARK  Name = ZINC35871555
REMARK  6 active torsions:
REMARK  status: ('A' for Active; 'I' for Inactive)
REMARK    1  A    between atoms: C_1  and  C_2
REMARK    2  A    between atoms: C_2  and  C_4
REMARK    3  A    between atoms: C_2  and  N_10
REMARK    4  A    between atoms: C_11  and  C_13
REMARK    5  A    between atoms: C_18  and  C_35
REMARK    6  A    between atoms: N_26  and  C_29
REMARK                            x       y       z     vdW  Elec       q    Type
REMARK                         _______ _______ _______ _____ _____    ______ ____
ROOT
ATOM      1  C   UNL     1       2.783  -1.099   2.395  0.00  0.00    +0.098 C 
ATOM      2  C   UNL     1       2.245  -2.470   2.747  0.00  0.00    +0.051 C 
ATOM      3  C   UNL     1       2.785  -3.538   1.841  0.00  0.00    -0.025 A 
ATOM      4  C   UNL     1       2.027  -4.665   1.580  0.00  0.00    +0.017 A 
ATOM      5  C   UNL     1       2.517  -5.655   0.749  0.00  0.00    +0.055 A 
ATOM      6  C   UNL     1       3.769  -5.523   0.176  0.00  0.00    +0.014 A 
ATOM      7  C   UNL     1       4.530  -4.400   0.431  0.00  0.00    +0.024 A 
ATOM      8  C   UNL     1       4.039  -3.401   1.265  0.00  0.00    +0.033 A 
ATOM      9  N   UNL     1       4.803  -2.268   1.512  0.00  0.00    -0.329 N 
ATOM     10  C   UNL     1       4.260  -1.062   2.115  0.00  0.00    +0.069 C 
ATOM     11  C   UNL     1       5.078  -0.725   3.363  0.00  0.00    -0.055 C 
ATOM     12  N   UNL     1       6.496  -0.623   2.991  0.00  0.00    +0.384 N 
ATOM     13  C   UNL     1       6.990  -1.909   2.486  0.00  0.00    -0.059 C 
ATOM     14  C   UNL     1       6.246  -2.273   1.199  0.00  0.00    +0.087 C 
ATOM     15  H   UNL     1       6.603   0.079   2.275  0.00  0.00    -0.081 HD
ENDROOT
BRANCH  12  16
ATOM     16  C   UNL     1       7.280  -0.233   4.171  0.00  0.00    -0.068 C 
ATOM     17  C   UNL     1       6.787   1.120   4.686  0.00  0.00    -0.015 C 
ATOM     18  C   UNL     1       7.603   1.526   5.915  0.00  0.00    -0.002 C 
ATOM     19  C   UNL     1       9.081   1.633   5.534  0.00  0.00    -0.000 C 
ATOM     20  C   UNL     1       9.574   0.280   5.018  0.00  0.00    -0.002 C 
ATOM     21  C   UNL     1       8.758  -0.126   3.789  0.00  0.00    -0.015 C 
ENDBRANCH  12  16
BRANCH   1  23
ATOM     22  N   UNL     1       0.711  -0.489   1.189  0.00  0.00    -0.308 N 
ATOM     23  C   UNL     1       2.054  -0.600   1.174  0.00  0.00    +0.219 C 
ATOM     24  O   UNL     1       2.676  -0.297   0.177  0.00  0.00    -0.275 OA
ATOM     25  H   UNL     1       0.213  -0.731   1.986  0.00  0.00    +0.149 HD
BRANCH  22  27
ATOM     26  C   UNL     1      -0.019   1.526   0.010  0.00  0.00    +0.033 C 
ATOM     27  C   UNL     1       0.002  -0.004   0.002  0.00  0.00    +0.100 C 
BRANCH  27  28
ATOM     28  C   UNL     1      -1.412  -0.526   0.013  0.00  0.00    -0.027 A 
ATOM     29  C   UNL     1      -2.123  -0.571   1.197  0.00  0.00    +0.005 A 
ATOM     30  C   UNL     1      -3.420  -1.049   1.207  0.00  0.00    +0.000 A 
ATOM     31  C   UNL     1      -4.006  -1.482   0.032  0.00  0.00    +0.000 A 
ATOM     32  C   UNL     1      -3.295  -1.436  -1.153  0.00  0.00    +0.000 A 
ATOM     33  C   UNL     1      -2.000  -0.954  -1.163  0.00  0.00    +0.005 A 
ENDBRANCH  27  28
ENDBRANCH  22  27
ENDBRANCH   1  23
BRANCH   5  34
ATOM     34  C   UNL     1       1.686  -6.880   0.468  0.00  0.00    +0.417 C 
ATOM     35  F   UNL     1       0.889  -6.654  -0.659  0.00  0.00    -0.166 F 
ATOM     36  F   UNL     1       2.530  -7.971   0.231  0.00  0.00    -0.166 F 
ATOM     37  F   UNL     1       0.869  -7.153   1.570  0.00  0.00    -0.166 F 
ENDBRANCH   5  34
TORSDOF 5
