REMARK  Name = ZINC31554389
REMARK  6 active torsions:
REMARK  status: ('A' for Active; 'I' for Inactive)
REMARK    1  A    between atoms: C_1  and  C_2
REMARK    2  A    between atoms: C_5  and  C_7
REMARK    3  A    between atoms: N_9  and  C_10
REMARK    4  A    between atoms: C_13  and  C_16
REMARK    5  A    between atoms: N_18  and  N_19
REMARK    6  A    between atoms: N_19  and  C_20
REMARK                            x       y       z     vdW  Elec       q    Type
REMARK                         _______ _______ _______ _____ _____    ______ ____
ROOT
ATOM      1  C   UNL     1      -2.491   4.026   0.567  0.00  0.00    +0.260 C 
ATOM      2  O   UNL     1      -3.519   3.388   0.449  0.00  0.00    -0.269 OA
ATOM      3  N   UNL     1      -1.304   3.447   0.297  0.00  0.00    -0.232 N 
ATOM      4  H   UNL     1      -0.374   4.025   0.405  0.00  0.00    +0.173 HD
ENDROOT
BRANCH   1   8
ATOM      5  C   UNL     1      -2.639   8.077   1.833  0.00  0.00    +0.033 A 
ATOM      6  C   UNL     1      -3.817   7.349   1.698  0.00  0.00    +0.024 A 
ATOM      7  C   UNL     1      -3.772   6.036   1.288  0.00  0.00    +0.015 A 
ATOM      8  C   UNL     1      -2.543   5.434   1.007  0.00  0.00    +0.038 A 
ATOM      9  C   UNL     1      -1.361   6.167   1.149  0.00  0.00    +0.015 A 
ATOM     10  C   UNL     1      -1.413   7.482   1.554  0.00  0.00    +0.024 A 
BRANCH   5  13
ATOM     11  C   UNL     1      -3.729  10.187   1.895  0.00  0.00    +0.221 C 
ATOM     12  O   UNL     1      -4.575   9.761   1.137  0.00  0.00    -0.275 OA
ATOM     13  N   UNL     1      -2.688   9.408   2.249  0.00  0.00    -0.285 N 
ATOM     14  H   UNL     1      -1.876   9.821   2.866  0.00  0.00    +0.155 HD
BRANCH  11  18
ATOM     15  C   UNL     1      -5.650  13.385   3.026  0.00  0.00    +0.008 C 
ATOM     16  C   UNL     1      -5.048  12.421   2.002  0.00  0.00    -0.002 C 
ATOM     17  C   UNL     1      -3.654  12.745   1.460  0.00  0.00    +0.017 C 
ATOM     18  C   UNL     1      -3.843  11.586   2.441  0.00  0.00    +0.078 C 
ENDBRANCH  11  18
ENDBRANCH   5  13
ENDBRANCH   1   8
BRANCH   3  19
ATOM     19  N   UNL     1      -1.255   2.111  -0.120  0.00  0.00    -0.259 N 
ATOM     20  H   UNL     1      -2.175   1.508  -0.144  0.00  0.00    +0.170 HD
BRANCH  19  21
ATOM     21  C   UNL     1      -0.034   1.542  -0.507  0.00  0.00    +0.121 A 
ATOM     22  C   UNL     1       0.909   2.309  -1.179  0.00  0.00    +0.186 A 
ATOM     23  C   UNL     1       2.113   1.744  -1.565  0.00  0.00    +0.198 A 
ATOM     24  C   UNL     1       2.377   0.413  -1.282  0.00  0.00    +0.199 A 
ATOM     25  C   UNL     1       1.437  -0.354  -0.612  0.00  0.00    +0.198 A 
ATOM     26  C   UNL     1       0.232   0.208  -0.224  0.00  0.00    +0.186 A 
ATOM     27  F   UNL     1      -0.684  -0.540   0.429  0.00  0.00    -0.200 F 
ATOM     28  F   UNL     1       1.696  -1.651  -0.338  0.00  0.00    -0.199 F 
ATOM     29  F   UNL     1       3.552  -0.137  -1.659  0.00  0.00    -0.199 F 
ATOM     30  F   UNL     1       3.031   2.490  -2.218  0.00  0.00    -0.199 F 
ATOM     31  F   UNL     1       0.652   3.607  -1.455  0.00  0.00    -0.200 F 
ENDBRANCH  19  21
ENDBRANCH   3  19
TORSDOF 5
