REMARK  Name = ZINC14991264
REMARK  6 active torsions:
REMARK  status: ('A' for Active; 'I' for Inactive)
REMARK    1  A    between atoms: C_1  and  C_2
REMARK    2  A    between atoms: C_6  and  C_8
REMARK    3  A    between atoms: C_11  and  C_14
REMARK    4  A    between atoms: C_18  and  C_21
REMARK    5  A    between atoms: C_21  and  N_22
REMARK    6  A    between atoms: C_23  and  C_25
REMARK                            x       y       z     vdW  Elec       q    Type
REMARK                         _______ _______ _______ _____ _____    ______ ____
ROOT
ATOM      1  C   UNL     1      -8.630   3.453   0.066  0.00  0.00    +0.044 C 
ATOM      2  C   UNL     1      -7.305   4.172   0.059  0.00  0.00    -0.049 A 
ATOM      3  C   UNL     1      -7.268   5.557   0.061  0.00  0.00    +0.010 A 
ATOM      4  C   UNL     1      -6.060   6.219   0.056  0.00  0.00    -0.001 A 
ATOM      5  C   UNL     1      -4.863   5.516   0.061  0.00  0.00    +0.133 A 
ATOM      6  C   UNL     1      -4.903   4.113   0.047  0.00  0.00    +0.043 A 
ATOM      7  C   UNL     1      -6.129   3.452   0.050  0.00  0.00    +0.017 A 
ATOM      8  O   UNL     1      -3.796   6.359   0.073  0.00  0.00    -0.486 OA
ATOM      9  C   UNL     1      -4.216   7.665  -0.358  0.00  0.00    +0.195 C 
ATOM     10  C   UNL     1      -5.709   7.694   0.047  0.00  0.00    +0.085 C 
ENDROOT
BRANCH   6  11
ATOM     11  C   UNL     1      -3.642   3.336   0.037  0.00  0.00    +0.075 A 
ATOM     12  C   UNL     1      -3.693   1.941   0.030  0.00  0.00    +0.029 A 
ATOM     13  C   UNL     1      -2.514   1.224   0.015  0.00  0.00    +0.016 A 
ATOM     14  C   UNL     1      -1.303   1.932   0.019  0.00  0.00    +0.055 A 
ATOM     15  C   UNL     1      -1.333   3.328   0.026  0.00  0.00    +0.124 A 
ATOM     16  N   UNL     1      -2.478   3.975   0.035  0.00  0.00    -0.254 NA
BRANCH  14  17
ATOM     17  C   UNL     1      -0.014   1.212   0.009  0.00  0.00    +0.243 C 
ATOM     18  O   UNL     1       0.002  -0.004   0.002  0.00  0.00    -0.270 OA
ATOM     19  N   UNL     1       1.143   1.901   0.001  0.00  0.00    -0.325 N 
ATOM     20  H   UNL     1       1.990   1.428  -0.009  0.00  0.00    +0.145 HD
ATOM     21  H   UNL     1       1.130   2.871   0.007  0.00  0.00    +0.145 HD
ENDBRANCH  14  17
ENDBRANCH   6  11
BRANCH   9  22
ATOM     22  C   UNL     1      -3.434   8.756   0.375  0.00  0.00    +0.149 C 
BRANCH  22  23
ATOM     23  N   UNL     1      -2.054   8.781  -0.116  0.00  0.00    -0.311 N 
ATOM     24  C   UNL     1      -1.174   9.668   0.390  0.00  0.00    +0.219 C 
ATOM     25  O   UNL     1      -1.526  10.446   1.252  0.00  0.00    -0.275 OA
ATOM     26  H   UNL     1      -1.773   8.159  -0.805  0.00  0.00    +0.149 HD
BRANCH  24  27
ATOM     27  C   UNL     1       0.245   9.694  -0.115  0.00  0.00    +0.048 C 
ATOM     28  C   UNL     1       0.247   9.988  -1.616  0.00  0.00    +0.019 C 
ATOM     29  C   UNL     1       1.688  10.014  -2.129  0.00  0.00    -0.009 C 
ATOM     30  C   UNL     1       2.471  11.105  -1.395  0.00  0.00    +0.007 C 
ATOM     31  C   UNL     1       2.469  10.812   0.106  0.00  0.00    -0.009 C 
ATOM     32  C   UNL     1       1.028  10.785   0.619  0.00  0.00    +0.019 C 
ATOM     33  C   UNL     1       3.126   9.454   0.361  0.00  0.00    +0.007 C 
ATOM     34  C   UNL     1       2.344   8.363  -0.372  0.00  0.00    -0.009 C 
ATOM     35  C   UNL     1       2.345   8.656  -1.874  0.00  0.00    +0.007 C 
ATOM     36  C   UNL     1       0.902   8.336   0.141  0.00  0.00    +0.019 C 
ENDBRANCH  24  27
ENDBRANCH  22  23
ENDBRANCH   9  22
TORSDOF 5
