REMARK  Name = ZINC15449191
REMARK  12 active torsions:
REMARK  status: ('A' for Active; 'I' for Inactive)
REMARK    1  A    between atoms: C_1  and  C_2
REMARK    2  A    between atoms: C_2  and  C_4
REMARK    3  A    between atoms: C_2  and  C_10
REMARK    4  A    between atoms: C_4  and  C_5
REMARK    5  A    between atoms: C_5  and  C_6
REMARK    6  A    between atoms: C_6  and  O_8
REMARK    7  A    between atoms: O_8  and  C_9
REMARK    8  A    between atoms: C_16  and  C_39
REMARK    9  A    between atoms: C_17  and  O_38
REMARK   10  A    between atoms: C_24  and  O_37
REMARK   11  A    between atoms: C_29  and  C_36
REMARK   12  A    between atoms: C_32  and  O_35
REMARK                            x       y       z     vdW  Elec       q    Type
REMARK                         _______ _______ _______ _____ _____    ______ ____
ROOT
ATOM      1  C   UNL     1      -1.939   7.051   3.820  0.00  0.00    +0.001 C 
ATOM      2  C   UNL     1      -2.499   7.621   5.140  0.00  0.00    +0.005 C 
ATOM      3  C   UNL     1      -1.303   8.248   5.889  0.00  0.00    +0.005 C 
ATOM      4  C   UNL     1      -0.285   8.577   4.757  0.00  0.00    +0.003 C 
ATOM      5  C   UNL     1      -0.435   7.352   3.838  0.00  0.00    +0.000 C 
ATOM      6  C   UNL     1       0.131   7.576   2.455  0.00  0.00    +0.121 C 
ATOM      7  C   UNL     1      -0.454   8.836   1.817  0.00  0.00    +0.036 C 
ATOM      8  C   UNL     1      -0.116  10.034   2.712  0.00  0.00    +0.003 C 
ATOM      9  C   UNL     1      -0.798   9.843   4.064  0.00  0.00    +0.025 C 
ATOM     10  C   UNL     1      -0.514  11.051   4.961  0.00  0.00    +0.118 C 
ATOM     11  C   UNL     1      -1.039  12.322   4.293  0.00  0.00    +0.035 C 
ATOM     12  C   UNL     1      -0.338  12.514   2.946  0.00  0.00    +0.000 C 
ATOM     13  C   UNL     1      -0.634  11.312   2.047  0.00  0.00    -0.026 C 
ATOM     14  C   UNL     1      -2.145  11.198   1.831  0.00  0.00    +0.010 C 
ATOM     15  C   UNL     1      -2.662  12.473   1.163  0.00  0.00    +0.032 C 
ATOM     16  C   UNL     1      -2.365  13.676   2.062  0.00  0.00    +0.115 C 
ATOM     17  C   UNL     1      -0.855  13.790   2.279  0.00  0.00    +0.035 C 
ATOM     18  C   UNL     1       0.061  11.501   0.698  0.00  0.00    +0.012 C 
ATOM     19  C   UNL     1       0.300   6.167   4.468  0.00  0.00    +0.014 C 
ENDROOT
BRANCH   1  21
ATOM     20  C   UNL     1      -3.657   5.245   3.996  0.00  0.00    +0.008 C 
ATOM     21  C   UNL     1      -2.175   5.541   3.756  0.00  0.00    -0.010 C 
BRANCH  21  22
ATOM     22  C   UNL     1      -1.768   5.020   2.376  0.00  0.00    +0.014 C 
BRANCH  22  23
ATOM     23  C   UNL     1      -2.340   3.615   2.172  0.00  0.00    +0.121 C 
BRANCH  23  24
ATOM     24  C   UNL     1      -1.939   3.102   0.813  0.00  0.00    +0.307 C 
ATOM     25  O   UNL     1      -1.265   3.789   0.082  0.00  0.00    -0.251 OA
BRANCH  24  26
ATOM     26  O   UNL     1      -2.330   1.882   0.414  0.00  0.00    -0.468 OA
ATOM     27  C   UNL     1      -1.907   1.453  -0.907  0.00  0.00    +0.280 C 
ENDBRANCH  24  26
ENDBRANCH  23  24
ENDBRANCH  22  23
ENDBRANCH  21  22
ENDBRANCH   1  21
BRANCH  16  28
ATOM     28  O   UNL     1      -3.016  13.501   3.322  0.00  0.00    -0.392 OA
ATOM     29  H   UNL     1      -3.978  13.422   3.260  0.00  0.00    +0.210 HD
ENDBRANCH  16  28
BRANCH  10  30
ATOM     30  O   UNL     1      -1.165  10.872   6.220  0.00  0.00    -0.391 OA
ATOM     31  H   UNL     1      -1.029  11.601   6.841  0.00  0.00    +0.210 HD
ENDBRANCH  10  30
BRANCH   6  32
ATOM     32  O   UNL     1      -0.178   6.448   1.633  0.00  0.00    -0.391 OA
ATOM     33  H   UNL     1       0.175   6.507   0.735  0.00  0.00    +0.210 HD
ENDBRANCH   6  32
TORSDOF 8
