REMARK  Name = ZINC44579450
REMARK  7 active torsions:
REMARK  status: ('A' for Active; 'I' for Inactive)
REMARK    1  A    between atoms: C_1  and  C_2
REMARK    2  A    between atoms: C_4  and  C_10
REMARK    3  A    between atoms: C_4  and  C_11
REMARK    4  A    between atoms: N_5  and  O_9
REMARK    5  A    between atoms: C_6  and  C_7
REMARK    6  A    between atoms: C_6  and  C_8
REMARK    7  A    between atoms: C_14  and  N_17
REMARK                            x       y       z     vdW  Elec       q    Type
REMARK                         _______ _______ _______ _____ _____    ______ ____
ROOT
ATOM      1  C   UNL     1       0.035   1.429  -0.083  0.00  0.00    +0.062 C 
ATOM      2  C   UNL     1       0.022  -0.077  -0.060  0.00  0.00    +0.035 C 
ATOM      3  N   UNL     1      -0.004  -0.829  -1.092  0.00  0.00    -0.262 NA
ATOM      4  C   UNL     1      -0.007  -2.245  -0.707  0.00  0.00    +0.159 C 
ATOM      5  N   UNL     1      -0.392  -2.273   0.724  0.00  0.00    -0.149 NA
ATOM      6  C   UNL     1       0.042  -0.930   1.189  0.00  0.00    +0.081 C 
ATOM      7  C   UNL     1      -0.939  -0.382   2.226  0.00  0.00    +0.036 C 
ATOM      8  C   UNL     1       1.456  -0.993   1.770  0.00  0.00    +0.036 C 
ATOM      9  C   UNL     1       1.388  -2.845  -0.891  0.00  0.00    +0.061 C 
ENDROOT
BRANCH   4  10
ATOM     10  C   UNL     1      -1.014  -3.005  -1.532  0.00  0.00    -0.004 A 
ATOM     11  C   UNL     1      -1.670  -4.094  -0.987  0.00  0.00    +0.009 A 
ATOM     12  C   UNL     1      -2.594  -4.793  -1.740  0.00  0.00    +0.023 A 
ATOM     13  C   UNL     1      -2.862  -4.401  -3.045  0.00  0.00    +0.025 A 
ATOM     14  C   UNL     1      -2.201  -3.307  -3.589  0.00  0.00    +0.023 A 
ATOM     15  C   UNL     1      -1.283  -2.609  -2.829  0.00  0.00    +0.009 A 
BRANCH  13  16
ATOM     16  N   UNL     1      -3.795  -5.106  -3.809  0.00  0.00    -0.358 N 
ATOM     17  H   UNL     1      -4.256  -5.870  -3.428  0.00  0.00    +0.142 HD
ATOM     18  H   UNL     1      -3.982  -4.832  -4.721  0.00  0.00    +0.142 HD
ENDBRANCH  13  16
ENDBRANCH   4  10
BRANCH   5  19
ATOM     19  O   UNL     1       0.326  -3.329   1.439  0.00  0.00    -0.309 OA
ATOM     20  H   UNL     1       0.163  -4.218   1.095  0.00  0.00    +0.237 HD
ENDBRANCH   5  19
TORSDOF 3
