REMARK  Name = ZINC59768902
REMARK  11 active torsions:
REMARK  status: ('A' for Active; 'I' for Inactive)
REMARK    1  A    between atoms: C_1  and  C_2
REMARK    2  A    between atoms: C_2  and  N_3
REMARK    3  A    between atoms: N_3  and  C_4
REMARK    4  A    between atoms: N_3  and  S_6
REMARK    5  A    between atoms: C_4  and  C_5
REMARK    6  A    between atoms: S_6  and  C_9
REMARK    7  A    between atoms: C_13  and  C_15
REMARK    8  A    between atoms: N_17  and  C_18
REMARK    9  A    between atoms: C_21  and  C_25
REMARK   10  A    between atoms: C_23  and  C_24
REMARK   11  A    between atoms: N_27  and  C_28
REMARK                            x       y       z     vdW  Elec       q    Type
REMARK                         _______ _______ _______ _____ _____    ______ ____
ROOT
ATOM      1  C   UNL     1      -6.428   2.028   2.392  0.00  0.00    +0.248 C 
ATOM      2  O   UNL     1      -7.194   1.109   2.179  0.00  0.00    -0.270 OA
ATOM      3  N   UNL     1      -6.863   3.301   2.307  0.00  0.00    -0.281 N 
ATOM      4  H   UNL     1      -6.275   4.032   2.554  0.00  0.00    +0.155 HD
ENDROOT
BRANCH   3   5
ATOM      5  C   UNL     1      -8.157   3.567   1.863  0.00  0.00    +0.037 A 
ATOM      6  C   UNL     1      -8.811   2.653   1.042  0.00  0.00    +0.024 A 
ATOM      7  C   UNL     1     -10.089   2.913   0.603  0.00  0.00    +0.015 A 
ATOM      8  C   UNL     1     -10.730   4.096   0.982  0.00  0.00    +0.037 A 
ATOM      9  C   UNL     1     -10.070   5.011   1.806  0.00  0.00    +0.018 A 
ATOM     10  C   UNL     1      -8.794   4.743   2.246  0.00  0.00    -0.029 A 
ATOM     11  C   UNL     1      -8.084   5.727   3.140  0.00  0.00    +0.045 C 
BRANCH   8  12
ATOM     12  C   UNL     1     -12.101   4.378   0.512  0.00  0.00    +0.244 C 
ATOM     13  O   UNL     1     -12.657   5.407   0.842  0.00  0.00    -0.270 OA
ATOM     14  N   UNL     1     -12.736   3.494  -0.283  0.00  0.00    -0.308 N 
ATOM     15  H   UNL     1     -12.292   2.673  -0.547  0.00  0.00    +0.149 HD
BRANCH  14  16
ATOM     16  C   UNL     1     -14.096   3.774  -0.750  0.00  0.00    +0.073 C 
ATOM     17  C   UNL     1     -15.102   3.320   0.310  0.00  0.00    +0.022 C 
ATOM     18  C   UNL     1     -16.522   3.612  -0.177  0.00  0.00    +0.002 C 
ATOM     19  C   UNL     1     -16.780   2.856  -1.482  0.00  0.00    +0.000 C 
ATOM     20  C   UNL     1     -15.774   3.310  -2.542  0.00  0.00    +0.002 C 
ATOM     21  C   UNL     1     -14.353   3.017  -2.055  0.00  0.00    +0.022 C 
ENDBRANCH  14  16
ENDBRANCH   8  12
ENDBRANCH   3   5
BRANCH   1  26
ATOM     22  C   UNL     1      -3.251   0.180   3.164  0.00  0.00    +0.106 A 
ATOM     23  C   UNL     1      -2.382   1.229   3.406  0.00  0.00    +0.028 A 
ATOM     24  C   UNL     1      -2.825   2.537   3.319  0.00  0.00    +0.003 A 
ATOM     25  C   UNL     1      -4.138   2.803   2.990  0.00  0.00    +0.013 A 
ATOM     26  C   UNL     1      -5.020   1.750   2.744  0.00  0.00    +0.039 A 
ATOM     27  C   UNL     1      -4.565   0.433   2.829  0.00  0.00    +0.041 A 
BRANCH  22  28
ATOM     28  S   UNL     1      -2.677  -1.482   3.279  0.00  0.00    +0.061 S 
ATOM     29  O   UNL     1      -3.818  -2.289   3.535  0.00  0.00    -0.153 OA
ATOM     30  O   UNL     1      -1.548  -1.463   4.142  0.00  0.00    -0.153 OA
BRANCH  28  31
ATOM     31  N   UNL     1      -2.120  -1.912   1.780  0.00  0.00    -0.177 NA
BRANCH  31  33
ATOM     32  C   UNL     1      -0.590  -0.347   0.688  0.00  0.00    +0.022 C 
ATOM     33  C   UNL     1      -0.718  -1.681   1.426  0.00  0.00    +0.106 C 
ENDBRANCH  31  33
BRANCH  31  34
ATOM     34  C   UNL     1      -3.030  -2.523   0.808  0.00  0.00    +0.106 C 
ATOM     35  C   UNL     1      -2.913  -4.046   0.886  0.00  0.00    +0.022 C 
ENDBRANCH  31  34
ENDBRANCH  28  31
ENDBRANCH  22  28
ENDBRANCH   1  26
TORSDOF 8
