REMARK  Name = ZINC09304862
REMARK  10 active torsions:
REMARK  status: ('A' for Active; 'I' for Inactive)
REMARK    1  A    between atoms: C_1  and  C_2
REMARK    2  A    between atoms: C_5  and  N_8
REMARK    3  A    between atoms: C_9  and  C_11
REMARK    4  A    between atoms: C_11  and  N_66
REMARK    5  A    between atoms: C_14  and  O_33
REMARK    6  A    between atoms: C_21  and  C_23
REMARK    7  A    between atoms: C_26  and  O_31
REMARK    8  A    between atoms: C_28  and  O_29
REMARK    9  A    between atoms: O_29  and  C_30
REMARK   10  A    between atoms: O_31  and  C_32
REMARK                            x       y       z     vdW  Elec       q    Type
REMARK                         _______ _______ _______ _____ _____    ______ ____
ROOT
ATOM      1  C   UNL     1       1.642   2.870   0.214  0.00  0.00    -0.075 C 
ATOM      2  C   UNL     1       1.092   3.591  -1.019  0.00  0.00    +0.016 C 
ATOM      3  C   UNL     1      -0.399   3.279  -1.159  0.00  0.00    +0.066 C 
ATOM      4  C   UNL     1      -0.957   3.946  -2.417  0.00  0.00    +0.035 C 
ATOM      5  C   UNL     1      -2.449   3.627  -2.538  0.00  0.00    +0.003 C 
ATOM      6  C   UNL     1      -2.645   2.112  -2.629  0.00  0.00    +0.000 C 
ATOM      7  C   UNL     1      -2.076   1.443  -1.376  0.00  0.00    +0.005 C 
ATOM      8  C   UNL     1      -0.584   1.763  -1.266  0.00  0.00    +0.011 C 
ATOM      9  C   UNL     1       0.004   1.095  -0.023  0.00  0.00    -0.028 C 
ATOM     10  N   UNL     1       1.448   1.413   0.049  0.00  0.00    +0.390 N 
ATOM     11  H   UNL     1       1.898   1.114  -0.824  0.00  0.00    -0.080 HD
ENDROOT
BRANCH   9  12
ATOM     12  C   UNL     1      -0.712   1.596   1.204  0.00  0.00    -0.019 A 
ATOM     13  C   UNL     1      -0.020   2.309   2.165  0.00  0.00    +0.009 A 
ATOM     14  C   UNL     1      -0.674   2.770   3.291  0.00  0.00    +0.046 A 
ATOM     15  C   UNL     1      -2.028   2.518   3.461  0.00  0.00    +0.124 A 
ATOM     16  C   UNL     1      -2.725   1.804   2.499  0.00  0.00    +0.091 A 
ATOM     17  C   UNL     1      -2.067   1.346   1.367  0.00  0.00    +0.125 A 
BRANCH  17  18
ATOM     18  O   UNL     1      -2.748   0.650   0.419  0.00  0.00    -0.495 OA
ATOM     19  C   UNL     1      -4.141   0.430   0.652  0.00  0.00    +0.277 C 
ENDBRANCH  17  18
BRANCH  15  20
ATOM     20  O   UNL     1      -2.671   2.972   4.569  0.00  0.00    -0.495 OA
ATOM     21  C   UNL     1      -1.891   3.701   5.518  0.00  0.00    +0.277 C 
ENDBRANCH  15  20
ENDBRANCH   9  12
BRANCH   3  22
ATOM     22  O   UNL     1      -1.097   3.765  -0.011  0.00  0.00    -0.388 OA
ATOM     23  H   UNL     1      -1.017   4.720   0.123  0.00  0.00    +0.210 HD
ENDBRANCH   3  22
BRANCH  10  24
ATOM     24  C   UNL     1       2.067   0.691   1.180  0.00  0.00    +0.020 C 
BRANCH  24  26
ATOM     25  N   UNL     1       2.500  -1.666   1.793  0.00  0.00    -0.287 N 
ATOM     26  C   UNL     1       2.067  -0.784   0.871  0.00  0.00    +0.201 C 
ATOM     27  O   UNL     1       1.676  -1.177  -0.208  0.00  0.00    -0.278 OA
ATOM     28  H   UNL     1       2.893  -1.348   2.621  0.00  0.00    +0.155 HD
BRANCH  25  33
ATOM     29  C   UNL     1       2.027  -7.237   0.834  0.00  0.00    +0.044 C 
ATOM     30  C   UNL     1       2.153  -5.757   1.088  0.00  0.00    -0.050 A 
ATOM     31  C   UNL     1       3.140  -5.284   1.933  0.00  0.00    +0.005 A 
ATOM     32  C   UNL     1       3.257  -3.928   2.169  0.00  0.00    +0.023 A 
ATOM     33  C   UNL     1       2.384  -3.040   1.556  0.00  0.00    +0.033 A 
ATOM     34  C   UNL     1       1.391  -3.519   0.711  0.00  0.00    +0.023 A 
ATOM     35  C   UNL     1       1.281  -4.875   0.476  0.00  0.00    +0.005 A 
ENDBRANCH  25  33
ENDBRANCH  24  26
ENDBRANCH  10  24
TORSDOF 7
