REMARK  Name = ZINC13072818
REMARK  11 active torsions:
REMARK  status: ('A' for Active; 'I' for Inactive)
REMARK    1  A    between atoms: C_1  and  C_2
REMARK    2  A    between atoms: C_2  and  C_4
REMARK    3  A    between atoms: C_2  and  N_11
REMARK    4  A    between atoms: N_11  and  S_12
REMARK    5  A    between atoms: S_12  and  C_15
REMARK    6  A    between atoms: C_17  and  C_25
REMARK    7  A    between atoms: C_19  and  O_23
REMARK    8  A    between atoms: C_20  and  O_21
REMARK    9  A    between atoms: O_21  and  C_22
REMARK   10  A    between atoms: O_23  and  C_24
REMARK   11  A    between atoms: C_26  and  C_27
REMARK                            x       y       z     vdW  Elec       q    Type
REMARK                         _______ _______ _______ _____ _____    ______ ____
ROOT
ATOM      1  C   UNL     1      -0.105   1.408   0.434  0.00  0.00    +0.151 A 
ATOM      2  C   UNL     1      -0.352   0.054   0.379  0.00  0.00    +0.040 A 
ATOM      3  C   UNL     1       0.704  -0.855   0.507  0.00  0.00    -0.019 A 
ATOM      4  C   UNL     1       2.010  -0.383   0.691  0.00  0.00    +0.057 A 
ATOM      5  C   UNL     1       2.248   0.976   0.745  0.00  0.00    +0.164 A 
ATOM      6  C   UNL     1       1.189   1.875   0.616  0.00  0.00    +0.188 A 
ENDROOT
BRANCH   1   7
ATOM      7  S   UNL     1      -1.436   2.551   0.265  0.00  0.00    +0.063 S 
ATOM      8  O   UNL     1      -2.609   1.779   0.048  0.00  0.00    -0.153 OA
ATOM      9  O   UNL     1      -1.318   3.473   1.339  0.00  0.00    -0.153 OA
BRANCH   7  10
ATOM     10  N   UNL     1      -1.170   3.409  -1.127  0.00  0.00    -0.183 NA
ATOM     11  H   UNL     1      -1.009   4.365  -1.084  0.00  0.00    +0.149 HD
BRANCH  10  13
ATOM     12  C   UNL     1       0.258   2.398  -2.835  0.00  0.00    +0.031 C 
ATOM     13  C   UNL     1      -1.179   2.725  -2.422  0.00  0.00    +0.104 C 
BRANCH  13  14
ATOM     14  C   UNL     1      -1.808   3.619  -3.459  0.00  0.00    -0.015 A 
ATOM     15  C   UNL     1      -1.772   4.992  -3.301  0.00  0.00    +0.006 A 
ATOM     16  C   UNL     1      -2.349   5.813  -4.252  0.00  0.00    +0.000 A 
ATOM     17  C   UNL     1      -2.962   5.261  -5.361  0.00  0.00    +0.001 A 
ATOM     18  C   UNL     1      -2.999   3.889  -5.520  0.00  0.00    +0.015 A 
ATOM     19  C   UNL     1      -2.418   3.067  -4.571  0.00  0.00    +0.023 A 
ATOM     20 BR   UNL     1      -2.462   1.190  -4.790  0.00  0.00    -0.050 Br
ENDBRANCH  13  14
ENDBRANCH  10  13
ENDBRANCH   7  10
ENDBRANCH   1   7
BRANCH   6  21
ATOM     21  O   UNL     1       1.426   3.211   0.669  0.00  0.00    -0.490 OA
ATOM     22  C   UNL     1       1.503   3.806   1.966  0.00  0.00    +0.277 C 
ENDBRANCH   6  21
BRANCH   5  23
ATOM     23  O   UNL     1       3.514   1.437   0.923  0.00  0.00    -0.491 OA
ATOM     24  C   UNL     1       4.550   0.460   1.048  0.00  0.00    +0.277 C 
ENDBRANCH   5  23
BRANCH   3  25
ATOM     25  C   UNL     1       0.445  -2.300   0.449  0.00  0.00    +0.015 C 
ATOM     26  C   UNL     1       1.466  -3.176   0.573  0.00  0.00    +0.096 C 
BRANCH  26  27
ATOM     27  C   UNL     1       1.215  -4.570   0.516  0.00  0.00    +0.380 C 
ATOM     28  O   UNL     1       0.080  -4.978   0.356  0.00  0.00    -0.241 OA
ATOM     29  O   UNL     1       2.235  -5.444   0.640  0.00  0.00    -0.241 OA
ENDBRANCH  26  27
ENDBRANCH   3  25
TORSDOF 8
