REMARK  Name = ZINC13033126
REMARK  8 active torsions:
REMARK  status: ('A' for Active; 'I' for Inactive)
REMARK    1  A    between atoms: C_1  and  C_2
REMARK    2  A    between atoms: C_2  and  O_3
REMARK    3  A    between atoms: O_3  and  C_4
REMARK    4  A    between atoms: C_4  and  C_6
REMARK    5  A    between atoms: C_7  and  C_28
REMARK    6  A    between atoms: N_8  and  C_20
REMARK    7  A    between atoms: C_12  and  C_14
REMARK    8  A    between atoms: C_23  and  C_26
REMARK                            x       y       z     vdW  Elec       q    Type
REMARK                         _______ _______ _______ _____ _____    ______ ____
ROOT
ATOM      1  C   UNL     1       1.427   5.008   1.524  0.00  0.00    +0.079 C 
ATOM      2  C   UNL     1       2.632   5.553   1.794  0.00  0.00    +0.029 C 
ATOM      3  N   UNL     1       3.380   6.134   0.808  0.00  0.00    -0.228 N 
ATOM      4  C   UNL     1       2.992   6.208  -0.471  0.00  0.00    +0.311 C 
ATOM      5  O   UNL     1       3.727   6.744  -1.278  0.00  0.00    -0.252 OA
ATOM      6  N   UNL     1       1.814   5.709  -0.894  0.00  0.00    -0.287 N 
ATOM      7  C   UNL     1       0.933   5.062   0.093  0.00  0.00    +0.150 C 
ATOM      8  C   UNL     1       3.161   5.520   3.205  0.00  0.00    +0.062 C 
ATOM      9  H   UNL     1       1.553   5.774  -1.825  0.00  0.00    +0.151 HD
ENDROOT
BRANCH   7  10
ATOM     10  C   UNL     1       0.681   3.648  -0.366  0.00  0.00    +0.016 A 
ATOM     11  C   UNL     1      -0.467   2.929  -0.325  0.00  0.00    +0.028 A 
ATOM     12  C   UNL     1      -0.466   1.635  -0.813  0.00  0.00    +0.025 A 
ATOM     13  C   UNL     1       0.687   1.121  -1.308  0.00  0.00    +0.060 A 
ATOM     14  S   UNL     1       1.819   2.487  -1.104  0.00  0.00    -0.098 S 
ATOM     15 BR   UNL     1      -2.046   0.598  -0.786  0.00  0.00    -0.050 Br
ENDBRANCH   7  10
BRANCH   3  16
ATOM     16  C   UNL     1       4.618   6.679   1.154  0.00  0.00    +0.043 A 
ATOM     17  C   UNL     1       5.765   5.894   1.091  0.00  0.00    +0.025 A 
ATOM     18  C   UNL     1       6.987   6.430   1.426  0.00  0.00    +0.017 A 
ATOM     19  C   UNL     1       7.075   7.762   1.842  0.00  0.00    +0.063 A 
ATOM     20  C   UNL     1       5.919   8.546   1.910  0.00  0.00    +0.017 A 
ATOM     21  C   UNL     1       4.701   8.005   1.568  0.00  0.00    +0.025 A 
BRANCH  19  22
ATOM     22  C   UNL     1       8.382   8.338   2.207  0.00  0.00    +0.387 C 
ATOM     23  O   UNL     1       8.456   9.496   2.568  0.00  0.00    -0.241 OA
ATOM     24  O   UNL     1       9.495   7.580   2.141  0.00  0.00    -0.241 OA
ENDBRANCH  19  22
ENDBRANCH   3  16
BRANCH   1  25
ATOM     25  C   UNL     1       0.650   4.407   2.543  0.00  0.00    +0.339 C 
ATOM     26  O   UNL     1       1.067   4.375   3.686  0.00  0.00    -0.245 OA
BRANCH  25  27
ATOM     27  O   UNL     1      -0.552   3.869   2.248  0.00  0.00    -0.462 OA
BRANCH  27  29
ATOM     28  C   UNL     1      -2.608   2.728   2.802  0.00  0.00    +0.048 C 
ATOM     29  C   UNL     1      -1.281   3.279   3.326  0.00  0.00    +0.229 C 
ENDBRANCH  27  29
ENDBRANCH  25  27
ENDBRANCH   1  25
TORSDOF 6
