REMARK  Name = ZINC63514451
REMARK  10 active torsions:
REMARK  status: ('A' for Active; 'I' for Inactive)
REMARK    1  A    between atoms: C_1  and  C_2
REMARK    2  A    between atoms: C_2  and  N_3
REMARK    3  A    between atoms: C_5  and  C_13
REMARK    4  A    between atoms: C_14  and  C_15
REMARK    5  A    between atoms: C_14  and  N_29
REMARK    6  A    between atoms: N_17  and  C_18
REMARK    7  A    between atoms: C_18  and  C_19
REMARK    8  A    between atoms: C_19  and  C_20
REMARK    9  A    between atoms: C_30  and  C_32
REMARK   10  A    between atoms: C_35  and  C_38
REMARK                            x       y       z     vdW  Elec       q    Type
REMARK                         _______ _______ _______ _____ _____    ______ ____
ROOT
ATOM      1  C   UNL     1       1.279  -0.273  -4.604  0.00  0.00    +0.011 C 
ATOM      2  C   UNL     1       1.227  -0.761  -5.846  0.00  0.00    +0.093 C 
ENDROOT
BRANCH   1   5
ATOM      3  N   UNL     1       0.648  -0.449  -1.215  0.00  0.00    -0.329 N 
ATOM      4  C   UNL     1       0.008  -0.736  -2.502  0.00  0.00    +0.117 C 
ATOM      5  C   UNL     1       1.146  -1.201  -3.424  0.00  0.00    +0.063 C 
ATOM      6  C   UNL     1       2.385  -1.140  -2.559  0.00  0.00    -0.018 A 
ATOM      7  C   UNL     1       2.021  -0.691  -1.299  0.00  0.00    +0.034 A 
ATOM      8  C   UNL     1       3.006  -0.547  -0.320  0.00  0.00    +0.023 A 
ATOM      9  C   UNL     1       4.321  -0.843  -0.608  0.00  0.00    +0.002 A 
ATOM     10  C   UNL     1       4.675  -1.285  -1.869  0.00  0.00    +0.000 A 
ATOM     11  C   UNL     1       3.703  -1.439  -2.842  0.00  0.00    +0.006 A 
BRANCH   3  13
ATOM     12  C   UNL     1      -0.076   1.557  -0.019  0.00  0.00    +0.024 C 
ATOM     13  C   UNL     1      -0.049   0.028  -0.018  0.00  0.00    +0.102 C 
ENDBRANCH   3  13
ENDBRANCH   1   5
BRANCH   2  14
ATOM     14  C   UNL     1       1.471   0.128  -6.999  0.00  0.00    +0.258 C 
ATOM     15  O   UNL     1       1.423  -0.316  -8.130  0.00  0.00    -0.269 OA
ATOM     16  N   UNL     1       1.746   1.431  -6.798  0.00  0.00    -0.310 N 
ATOM     17  H   UNL     1       1.784   1.786  -5.896  0.00  0.00    +0.149 HD
BRANCH  16  18
ATOM     18  C   UNL     1       1.989   2.314  -7.942  0.00  0.00    +0.109 C 
BRANCH  18  19
ATOM     19  C   UNL     1       2.276   3.731  -7.441  0.00  0.00    +0.052 C 
BRANCH  19  20
ATOM     20  C   UNL     1       2.525   4.638  -8.618  0.00  0.00    -0.040 C 
ATOM     21  C   UNL     1       1.623   5.434  -9.237  0.00  0.00    -0.001 A 
ATOM     22  C   UNL     1       0.194   5.682  -9.009  0.00  0.00    +0.010 A 
ATOM     23  C   UNL     1      -0.457   6.554  -9.812  0.00  0.00    +0.001 A 
ATOM     24  C   UNL     1       0.197   7.224 -10.855  0.00  0.00    +0.002 A 
ATOM     25  C   UNL     1       1.508   7.049 -11.127  0.00  0.00    +0.026 A 
ATOM     26  C   UNL     1       2.290   6.155 -10.344  0.00  0.00    +0.043 A 
ATOM     27  N   UNL     1       3.556   5.818 -10.408  0.00  0.00    -0.380 N 
ATOM     28  C   UNL     1       3.836   4.849  -9.343  0.00  0.00    +0.144 C 
ATOM     29  H   UNL     1       4.200   6.157 -11.049  0.00  0.00    +0.160 HD
ENDBRANCH  19  20
ENDBRANCH  18  19
ENDBRANCH  16  18
ENDBRANCH   2  14
BRANCH   2  30
ATOM     30  N   UNL     1       0.941  -2.116  -6.055  0.00  0.00    -0.278 N 
ATOM     31  C   UNL     1       1.826  -2.900  -6.701  0.00  0.00    +0.248 C 
ATOM     32  O   UNL     1       2.834  -2.414  -7.178  0.00  0.00    -0.270 OA
ATOM     33  H   UNL     1       0.105  -2.490  -5.734  0.00  0.00    +0.155 HD
BRANCH  31  34
ATOM     34  C   UNL     1       1.572  -4.350  -6.831  0.00  0.00    +0.037 A 
ATOM     35  C   UNL     1       0.413  -4.910  -6.290  0.00  0.00    +0.013 A 
ATOM     36  C   UNL     1       0.182  -6.264  -6.415  0.00  0.00    +0.004 A 
ATOM     37  C   UNL     1       1.096  -7.067  -7.074  0.00  0.00    -0.050 A 
ATOM     38  C   UNL     1       2.247  -6.519  -7.612  0.00  0.00    +0.004 A 
ATOM     39  C   UNL     1       2.487  -5.165  -7.500  0.00  0.00    +0.013 A 
ATOM     40  C   UNL     1       0.838  -8.546  -7.205  0.00  0.00    +0.044 C 
ENDBRANCH  31  34
ENDBRANCH   2  30
TORSDOF 8
