REMARK  Name = ZINC00135843
REMARK  1 active torsions:
REMARK  status: ('A' for Active; 'I' for Inactive)
REMARK    1  A    between atoms: C_8  and  C_11
REMARK                            x       y       z     vdW  Elec       q    Type
REMARK                         _______ _______ _______ _____ _____    ______ ____
ROOT
ATOM      1  C   UNL     1       3.262   3.289  -0.012  0.00  0.00    +0.002 A 
ATOM      2  C   UNL     1       4.076   2.171  -0.026  0.00  0.00    +0.004 A 
ATOM      3  C   UNL     1       3.520   0.907  -0.027  0.00  0.00    +0.047 A 
ATOM      4  C   UNL     1       2.140   0.750  -0.014  0.00  0.00    +0.144 A 
ATOM      5  C   UNL     1       1.323   1.875  -0.001  0.00  0.00    +0.072 A 
ATOM      6  C   UNL     1       1.888   3.144   0.001  0.00  0.00    +0.027 A 
ATOM      7  N   UNL     1      -0.018   1.465   0.010  0.00  0.00    -0.302 N 
ATOM      8  C   UNL     1       0.002  -0.004   0.002  0.00  0.00    +0.320 C 
ATOM      9  O   UNL     1       1.382  -0.380  -0.013  0.00  0.00    -0.464 OA
ATOM     10  H   UNL     1      -0.802   2.036   0.017  0.00  0.00    +0.150 HD
ENDROOT
BRANCH   8  11
ATOM     11  C   UNL     1      -0.702  -0.534  -1.249  0.00  0.00    +0.320 C 
ATOM     12  N   UNL     1      -0.787  -1.999  -1.199  0.00  0.00    -0.302 N 
ATOM     13  C   UNL     1      -0.081  -2.472  -2.314  0.00  0.00    +0.072 A 
ATOM     14  C   UNL     1       0.161  -3.764  -2.760  0.00  0.00    +0.027 A 
ATOM     15  C   UNL     1       0.900  -3.974  -3.908  0.00  0.00    +0.002 A 
ATOM     16  C   UNL     1       1.398  -2.896  -4.616  0.00  0.00    +0.004 A 
ATOM     17  C   UNL     1       1.160  -1.607  -4.179  0.00  0.00    +0.047 A 
ATOM     18  C   UNL     1       0.419  -1.386  -3.025  0.00  0.00    +0.144 A 
ATOM     19  O   UNL     1       0.065  -0.223  -2.415  0.00  0.00    -0.464 OA
ATOM     20  H   UNL     1      -1.242  -2.534  -0.529  0.00  0.00    +0.150 HD
ENDBRANCH   8  11
TORSDOF 1
