REMARK  Name = ZINC21246093
REMARK  6 active torsions:
REMARK  status: ('A' for Active; 'I' for Inactive)
REMARK    1  A    between atoms: C_1  and  C_2
REMARK    2  A    between atoms: C_2  and  C_4
REMARK    3  A    between atoms: C_2  and  S_15
REMARK    4  A    between atoms: N_6  and  C_7
REMARK    5  A    between atoms: C_12  and  C_13
REMARK    6  A    between atoms: S_15  and  C_16
REMARK                            x       y       z     vdW  Elec       q    Type
REMARK                         _______ _______ _______ _____ _____    ______ ____
ROOT
ATOM      1  C   UNL     1       2.715   5.944  -1.772  0.00  0.00    +0.192 A 
ATOM      2  N   UNL     1       1.405   5.771  -1.670  0.00  0.00    -0.207 NA
ATOM      3  C   UNL     1       0.838   4.769  -1.004  0.00  0.00    +0.129 A 
ATOM      4  C   UNL     1       1.732   3.851  -0.379  0.00  0.00    +0.051 A 
ATOM      5  C   UNL     1       1.377   2.678   0.405  0.00  0.00    -0.025 A 
ATOM      6  C   UNL     1       2.400   1.949   0.904  0.00  0.00    -0.004 A 
ATOM      7  S   UNL     1       3.873   2.780   0.363  0.00  0.00    -0.073 S 
ATOM      8  C   UNL     1       3.119   4.100  -0.531  0.00  0.00    +0.115 A 
ATOM      9  N   UNL     1       3.603   5.120  -1.211  0.00  0.00    -0.214 NA
ATOM     10  C   UNL     1       2.308   0.707   1.736  0.00  0.00    +0.043 C 
ATOM     11  C   UNL     1       0.870   0.575   2.257  0.00  0.00    +0.005 C 
ATOM     12  C   UNL     1      -0.097   0.796   1.089  0.00  0.00    +0.005 C 
ATOM     13  C   UNL     1      -0.069   2.265   0.665  0.00  0.00    +0.037 C 
ATOM     14  N   UNL     1      -0.535   4.626  -0.922  0.00  0.00    -0.343 N 
ATOM     15  H   UNL     1      -0.968   3.785  -0.362  0.00  0.00    +0.144 HD
ATOM     16  H   UNL     1      -1.194   5.354  -1.418  0.00  0.00    +0.144 HD
ENDROOT
BRANCH   1  17
ATOM     17  S   UNL     1       3.312   7.322  -2.693  0.00  0.00    -0.073 S 
BRANCH  17  19
ATOM     18  C   UNL     1       1.006   7.101  -4.142  0.00  0.00    +0.029 C 
ATOM     19  C   UNL     1       1.741   8.062  -3.205  0.00  0.00    +0.137 C 
BRANCH  19  20
ATOM     20  C   UNL     1       2.007   9.359  -3.925  0.00  0.00    +0.230 C 
ATOM     21  O   UNL     1       3.073   9.540  -4.475  0.00  0.00    -0.274 OA
ATOM     22  N   UNL     1       1.062  10.319  -3.957  0.00  0.00    -0.284 N 
ATOM     23  H   UNL     1       0.069  10.127  -3.523  0.00  0.00    +0.155 HD
BRANCH  22  24
ATOM     24  C   UNL     1       1.341  11.554  -4.540  0.00  0.00    +0.051 A 
ATOM     25  C   UNL     1       2.273  11.646  -5.564  0.00  0.00    +0.024 A 
ATOM     26  C   UNL     1       2.545  12.870  -6.144  0.00  0.00    +0.002 A 
ATOM     27  C   UNL     1       1.899  14.013  -5.703  0.00  0.00    +0.001 A 
ATOM     28  C   UNL     1       0.974  13.941  -4.683  0.00  0.00    +0.021 A 
ATOM     29  C   UNL     1       0.685  12.710  -4.090  0.00  0.00    +0.073 A 
BRANCH  29  30
ATOM     30  C   UNL     1      -0.274  12.628  -3.030  0.00  0.00    +0.101 C 
ATOM     31  N   UNL     1      -1.034  12.563  -2.189  0.00  0.00    -0.191 NA
ENDBRANCH  29  30
ENDBRANCH  22  24
ENDBRANCH  19  20
ENDBRANCH  17  19
ENDBRANCH   1  17
TORSDOF 5
