REMARK  Name = ZINC64742813
REMARK  7 active torsions:
REMARK  status: ('A' for Active; 'I' for Inactive)
REMARK    1  A    between atoms: C_1  and  C_2
REMARK    2  A    between atoms: C_5  and  N_9
REMARK    3  A    between atoms: C_6  and  C_8
REMARK    4  A    between atoms: C_10  and  C_12
REMARK    5  A    between atoms: C_20  and  S_26
REMARK    6  A    between atoms: S_26  and  C_27
REMARK    7  A    between atoms: C_27  and  C_28
REMARK                            x       y       z     vdW  Elec       q    Type
REMARK                         _______ _______ _______ _____ _____    ______ ____
ROOT
ATOM      1  C   UNL     1      -0.098  -6.343  -1.079  0.00  0.00    +0.103 C 
ATOM      2  C   UNL     1      -1.402  -6.770  -0.402  0.00  0.00    +0.110 C 
ATOM      3  C   UNL     1      -1.654  -8.236  -0.598  0.00  0.00    +0.219 C 
ATOM      4  O   UNL     1      -2.422  -8.791   0.158  0.00  0.00    -0.275 OA
ATOM      5  N   UNL     1      -1.077  -8.966  -1.562  0.00  0.00    -0.273 N 
ATOM      6  C   UNL     1      -0.144  -8.416  -2.395  0.00  0.00    +0.117 C 
ATOM      7  N   UNL     1       0.673  -9.172  -3.071  0.00  0.00    -0.212 NA
ATOM      8  C   UNL     1       1.671  -8.666  -3.806  0.00  0.00    +0.182 C 
ATOM      9  N   UNL     1       1.919  -7.364  -3.858  0.00  0.00    -0.154 NA
ATOM     10  C   UNL     1       1.143  -6.483  -3.245  0.00  0.00    +0.249 C 
ATOM     11  O   UNL     1       1.431  -5.303  -3.287  0.00  0.00    -0.273 OA
ATOM     12  C   UNL     1      -0.082  -6.914  -2.500  0.00  0.00    +0.153 C 
ATOM     13  H   UNL     1      -1.325  -9.898  -1.670  0.00  0.00    +0.156 HD
ENDROOT
BRANCH   1  15
ATOM     14  N   UNL     1       0.658  -4.162  -0.191  0.00  0.00    -0.285 N 
ATOM     15  C   UNL     1      -0.024  -4.839  -1.136  0.00  0.00    +0.222 C 
ATOM     16  O   UNL     1      -0.578  -4.237  -2.031  0.00  0.00    -0.275 OA
ATOM     17  H   UNL     1       1.154  -4.644   0.489  0.00  0.00    +0.155 HD
BRANCH  14  22
ATOM     18  C   UNL     1       0.629   1.512  -0.190  0.00  0.00    +0.044 C 
ATOM     19  C   UNL     1       0.636   0.004  -0.190  0.00  0.00    -0.050 A 
ATOM     20  C   UNL     1       0.613  -0.685  -1.389  0.00  0.00    +0.005 A 
ATOM     21  C   UNL     1       0.620  -2.066  -1.392  0.00  0.00    +0.024 A 
ATOM     22  C   UNL     1       0.651  -2.762  -0.191  0.00  0.00    +0.036 A 
ATOM     23  C   UNL     1       0.676  -2.067   1.011  0.00  0.00    -0.029 A 
ATOM     24  C   UNL     1       0.673  -0.685   1.007  0.00  0.00    +0.008 A 
ATOM     25  C   UNL     1       0.711  -2.818   2.317  0.00  0.00    +0.045 C 
ENDBRANCH  14  22
ENDBRANCH   1  15
BRANCH   8  26
ATOM     26  S   UNL     1       2.689  -9.765  -4.733  0.00  0.00    -0.084 S 
BRANCH  26  27
ATOM     27  C   UNL     1       3.881  -8.672  -5.556  0.00  0.00    +0.112 C 
BRANCH  27  28
ATOM     28  C   UNL     1       4.824  -9.496  -6.393  0.00  0.00    -0.034 A 
ATOM     29  C   UNL     1       5.994  -9.982  -5.840  0.00  0.00    +0.004 A 
ATOM     30  C   UNL     1       6.861 -10.738  -6.607  0.00  0.00    +0.003 A 
ATOM     31  C   UNL     1       6.558 -11.009  -7.928  0.00  0.00    +0.038 A 
ATOM     32  C   UNL     1       5.386 -10.524  -8.483  0.00  0.00    +0.124 A 
ATOM     33  C   UNL     1       4.516  -9.771  -7.712  0.00  0.00    +0.042 A 
ATOM     34  F   UNL     1       5.089 -10.788  -9.774  0.00  0.00    -0.205 F 
ENDBRANCH  27  28
ENDBRANCH  26  27
ENDBRANCH   8  26
TORSDOF 5
