REMARK  Name = ZINC09292103
REMARK  8 active torsions:
REMARK  status: ('A' for Active; 'I' for Inactive)
REMARK    1  A    between atoms: C_1  and  C_2
REMARK    2  A    between atoms: C_5  and  C_7
REMARK    3  A    between atoms: C_10  and  C_21
REMARK    4  A    between atoms: C_16  and  N_20
REMARK    5  A    between atoms: C_17  and  C_18
REMARK    6  A    between atoms: C_24  and  O_27
REMARK    7  A    between atoms: O_27  and  C_28
REMARK    8  A    between atoms: C_28  and  C_29
REMARK                            x       y       z     vdW  Elec       q    Type
REMARK                         _______ _______ _______ _____ _____    ______ ____
ROOT
ATOM      1  C   UNL     1       1.033  -4.195  -0.036  0.00  0.00    +0.108 C 
ATOM      2  C   UNL     1       1.997  -4.308   1.117  0.00  0.00    +0.055 A 
ATOM      3  C   UNL     1       1.733  -4.353   2.489  0.00  0.00    +0.100 A 
ATOM      4  N   UNL     1       2.887  -4.454   3.121  0.00  0.00    -0.171 NA
ATOM      5  N   UNL     1       3.914  -4.477   2.165  0.00  0.00    -0.246 N 
ATOM      6  H   UNL     1       4.864  -4.546   2.350  0.00  0.00    +0.192 HD
ATOM      7  C   UNL     1       3.348  -4.388   0.943  0.00  0.00    +0.223 A 
ATOM      8  O   UNL     1       3.931  -4.373  -0.281  0.00  0.00    -0.423 OA
ATOM      9  C   UNL     1       3.135  -4.554  -1.355  0.00  0.00    +0.200 C 
ATOM     10  C   UNL     1       1.785  -4.488  -1.310  0.00  0.00    +0.099 C 
ENDROOT
BRANCH   1  15
ATOM     11  C   UNL     1      -0.151   1.341  -0.243  0.00  0.00    +0.051 C 
ATOM     12  C   UNL     1      -0.098  -0.164  -0.188  0.00  0.00    -0.013 A 
ATOM     13  C   UNL     1      -1.119  -1.055  -0.162  0.00  0.00    +0.011 A 
ATOM     14  C   UNL     1      -0.830  -2.405  -0.112  0.00  0.00    +0.012 A 
ATOM     15  C   UNL     1       0.466  -2.800  -0.090  0.00  0.00    +0.003 A 
ATOM     16  S   UNL     1       1.329  -1.238  -0.147  0.00  0.00    -0.097 S 
ENDBRANCH   1  15
BRANCH   3  17
ATOM     17  C   UNL     1       0.393  -4.295   3.123  0.00  0.00    +0.003 A 
ATOM     18  C   UNL     1      -0.668  -5.017   2.580  0.00  0.00    +0.013 A 
ATOM     19  C   UNL     1      -1.913  -4.962   3.171  0.00  0.00    +0.046 A 
ATOM     20  C   UNL     1      -2.110  -4.188   4.306  0.00  0.00    +0.121 A 
ATOM     21  C   UNL     1      -1.055  -3.466   4.849  0.00  0.00    +0.046 A 
ATOM     22  C   UNL     1       0.193  -3.523   4.266  0.00  0.00    +0.013 A 
BRANCH  20  23
ATOM     23  O   UNL     1      -3.337  -4.135   4.887  0.00  0.00    -0.487 OA
BRANCH  23  24
ATOM     24  C   UNL     1      -3.469  -3.318   6.052  0.00  0.00    +0.264 C 
BRANCH  24  25
ATOM     25  C   UNL     1      -4.889  -3.383   6.553  0.00  0.00    -0.010 A 
ATOM     26  C   UNL     1      -5.827  -2.479   6.089  0.00  0.00    +0.007 A 
ATOM     27  C   UNL     1      -7.130  -2.539   6.548  0.00  0.00    +0.000 A 
ATOM     28  C   UNL     1      -7.495  -3.502   7.470  0.00  0.00    +0.000 A 
ATOM     29  C   UNL     1      -6.557  -4.406   7.933  0.00  0.00    +0.000 A 
ATOM     30  C   UNL     1      -5.255  -4.350   7.471  0.00  0.00    +0.007 A 
ENDBRANCH  24  25
ENDBRANCH  23  24
ENDBRANCH  20  23
ENDBRANCH   3  17
BRANCH   9  31
ATOM     31  N   UNL     1       3.729  -4.822  -2.563  0.00  0.00    -0.328 N 
ATOM     32  H   UNL     1       4.696  -4.876  -2.626  0.00  0.00    +0.145 HD
ATOM     33  H   UNL     1       3.183  -4.957  -3.353  0.00  0.00    +0.145 HD
ENDBRANCH   9  31
BRANCH  10  34
ATOM     34  C   UNL     1       1.042  -4.704  -2.515  0.00  0.00    +0.101 C 
ATOM     35  N   UNL     1       0.453  -4.875  -3.472  0.00  0.00    -0.191 NA
ENDBRANCH  10  34
TORSDOF 7
