REMARK  Name = ZINC02196000
REMARK  5 active torsions:
REMARK  status: ('A' for Active; 'I' for Inactive)
REMARK    1  A    between atoms: C_9  and  S_22
REMARK    2  A    between atoms: C_10  and  N_21
REMARK    3  A    between atoms: N_11  and  C_14
REMARK    4  A    between atoms: C_14  and  C_15
REMARK    5  A    between atoms: S_22  and  C_25
REMARK                            x       y       z     vdW  Elec       q    Type
REMARK                         _______ _______ _______ _____ _____    ______ ____
ROOT
ATOM      1  C   UNL     1       5.018   5.224  -0.018  0.00  0.00    +0.002 A 
ATOM      2  C   UNL     1       5.491   3.913  -0.030  0.00  0.00    +0.002 A 
ATOM      3  C   UNL     1       4.631   2.858  -0.027  0.00  0.00    +0.030 A 
ATOM      4  C   UNL     1       3.243   3.086  -0.013  0.00  0.00    +0.092 A 
ATOM      5  C   UNL     1       2.761   4.420  -0.001  0.00  0.00    +0.090 A 
ATOM      6  C   UNL     1       3.683   5.485  -0.004  0.00  0.00    +0.030 A 
ATOM      7  N   UNL     1       1.447   4.666   0.013  0.00  0.00    -0.240 NA
ATOM      8  C   UNL     1       0.593   3.655   0.015  0.00  0.00    +0.135 A 
ATOM      9  C   UNL     1      -0.819   3.555   0.028  0.00  0.00    +0.160 A 
ATOM     10  C   UNL     1      -1.146   2.241   0.019  0.00  0.00    +0.126 A 
ATOM     11  N   UNL     1      -0.018   1.461   0.010  0.00  0.00    -0.309 N 
ATOM     12  C   UNL     1       1.094   2.276   0.004  0.00  0.00    +0.163 A 
ATOM     13  N   UNL     1       2.390   2.054  -0.009  0.00  0.00    -0.226 NA
ENDROOT
BRANCH  10  14
ATOM     14  N   UNL     1      -2.441   1.753   0.023  0.00  0.00    -0.343 N 
ATOM     15  H   UNL     1      -2.598   0.796   0.019  0.00  0.00    +0.144 HD
ATOM     16  H   UNL     1      -3.191   2.368   0.029  0.00  0.00    +0.144 HD
ENDBRANCH  10  14
BRANCH   9  17
ATOM     17  S   UNL     1      -1.952   4.904   0.044  0.00  0.00    +0.030 S 
ATOM     18  O   UNL     1      -3.162   4.411   0.604  0.00  0.00    -0.164 OA
ATOM     19  O   UNL     1      -1.255   6.013   0.595  0.00  0.00    -0.164 OA
BRANCH  17  20
ATOM     20  C   UNL     1      -2.302   5.312  -1.634  0.00  0.00    +0.094 A 
ATOM     21  C   UNL     1      -1.526   6.246  -2.294  0.00  0.00    +0.029 A 
ATOM     22  C   UNL     1      -1.797   6.562  -3.612  0.00  0.00    +0.022 A 
ATOM     23  C   UNL     1      -2.852   5.951  -4.267  0.00  0.00    +0.041 A 
ATOM     24  C   UNL     1      -3.631   5.020  -3.604  0.00  0.00    +0.022 A 
ATOM     25  C   UNL     1      -3.356   4.701  -2.288  0.00  0.00    +0.029 A 
ATOM     26 CL   UNL     1      -3.197   6.353  -5.920  0.00  0.00    -0.084 Cl
ENDBRANCH  17  20
ENDBRANCH   9  17
BRANCH  11  27
ATOM     27  C   UNL     1       0.002  -0.004   0.002  0.00  0.00    +0.156 C 
BRANCH  27  28
ATOM     28  C   UNL     1       0.022  -0.522   1.442  0.00  0.00    +0.138 C 
ATOM     29  C   UNL     1      -0.012  -2.071   1.457  0.00  0.00    +0.035 C 
ATOM     30  C   UNL     1       0.648  -2.367   2.831  0.00  0.00    +0.031 C 
ATOM     31  C   UNL     1       1.679  -1.224   2.953  0.00  0.00    +0.160 C 
ATOM     32  O   UNL     1       1.258  -0.167   2.082  0.00  0.00    -0.375 OA
ENDBRANCH  27  28
ENDBRANCH  11  27
TORSDOF 5
