REMARK  Name = ZINC24033758
REMARK  5 active torsions:
REMARK  status: ('A' for Active; 'I' for Inactive)
REMARK    1  A    between atoms: C_3  and  C_14
REMARK    2  A    between atoms: C_5  and  N_7
REMARK    3  A    between atoms: N_16  and  C_17
REMARK    4  A    between atoms: C_21  and  N_23
REMARK    5  A    between atoms: C_24  and  C_26
REMARK                            x       y       z     vdW  Elec       q    Type
REMARK                         _______ _______ _______ _____ _____    ______ ____
ROOT
ATOM      1  C   UNL     1       3.651   2.189  -0.008  0.00  0.00    +0.248 C 
ATOM      2  O   UNL     1       4.712   1.596  -0.008  0.00  0.00    -0.270 OA
ATOM      3  N   UNL     1       3.633   3.537  -0.014  0.00  0.00    -0.281 N 
ATOM      4  H   UNL     1       2.789   4.010  -0.081  0.00  0.00    +0.155 HD
ENDROOT
BRANCH   1   7
ATOM      5  C   UNL     1      -0.023   1.404   0.003  0.00  0.00    +0.003 A 
ATOM      6  C   UNL     1       1.162   2.112  -0.002  0.00  0.00    +0.013 A 
ATOM      7  C   UNL     1       2.381   1.433  -0.002  0.00  0.00    +0.039 A 
ATOM      8  C   UNL     1       2.397   0.038   0.003  0.00  0.00    +0.037 A 
ATOM      9  C   UNL     1       1.202  -0.664   0.008  0.00  0.00    +0.052 A 
ATOM     10  C   UNL     1      -0.007   0.022   0.008  0.00  0.00    +0.025 A 
BRANCH   9  11
ATOM     11  N   UNL     1       1.212  -2.061   0.013  0.00  0.00    -0.207 N 
ATOM     12  C   UNL     1       2.287  -2.943  -0.478  0.00  0.00    +0.133 C 
ATOM     13  C   UNL     1       2.301  -4.273   0.298  0.00  0.00    +0.045 C 
ATOM     14  C   UNL     1       0.810  -4.719   0.364  0.00  0.00    +0.190 C 
ATOM     15  S   UNL     1       0.009  -3.078   0.585  0.00  0.00    +0.046 S 
ATOM     16  O   UNL     1      -0.129  -2.765   1.964  0.00  0.00    -0.155 OA
ATOM     17  O   UNL     1      -1.078  -2.925  -0.318  0.00  0.00    -0.155 OA
ENDBRANCH   9  11
ENDBRANCH   1   7
BRANCH   3  18
ATOM     18  C   UNL     1       4.831   4.253   0.078  0.00  0.00    +0.035 A 
ATOM     19  C   UNL     1       4.872   5.454   0.777  0.00  0.00    +0.023 A 
ATOM     20  C   UNL     1       6.055   6.161   0.868  0.00  0.00    +0.004 A 
ATOM     21  C   UNL     1       7.200   5.678   0.265  0.00  0.00    +0.023 A 
ATOM     22  C   UNL     1       7.166   4.479  -0.435  0.00  0.00    +0.035 A 
ATOM     23  C   UNL     1       5.981   3.762  -0.523  0.00  0.00    +0.046 A 
BRANCH  22  24
ATOM     24  N   UNL     1       8.326   3.991  -1.045  0.00  0.00    -0.281 N 
ATOM     25  C   UNL     1       9.526   4.184  -0.463  0.00  0.00    +0.255 C 
ATOM     26  O   UNL     1       9.611   4.854   0.550  0.00  0.00    -0.269 OA
ATOM     27  H   UNL     1       8.267   3.514  -1.888  0.00  0.00    +0.155 HD
BRANCH  25  28
ATOM     28  C   UNL     1      10.729   3.587  -1.049  0.00  0.00    +0.074 A 
ATOM     29  C   UNL     1      12.043   3.657  -0.609  0.00  0.00    +0.021 A 
ATOM     30  C   UNL     1      12.966   2.987  -1.376  0.00  0.00    +0.008 A 
ATOM     31  C   UNL     1      12.546   2.320  -2.480  0.00  0.00    +0.046 A 
ATOM     32  S   UNL     1      10.885   2.575  -2.508  0.00  0.00    -0.092 S 
ENDBRANCH  25  28
ENDBRANCH  22  24
ENDBRANCH   3  18
TORSDOF 5
