REMARK  Name = ZINC23302782
REMARK  10 active torsions:
REMARK  status: ('A' for Active; 'I' for Inactive)
REMARK    1  A    between atoms: C_1  and  C_2
REMARK    2  A    between atoms: C_6  and  C_36
REMARK    3  A    between atoms: C_7  and  N_8
REMARK    4  A    between atoms: C_9  and  C_11
REMARK    5  A    between atoms: C_11  and  N_12
REMARK    6  A    between atoms: N_15  and  C_18
REMARK    7  A    between atoms: C_18  and  C_19
REMARK    8  A    between atoms: N_21  and  C_22
REMARK    9  A    between atoms: C_22  and  C_24
REMARK   10  A    between atoms: C_22  and  C_31
REMARK                            x       y       z     vdW  Elec       q    Type
REMARK                         _______ _______ _______ _____ _____    ______ ____
ROOT
ATOM      1  N   UNL     1      -0.231  -0.749   5.981  0.00  0.00    +0.387 N 
ATOM      2  C   UNL     1       0.979  -1.575   6.088  0.00  0.00    -0.063 C 
ATOM      3  C   UNL     1       0.825  -2.556   7.252  0.00  0.00    +0.066 C 
ATOM      4  N   UNL     1       0.612  -1.806   8.497  0.00  0.00    -0.298 NA
ATOM      5  C   UNL     1      -0.582  -0.955   8.396  0.00  0.00    +0.066 C 
ATOM      6  C   UNL     1      -0.417   0.014   7.222  0.00  0.00    -0.063 C 
ATOM      7  H   UNL     1      -1.031  -1.343   5.828  0.00  0.00    -0.081 HD
ENDROOT
BRANCH   1   8
ATOM      8  C   UNL     1      -0.090   0.181   4.852  0.00  0.00    +0.019 C 
BRANCH   8  10
ATOM      9  N   UNL     1       0.108   0.050   2.390  0.00  0.00    -0.287 N 
ATOM     10  C   UNL     1      -0.022  -0.598   3.564  0.00  0.00    +0.201 C 
ATOM     11  O   UNL     1      -0.085  -1.810   3.584  0.00  0.00    -0.278 OA
ATOM     12  H   UNL     1       0.224   1.013   2.378  0.00  0.00    +0.155 HD
BRANCH   9  19
ATOM     13  C   UNL     1       2.558  -0.356   1.002  0.00  0.00    +0.045 C 
ATOM     14  C   UNL     1       1.249  -0.887   0.479  0.00  0.00    -0.029 A 
ATOM     15  C   UNL     1       1.214  -1.599  -0.704  0.00  0.00    +0.005 A 
ATOM     16  C   UNL     1       0.013  -2.087  -1.185  0.00  0.00    +0.001 A 
ATOM     17  C   UNL     1      -1.158  -1.863  -0.484  0.00  0.00    +0.005 A 
ATOM     18  C   UNL     1      -1.130  -1.152   0.700  0.00  0.00    -0.029 A 
ATOM     19  C   UNL     1       0.075  -0.666   1.188  0.00  0.00    +0.039 A 
ATOM     20  C   UNL     1      -2.406  -0.908   1.463  0.00  0.00    +0.045 C 
ENDBRANCH   9  19
ENDBRANCH   8  10
ENDBRANCH   1   8
BRANCH   4  21
ATOM     21  C   UNL     1       0.516  -2.713   9.649  0.00  0.00    +0.180 C 
BRANCH  21  22
ATOM     22  C   UNL     1       0.545  -1.910  10.924  0.00  0.00    +0.228 C 
ATOM     23  O   UNL     1       0.636  -0.702  10.878  0.00  0.00    -0.274 OA
ATOM     24  N   UNL     1       0.469  -2.535  12.115  0.00  0.00    -0.303 N 
ATOM     25  H   UNL     1       0.396  -3.502  12.152  0.00  0.00    +0.150 HD
BRANCH  24  26
ATOM     26  C   UNL     1       0.497  -1.755  13.355  0.00  0.00    +0.140 C 
BRANCH  26  27
ATOM     27  C   UNL     1       1.007  -2.619  14.480  0.00  0.00    -0.022 A 
ATOM     28  C   UNL     1       0.617  -3.942  14.567  0.00  0.00    +0.008 A 
ATOM     29  C   UNL     1       1.084  -4.734  15.598  0.00  0.00    +0.038 A 
ATOM     30  C   UNL     1       1.945  -4.202  16.544  0.00  0.00    +0.123 A 
ATOM     31  C   UNL     1       2.335  -2.877  16.456  0.00  0.00    +0.038 A 
ATOM     32  C   UNL     1       1.870  -2.088  15.421  0.00  0.00    +0.008 A 
ATOM     33  F   UNL     1       2.402  -4.976  17.553  0.00  0.00    -0.205 F 
ENDBRANCH  26  27
BRANCH  26  34
ATOM     34  C   UNL     1      -0.895  -1.278  13.680  0.00  0.00    +0.014 A 
ATOM     35  C   UNL     1      -1.294  -0.076  14.164  0.00  0.00    +0.013 A 
ATOM     36  C   UNL     1      -2.640   0.142  14.388  0.00  0.00    +0.008 A 
ATOM     37  C   UNL     1      -3.522  -0.851  14.117  0.00  0.00    +0.045 A 
ATOM     38  S   UNL     1      -2.447  -2.146  13.520  0.00  0.00    -0.099 S 
ENDBRANCH  26  34
ENDBRANCH  24  26
ENDBRANCH  21  22
ENDBRANCH   4  21
TORSDOF 8
