REMARK  Name = ZINC16611032
REMARK  10 active torsions:
REMARK  status: ('A' for Active; 'I' for Inactive)
REMARK    1  A    between atoms: C_1  and  C_2
REMARK    2  A    between atoms: C_2  and  N_3
REMARK    3  A    between atoms: C_4  and  C_33
REMARK    4  A    between atoms: C_5  and  C_28
REMARK    5  A    between atoms: C_6  and  C_11
REMARK    6  A    between atoms: C_15  and  N_17
REMARK    7  A    between atoms: N_20  and  C_21
REMARK    8  A    between atoms: C_28  and  O_30
REMARK    9  A    between atoms: O_30  and  C_31
REMARK   10  A    between atoms: C_31  and  C_32
REMARK                            x       y       z     vdW  Elec       q    Type
REMARK                         _______ _______ _______ _____ _____    ______ ____
ROOT
ATOM      1  C   UNL     1       4.713   8.246   0.178  0.00  0.00    -0.021 A 
ATOM      2  C   UNL     1       5.921   7.573   0.175  0.00  0.00    +0.006 A 
ATOM      3  C   UNL     1       5.946   6.191   0.164  0.00  0.00    +0.002 A 
ATOM      4  C   UNL     1       4.763   5.478   0.160  0.00  0.00    +0.023 A 
ATOM      5  C   UNL     1       3.549   6.150   0.158  0.00  0.00    +0.035 A 
ATOM      6  C   UNL     1       3.527   7.539   0.170  0.00  0.00    +0.029 A 
ENDROOT
BRANCH   1  10
ATOM      7  N   UNL     1       6.768  11.408   0.962  0.00  0.00    -0.286 N 
ATOM      8  C   UNL     1       5.882  11.018   1.924  0.00  0.00    +0.021 C 
ATOM      9  C   UNL     1       4.841  10.211   1.627  0.00  0.00    +0.078 C 
ATOM     10  C   UNL     1       4.691   9.753   0.190  0.00  0.00    +0.141 C 
ATOM     11  N   UNL     1       5.700  10.230  -0.770  0.00  0.00    -0.315 N 
ATOM     12  C   UNL     1       6.683  11.034  -0.321  0.00  0.00    +0.138 C 
ATOM     13  S   UNL     1       7.864  11.597  -1.426  0.00  0.00    -0.018 S 
ATOM     14  C   UNL     1       6.069  11.496   3.341  0.00  0.00    +0.061 C 
ATOM     15  H   UNL     1       5.658   9.972  -1.704  0.00  0.00    +0.149 HD
BRANCH   7  17
ATOM     16  C   UNL     1       7.404  13.740   1.333  0.00  0.00    +0.025 C 
ATOM     17  C   UNL     1       7.874  12.284   1.355  0.00  0.00    +0.109 C 
ENDBRANCH   7  17
BRANCH   9  18
ATOM     18  C   UNL     1       3.923   9.806   2.623  0.00  0.00    +0.339 C 
ATOM     19  O   UNL     1       4.064  10.186   3.771  0.00  0.00    -0.245 OA
BRANCH  18  20
ATOM     20  O   UNL     1       2.890   8.999   2.301  0.00  0.00    -0.462 OA
BRANCH  20  21
ATOM     21  C   UNL     1       2.002   8.630   3.358  0.00  0.00    +0.229 C 
ATOM     22  C   UNL     1       0.903   7.719   2.806  0.00  0.00    +0.048 C 
ENDBRANCH  20  21
ENDBRANCH  18  20
ENDBRANCH   9  18
ENDBRANCH   1  10
BRANCH   5  23
ATOM     23  N   UNL     1       2.349   5.430   0.150  0.00  0.00    -0.269 N 
ATOM     24  C   UNL     1       2.263   4.270  -0.530  0.00  0.00    +0.308 C 
ATOM     25  O   UNL     1       3.251   3.806  -1.067  0.00  0.00    -0.252 OA
ATOM     26  N   UNL     1       1.083   3.624  -0.615  0.00  0.00    -0.269 N 
ATOM     27  H   UNL     1       1.578   5.767   0.634  0.00  0.00    +0.156 HD
ATOM     28  H   UNL     1       0.282   4.026  -0.244  0.00  0.00    +0.156 HD
BRANCH  26  29
ATOM     29  C   UNL     1       1.014   2.372  -1.238  0.00  0.00    +0.035 A 
ATOM     30  C   UNL     1       0.139   1.405  -0.761  0.00  0.00    +0.024 A 
ATOM     31  C   UNL     1       0.073   0.172  -1.378  0.00  0.00    +0.017 A 
ATOM     32  C   UNL     1       0.876  -0.101  -2.470  0.00  0.00    +0.018 A 
ATOM     33  C   UNL     1       1.749   0.860  -2.947  0.00  0.00    +0.017 A 
ATOM     34  C   UNL     1       1.820   2.096  -2.334  0.00  0.00    +0.024 A 
ATOM     35 BR   UNL     1       0.782  -1.792  -3.312  0.00  0.00    -0.050 Br
ENDBRANCH  26  29
ENDBRANCH   5  23
TORSDOF 7
