REMARK  Name = ZINC12878223
REMARK  8 active torsions:
REMARK  status: ('A' for Active; 'I' for Inactive)
REMARK    1  A    between atoms: C_1  and  C_2
REMARK    2  A    between atoms: C_13  and  C_14
REMARK    3  A    between atoms: C_13  and  O_15
REMARK    4  A    between atoms: N_21  and  O_22
REMARK    5  A    between atoms: O_22  and  C_23
REMARK    6  A    between atoms: C_23  and  C_24
REMARK    7  A    between atoms: C_30  and  C_32
REMARK    8  A    between atoms: C_36  and  C_37
REMARK                            x       y       z     vdW  Elec       q    Type
REMARK                         _______ _______ _______ _____ _____    ______ ____
ROOT
ATOM      1  C   UNL     1      -9.823  10.881  -6.460  0.00  0.00    +0.014 C 
ATOM      2  C   UNL     1      -8.447  11.532  -6.614  0.00  0.00    -0.000 C 
ATOM      3  C   UNL     1      -7.456  10.516  -7.150  0.00  0.00    +0.010 C 
ATOM      4  C   UNL     1      -7.495   9.302  -6.208  0.00  0.00    +0.005 C 
ATOM      5  C   UNL     1      -7.184   9.679  -4.763  0.00  0.00    +0.006 C 
ATOM      6  C   UNL     1      -8.087  10.823  -4.274  0.00  0.00    -0.003 C 
ATOM      7  C   UNL     1      -7.925  11.994  -5.227  0.00  0.00    +0.001 C 
ATOM      8  C   UNL     1      -8.817  13.209  -4.949  0.00  0.00    +0.007 C 
ATOM      9  C   UNL     1      -8.872  13.922  -6.327  0.00  0.00    +0.035 C 
ATOM     10  C   UNL     1      -8.576  12.837  -7.393  0.00  0.00    +0.069 C 
ATOM     11  C   UNL     1      -7.268  13.150  -8.122  0.00  0.00    +0.042 C 
ATOM     12  C   UNL     1      -7.668  11.241  -2.863  0.00  0.00    +0.008 C 
ATOM     13  C   UNL     1      -7.891  10.077  -1.893  0.00  0.00    +0.032 C 
ATOM     14  C   UNL     1      -7.142   8.869  -2.425  0.00  0.00    -0.058 C 
ATOM     15  C   UNL     1      -6.311   8.229  -1.621  0.00  0.00    +0.031 C 
ATOM     16  C   UNL     1      -5.535   7.073  -2.112  0.00  0.00    +0.102 C 
ATOM     17  N   UNL     1      -4.735   6.417  -1.316  0.00  0.00    -0.085 NA
ATOM     18  C   UNL     1      -5.690   6.673  -3.527  0.00  0.00    +0.027 C 
ATOM     19  C   UNL     1      -6.535   7.324  -4.303  0.00  0.00    -0.014 C 
ATOM     20  C   UNL     1      -7.380   8.465  -3.849  0.00  0.00    +0.011 C 
ATOM     21  C   UNL     1      -8.845   8.041  -3.977  0.00  0.00    +0.020 C 
ENDROOT
BRANCH  10  22
ATOM     22  O   UNL     1      -9.654  12.752  -8.326  0.00  0.00    -0.388 OA
ATOM     23  H   UNL     1      -9.784  13.554  -8.851  0.00  0.00    +0.210 HD
ENDBRANCH  10  22
BRANCH  17  24
ATOM     24  O   UNL     1      -4.003   5.308  -1.804  0.00  0.00    -0.384 OA
BRANCH  24  25
ATOM     25  C   UNL     1      -3.169   4.685  -0.824  0.00  0.00    +0.358 C 
BRANCH  25  26
ATOM     26  C   UNL     1      -2.441   3.523  -1.450  0.00  0.00    +0.257 C 
ATOM     27  O   UNL     1      -2.619   3.255  -2.619  0.00  0.00    -0.272 OA
ATOM     28  N   UNL     1      -1.592   2.783  -0.710  0.00  0.00    -0.285 N 
ATOM     29  C   UNL     1      -1.283   2.998   0.716  0.00  0.00    +0.109 C 
ATOM     30  C   UNL     1      -0.802   1.617   1.234  0.00  0.00    +0.021 C 
ATOM     31  C   UNL     1      -0.013   1.086   0.008  0.00  0.00    +0.035 C 
ATOM     32  C   UNL     1      -0.821   1.627  -1.190  0.00  0.00    +0.189 C 
BRANCH  32  33
ATOM     33  C   UNL     1       0.117   2.058  -2.288  0.00  0.00    +0.376 C 
ATOM     34  O   UNL     1       0.388   3.228  -2.427  0.00  0.00    -0.244 OA
ATOM     35  O   UNL     1       0.652   1.143  -3.112  0.00  0.00    -0.244 OA
ENDBRANCH  32  33
ENDBRANCH  25  26
ENDBRANCH  24  25
ENDBRANCH  17  24
TORSDOF 5
