REMARK  Name = ZINC37928293
REMARK  5 active torsions:
REMARK  status: ('A' for Active; 'I' for Inactive)
REMARK    1  A    between atoms: C_1  and  C_2
REMARK    2  A    between atoms: C_7  and  N_8
REMARK    3  A    between atoms: N_8  and  S_9
REMARK    4  A    between atoms: S_9  and  C_12
REMARK    5  A    between atoms: C_15  and  N_19
REMARK                            x       y       z     vdW  Elec       q    Type
REMARK                         _______ _______ _______ _____ _____    ______ ____
ROOT
ATOM      1  S   UNL     1       0.764  -0.675   3.743  0.00  0.00    +0.078 S 
ATOM      2  O   UNL     1       0.519   0.210   4.827  0.00  0.00    -0.150 OA
ATOM      3  O   UNL     1       0.387  -2.045   3.777  0.00  0.00    -0.150 OA
ENDROOT
BRANCH   1   4
ATOM      4  C   UNL     1       2.500  -0.638   3.445  0.00  0.00    +0.179 A 
ATOM      5  C   UNL     1       3.117  -1.707   2.817  0.00  0.00    +0.154 A 
ATOM      6  C   UNL     1       4.480  -1.680   2.583  0.00  0.00    +0.063 A 
ATOM      7  C   UNL     1       5.230  -0.580   2.977  0.00  0.00    +0.030 A 
ATOM      8  C   UNL     1       4.609   0.492   3.605  0.00  0.00    +0.063 A 
ATOM      9  C   UNL     1       3.245   0.463   3.833  0.00  0.00    +0.154 A 
ATOM     10  F   UNL     1       2.639   1.507   4.440  0.00  0.00    -0.203 F 
ATOM     11  F   UNL     1       2.387  -2.777   2.434  0.00  0.00    -0.203 F 
BRANCH   7  12
ATOM     12  N   UNL     1       6.606  -0.551   2.741  0.00  0.00    -0.358 N 
ATOM     13  H   UNL     1       7.039  -1.299   2.302  0.00  0.00    +0.142 HD
ATOM     14  H   UNL     1       7.129   0.218   3.017  0.00  0.00    +0.142 HD
ENDBRANCH   7  12
ENDBRANCH   1   4
BRANCH   1  15
ATOM     15  N   UNL     1       0.025  -0.014   2.416  0.00  0.00    -0.216 N 
ATOM     16  H   UNL     1      -0.518   0.784   2.510  0.00  0.00    +0.174 HD
BRANCH  15  23
ATOM     17  C   UNL     1       0.166   1.685   0.139  0.00  0.00    +0.046 C 
ATOM     18  C   UNL     1       0.258   0.185   0.021  0.00  0.00    -0.025 A 
ATOM     19  C   UNL     1       0.421  -0.402  -1.218  0.00  0.00    +0.043 A 
ATOM     20  C   UNL     1       0.505  -1.780  -1.327  0.00  0.00    +0.124 A 
ATOM     21  C   UNL     1       0.427  -2.572  -0.194  0.00  0.00    +0.040 A 
ATOM     22  C   UNL     1       0.263  -1.989   1.047  0.00  0.00    +0.027 A 
ATOM     23  C   UNL     1       0.184  -0.607   1.159  0.00  0.00    +0.051 A 
ATOM     24  F   UNL     1       0.665  -2.352  -2.540  0.00  0.00    -0.205 F 
ENDBRANCH  15  23
ENDBRANCH   1  15
TORSDOF 4
