REMARK  Name = ZINC62998006
REMARK  7 active torsions:
REMARK  status: ('A' for Active; 'I' for Inactive)
REMARK    1  A    between atoms: C_1  and  C_2
REMARK    2  A    between atoms: C_4  and  N_21
REMARK    3  A    between atoms: C_5  and  C_20
REMARK    4  A    between atoms: C_7  and  O_8
REMARK    5  A    between atoms: O_8  and  C_9
REMARK    6  A    between atoms: C_11  and  C_19
REMARK    7  A    between atoms: C_12  and  C_18
REMARK                            x       y       z     vdW  Elec       q    Type
REMARK                         _______ _______ _______ _____ _____    ______ ____
ROOT
ATOM      1  O   UNL     1       0.025  -0.030   2.381  0.00  0.00    -0.437 OA
ENDROOT
BRANCH   1   2
ATOM      2  C   UNL     1      -0.059  -0.750   3.524  0.00  0.00    +0.232 A 
ATOM      3  C   UNL     1      -0.174  -0.096   4.779  0.00  0.00    +0.073 A 
ATOM      4  C   UNL     1      -0.223   1.323   5.086  0.00  0.00    -0.026 A 
ATOM      5  C   UNL     1      -0.336   1.713   6.365  0.00  0.00    -0.008 A 
ATOM      6  S   UNL     1      -0.386   0.176   7.267  0.00  0.00    -0.073 S 
ATOM      7  C   UNL     1      -0.254  -0.949   5.902  0.00  0.00    +0.116 A 
ATOM      8  N   UNL     1      -0.221  -2.260   5.773  0.00  0.00    -0.228 NA
ATOM      9  C   UNL     1      -0.113  -2.809   4.578  0.00  0.00    +0.226 A 
ATOM     10  N   UNL     1      -0.040  -2.071   3.485  0.00  0.00    -0.201 NA
ATOM     11  C   UNL     1      -0.404   3.116   6.909  0.00  0.00    +0.052 C 
ATOM     12  C   UNL     1      -0.147   2.345   3.982  0.00  0.00    +0.045 C 
ENDBRANCH   1   2
BRANCH   1  19
ATOM     13  C   UNL     1       2.522  -0.946   1.438  0.00  0.00    +0.047 C 
ATOM     14  C   UNL     1       1.236  -1.179   0.687  0.00  0.00    -0.006 A 
ATOM     15  C   UNL     1       1.251  -1.869  -0.510  0.00  0.00    +0.030 A 
ATOM     16  C   UNL     1       0.066  -2.083  -1.201  0.00  0.00    +0.028 A 
ATOM     17  C   UNL     1      -1.133  -1.604  -0.689  0.00  0.00    -0.026 A 
ATOM     18  C   UNL     1      -1.145  -0.914   0.507  0.00  0.00    +0.051 A 
ATOM     19  C   UNL     1       0.038  -0.705   1.200  0.00  0.00    +0.134 A 
ATOM     20  C   UNL     1      -2.419  -1.836  -1.439  0.00  0.00    +0.046 C 
BRANCH  16  21
ATOM     21  N   UNL     1       0.079  -2.782  -2.413  0.00  0.00    -0.358 N 
ATOM     22  H   UNL     1       0.917  -3.117  -2.771  0.00  0.00    +0.142 HD
ATOM     23  H   UNL     1      -0.749  -2.932  -2.896  0.00  0.00    +0.142 HD
ENDBRANCH  16  21
ENDBRANCH   1  19
TORSDOF 3
