REMARK  Name = ZINC14457445
REMARK  10 active torsions:
REMARK  status: ('A' for Active; 'I' for Inactive)
REMARK    1  A    between atoms: C_1  and  C_2
REMARK    2  A    between atoms: C_2  and  C_3
REMARK    3  A    between atoms: C_3  and  C_5
REMARK    4  A    between atoms: C_3  and  N_6
REMARK    5  A    between atoms: N_6  and  S_7
REMARK    6  A    between atoms: S_7  and  C_10
REMARK    7  A    between atoms: C_23  and  C_26
REMARK    8  A    between atoms: C_29  and  O_33
REMARK    9  A    between atoms: C_30  and  O_32
REMARK   10  A    between atoms: O_33  and  C_34
REMARK                            x       y       z     vdW  Elec       q    Type
REMARK                         _______ _______ _______ _____ _____    ______ ____
ROOT
ATOM      1  C   UNL     1      -0.977   2.091   1.383  0.00  0.00    +0.106 A 
ATOM      2  C   UNL     1      -0.068   2.272   2.409  0.00  0.00    +0.030 A 
ATOM      3  C   UNL     1      -0.512   2.676   3.652  0.00  0.00    +0.025 A 
ATOM      4  C   UNL     1      -1.866   2.900   3.868  0.00  0.00    +0.031 A 
ATOM      5  C   UNL     1      -2.781   2.718   2.843  0.00  0.00    -0.018 A 
ATOM      6  C   UNL     1      -2.322   2.317   1.595  0.00  0.00    +0.034 A 
ATOM      7  C   UNL     1      -4.248   2.944   3.029  0.00  0.00    +0.049 C 
ATOM      8  C   UNL     1      -4.694   4.234   2.383  0.00  0.00    -0.023 C 
ATOM      9  C   UNL     1      -5.625   4.806   3.108  0.00  0.00    -0.030 C 
ATOM     10  C   UNL     1      -5.930   3.970   4.336  0.00  0.00    +0.033 C 
ATOM     11  C   UNL     1      -4.649   3.102   4.509  0.00  0.00    +0.029 C 
ATOM     12  C   UNL     1      -3.602   3.942   5.246  0.00  0.00    +0.105 C 
ATOM     13  N   UNL     1      -2.300   3.314   5.132  0.00  0.00    -0.336 N 
ATOM     14  H   UNL     1      -1.746   3.177   5.917  0.00  0.00    +0.147 HD
ENDROOT
BRANCH  12  15
ATOM     15  C   UNL     1      -3.528   5.314   4.627  0.00  0.00    -0.023 A 
ATOM     16  C   UNL     1      -2.662   5.549   3.575  0.00  0.00    +0.009 A 
ATOM     17  C   UNL     1      -2.595   6.805   3.000  0.00  0.00    +0.050 A 
ATOM     18  C   UNL     1      -3.388   7.832   3.484  0.00  0.00    +0.161 A 
ATOM     19  C   UNL     1      -4.255   7.597   4.547  0.00  0.00    +0.159 A 
ATOM     20  C   UNL     1      -4.322   6.335   5.115  0.00  0.00    +0.054 A 
BRANCH  19  21
ATOM     21  O   UNL     1      -5.035   8.602   5.026  0.00  0.00    -0.503 OA
ATOM     22  H   UNL     1      -4.624   9.116   5.734  0.00  0.00    +0.292 HD
ENDBRANCH  19  21
BRANCH  18  23
ATOM     23  O   UNL     1      -3.318   9.069   2.923  0.00  0.00    -0.491 OA
ATOM     24  C   UNL     1      -2.405   9.238   1.837  0.00  0.00    +0.277 C 
ENDBRANCH  18  23
ENDBRANCH  12  15
BRANCH   1  25
ATOM     25  S   UNL     1      -0.415   1.575  -0.206  0.00  0.00    +0.059 S 
ATOM     26  O   UNL     1       0.949   1.962  -0.299  0.00  0.00    -0.153 OA
ATOM     27  O   UNL     1      -1.394   2.004  -1.142  0.00  0.00    -0.153 OA
BRANCH  25  28
ATOM     28  N   UNL     1      -0.440  -0.081  -0.220  0.00  0.00    -0.187 NA
ATOM     29  H   UNL     1       0.390  -0.577  -0.301  0.00  0.00    +0.148 HD
BRANCH  28  30
ATOM     30  C   UNL     1      -1.714  -0.795  -0.111  0.00  0.00    +0.073 C 
ATOM     31  C   UNL     1      -2.227  -1.139  -1.511  0.00  0.00    +0.025 C 
BRANCH  30  33
ATOM     32  C   UNL     1      -1.116  -1.736   2.125  0.00  0.00    +0.005 C 
ATOM     33  C   UNL     1      -1.509  -2.084   0.688  0.00  0.00    +0.017 C 
ENDBRANCH  30  33
ENDBRANCH  28  30
ENDBRANCH  25  28
ENDBRANCH   1  25
TORSDOF 7
