REMARK  Name = ZINC47809072
REMARK  6 active torsions:
REMARK  status: ('A' for Active; 'I' for Inactive)
REMARK    1  A    between atoms: C_1  and  C_2
REMARK    2  A    between atoms: N_5  and  C_11
REMARK    3  A    between atoms: C_7  and  C_10
REMARK    4  A    between atoms: C_16  and  N_17
REMARK    5  A    between atoms: N_20  and  C_21
REMARK    6  A    between atoms: C_26  and  C_29
REMARK                            x       y       z     vdW  Elec       q    Type
REMARK                         _______ _______ _______ _____ _____    ______ ____
ROOT
ATOM      1  N   UNL     1       3.415  -1.605  -3.168  0.00  0.00    -0.268 N 
ATOM      2  C   UNL     1       3.343  -2.307  -4.316  0.00  0.00    +0.304 C 
ATOM      3  O   UNL     1       3.382  -1.730  -5.386  0.00  0.00    -0.253 OA
ATOM      4  N   UNL     1       3.228  -3.649  -4.279  0.00  0.00    -0.296 N 
ATOM      5  H   UNL     1       3.449  -2.068  -2.317  0.00  0.00    +0.156 HD
ATOM      6  H   UNL     1       3.197  -4.110  -3.425  0.00  0.00    +0.151 HD
ENDROOT
BRANCH   1  12
ATOM      7  C   UNL     1       2.814   0.534  -2.200  0.00  0.00    +0.051 A 
ATOM      8  C   UNL     1       2.848   1.920  -2.238  0.00  0.00    +0.025 A 
ATOM      9  C   UNL     1       3.497   2.567  -3.273  0.00  0.00    +0.002 A 
ATOM     10  C   UNL     1       4.113   1.836  -4.272  0.00  0.00    +0.002 A 
ATOM     11  C   UNL     1       4.083   0.454  -4.242  0.00  0.00    +0.025 A 
ATOM     12  C   UNL     1       3.440  -0.203  -3.204  0.00  0.00    +0.056 A 
BRANCH   7  16
ATOM     13  C   UNL     1       0.011   1.555   0.013  0.00  0.00    +0.039 C 
ATOM     14  C   UNL     1       0.019   0.025   0.006  0.00  0.00    +0.133 C 
ATOM     15  C   UNL     1       0.733  -0.477  -1.255  0.00  0.00    +0.136 C 
ATOM     16  N   UNL     1       2.158  -0.123  -1.153  0.00  0.00    -0.324 N 
ATOM     17  C   UNL     1       2.873  -0.482   0.083  0.00  0.00    +0.136 C 
ATOM     18  C   UNL     1       2.055   0.020   1.278  0.00  0.00    +0.133 C 
ATOM     19  O   UNL     1       0.710  -0.455   1.162  0.00  0.00    -0.371 OA
ATOM     20  C   UNL     1       2.672  -0.504   2.576  0.00  0.00    +0.039 C 
ENDBRANCH   7  16
ENDBRANCH   1  12
BRANCH   4  21
ATOM     21  C   UNL     1       3.150  -4.413  -5.527  0.00  0.00    +0.075 C 
ATOM     22  C   UNL     1       1.699  -4.449  -6.012  0.00  0.00    +0.022 C 
ATOM     23  C   UNL     1       1.617  -5.246  -7.315  0.00  0.00    +0.002 C 
ATOM     24  C   UNL     1       2.109  -6.675  -7.071  0.00  0.00    +0.012 C 
ATOM     25  C   UNL     1       3.559  -6.638  -6.585  0.00  0.00    +0.095 C 
ATOM     26  C   UNL     1       3.641  -5.841  -5.282  0.00  0.00    +0.034 C 
BRANCH  25  27
ATOM     27  C   UNL     1       4.051  -8.067  -6.341  0.00  0.00    +0.393 C 
ATOM     28  F   UNL     1       3.976  -8.796  -7.533  0.00  0.00    -0.170 F 
ATOM     29  F   UNL     1       5.377  -8.034  -5.897  0.00  0.00    -0.170 F 
ATOM     30  F   UNL     1       3.249  -8.676  -5.370  0.00  0.00    -0.170 F 
ENDBRANCH  25  27
ENDBRANCH   4  21
TORSDOF 4
