REMARK  Name = ZINC09209200
REMARK  8 active torsions:
REMARK  status: ('A' for Active; 'I' for Inactive)
REMARK    1  A    between atoms: C_1  and  C_2
REMARK    2  A    between atoms: C_2  and  C_4
REMARK    3  A    between atoms: C_2  and  S_18
REMARK    4  A    between atoms: N_6  and  C_7
REMARK    5  A    between atoms: C_8  and  C_15
REMARK    6  A    between atoms: S_18  and  C_19
REMARK    7  A    between atoms: C_22  and  C_30
REMARK    8  A    between atoms: N_23  and  C_24
REMARK                            x       y       z     vdW  Elec       q    Type
REMARK                         _______ _______ _______ _____ _____    ______ ____
ROOT
ATOM      1  C   UNL     1       2.798   0.445   1.398  0.00  0.00    +0.029 C 
ATOM      2  C   UNL     1       2.462   0.920  -0.017  0.00  0.00    +0.137 C 
ENDROOT
BRANCH   2   3
ATOM      3  C   UNL     1       1.147   1.655   0.000  0.00  0.00    +0.231 C 
ATOM      4  O   UNL     1       1.130   2.868   0.007  0.00  0.00    -0.274 OA
ATOM      5  N   UNL     1      -0.011   0.966   0.007  0.00  0.00    -0.278 N 
ATOM      6  H   UNL     1       0.004  -0.134   0.006  0.00  0.00    +0.155 HD
BRANCH   5   7
ATOM      7  C   UNL     1      -1.221   1.643   0.017  0.00  0.00    +0.084 A 
ATOM      8  C   UNL     1      -2.502   1.116   0.014  0.00  0.00    +0.068 A 
ATOM      9  C   UNL     1      -3.621   2.057   0.030  0.00  0.00    -0.023 A 
ATOM     10  C   UNL     1      -3.274   3.357   0.036  0.00  0.00    -0.004 A 
ATOM     11  S   UNL     1      -1.498   3.351   0.027  0.00  0.00    -0.077 S 
ATOM     12  C   UNL     1      -4.476   4.262   0.050  0.00  0.00    +0.043 C 
ATOM     13  C   UNL     1      -5.644   3.350   0.488  0.00  0.00    +0.010 C 
ATOM     14  C   UNL     1      -5.147   1.963   0.035  0.00  0.00    +0.037 C 
BRANCH   8  15
ATOM     15  C   UNL     1      -2.727  -0.332   0.001  0.00  0.00    +0.244 C 
ATOM     16  O   UNL     1      -2.819  -0.944   1.049  0.00  0.00    -0.270 OA
ATOM     17  N   UNL     1      -2.833  -0.987  -1.172  0.00  0.00    -0.325 N 
ATOM     18  H   UNL     1      -3.002  -2.074  -1.182  0.00  0.00    +0.145 HD
ATOM     19  H   UNL     1      -2.750  -0.435  -2.120  0.00  0.00    +0.145 HD
ENDBRANCH   8  15
ENDBRANCH   5   7
ENDBRANCH   2   3
BRANCH   2  20
ATOM     20  S   UNL     1       3.766   2.028  -0.607  0.00  0.00    -0.073 S 
BRANCH  20  21
ATOM     21  C   UNL     1       5.119   0.902  -0.669  0.00  0.00    +0.197 A 
ATOM     22  N   UNL     1       5.089  -0.372  -0.348  0.00  0.00    -0.122 NA
ATOM     23  N   UNL     1       6.249  -0.899  -0.513  0.00  0.00    -0.125 NA
ATOM     24  C   UNL     1       7.099   0.008  -0.943  0.00  0.00    +0.205 A 
ATOM     25  N   UNL     1       6.400   1.192  -1.056  0.00  0.00    -0.268 N 
BRANCH  25  26
ATOM     26  C   UNL     1       6.897   2.432  -1.480  0.00  0.00    +0.051 A 
ATOM     27  C   UNL     1       7.354   2.591  -2.781  0.00  0.00    +0.026 A 
ATOM     28  C   UNL     1       7.838   3.816  -3.198  0.00  0.00    +0.002 A 
ATOM     29  C   UNL     1       7.878   4.880  -2.317  0.00  0.00    +0.000 A 
ATOM     30  C   UNL     1       7.429   4.724  -1.018  0.00  0.00    +0.002 A 
ATOM     31  C   UNL     1       6.939   3.503  -0.598  0.00  0.00    +0.026 A 
ENDBRANCH  25  26
BRANCH  24  32
ATOM     32  C   UNL     1       8.523  -0.200  -1.244  0.00  0.00    +0.172 A 
ATOM     33  C   UNL     1       9.274  -1.272  -0.862  0.00  0.00    +0.053 A 
ATOM     34  C   UNL     1      10.571  -1.058  -1.366  0.00  0.00    +0.042 A 
ATOM     35  C   UNL     1      10.554   0.123  -2.016  0.00  0.00    +0.196 A 
ATOM     36  O   UNL     1       9.316   0.638  -1.940  0.00  0.00    -0.460 OA
ENDBRANCH  24  32
ENDBRANCH  20  21
ENDBRANCH   2  20
TORSDOF 7
