REMARK  Name = ZINC08769247
REMARK  7 active torsions:
REMARK  status: ('A' for Active; 'I' for Inactive)
REMARK    1  A    between atoms: C_1  and  C_2
REMARK    2  A    between atoms: C_3  and  C_19
REMARK    3  A    between atoms: C_4  and  C_10
REMARK    4  A    between atoms: C_13  and  C_16
REMARK    5  A    between atoms: C_16  and  C_17
REMARK    6  A    between atoms: C_16  and  C_18
REMARK    7  A    between atoms: N_21  and  C_22
REMARK                            x       y       z     vdW  Elec       q    Type
REMARK                         _______ _______ _______ _____ _____    ______ ____
ROOT
ATOM      1  C   UNL     1       3.103   8.550   0.719  0.00  0.00    +0.061 C 
ATOM      2  C   UNL     1       4.180   7.545   0.403  0.00  0.00    +0.017 C 
ATOM      3  C   UNL     1       3.879   6.229   0.399  0.00  0.00    +0.056 C 
ATOM      4  C   UNL     1       4.990   5.253   0.070  0.00  0.00    +0.139 C 
ATOM      5  N   UNL     1       6.317   5.823  -0.215  0.00  0.00    -0.315 N 
ATOM      6  C   UNL     1       6.464   7.162  -0.167  0.00  0.00    +0.135 C 
ATOM      7  S   UNL     1       8.001   7.840  -0.495  0.00  0.00    -0.019 S 
ATOM      8  N   UNL     1       5.446   7.980   0.131  0.00  0.00    -0.300 N 
ATOM      9  H   UNL     1       7.160   5.160  -0.460  0.00  0.00    +0.149 HD
ATOM     10  H   UNL     1       5.673   9.056   0.149  0.00  0.00    +0.154 HD
ENDROOT
BRANCH   4  11
ATOM     11  C   UNL     1       5.133   4.303   1.231  0.00  0.00    -0.023 A 
ATOM     12  C   UNL     1       5.675   4.745   2.423  0.00  0.00    +0.006 A 
ATOM     13  C   UNL     1       5.801   3.875   3.490  0.00  0.00    +0.004 A 
ATOM     14  C   UNL     1       5.396   2.560   3.361  0.00  0.00    -0.045 A 
ATOM     15  C   UNL     1       4.860   2.116   2.167  0.00  0.00    +0.004 A 
ATOM     16  C   UNL     1       4.729   2.987   1.101  0.00  0.00    +0.006 A 
BRANCH  14  17
ATOM     17  C   UNL     1       5.540   1.610   4.521  0.00  0.00    +0.013 C 
ATOM     18  C   UNL     1       7.015   1.506   4.916  0.00  0.00    +0.012 C 
ATOM     19  C   UNL     1       4.730   2.130   5.710  0.00  0.00    +0.012 C 
ENDBRANCH  14  17
ENDBRANCH   4  11
BRANCH   3  20
ATOM     20  C   UNL     1       2.568   5.776   0.687  0.00  0.00    +0.248 C 
ATOM     21  O   UNL     1       1.782   5.570  -0.220  0.00  0.00    -0.270 OA
ATOM     22  N   UNL     1       2.191   5.574   1.965  0.00  0.00    -0.282 N 
ATOM     23  H   UNL     1       2.849   5.888   2.789  0.00  0.00    +0.155 HD
BRANCH  22  24
ATOM     24  C   UNL     1       0.962   4.965   2.244  0.00  0.00    +0.037 A 
ATOM     25  C   UNL     1      -0.114   5.145   1.384  0.00  0.00    +0.026 A 
ATOM     26  C   UNL     1      -1.326   4.543   1.660  0.00  0.00    +0.043 A 
ATOM     27  C   UNL     1      -1.469   3.756   2.790  0.00  0.00    +0.159 A 
ATOM     28  C   UNL     1      -0.398   3.579   3.653  0.00  0.00    +0.160 A 
ATOM     29  C   UNL     1       0.818   4.180   3.380  0.00  0.00    +0.064 A 
ATOM     30  F   UNL     1      -0.540   2.815   4.758  0.00  0.00    -0.202 F 
ATOM     31  F   UNL     1      -2.654   3.164   3.054  0.00  0.00    -0.202 F 
ENDBRANCH  22  24
ENDBRANCH   3  20
TORSDOF 4
