REMARK  Name = ZINC00524899
REMARK  2 active torsions:
REMARK  status: ('A' for Active; 'I' for Inactive)
REMARK    1  A    between atoms: C_5  and  C_7
REMARK    2  A    between atoms: C_10  and  C_19
REMARK                            x       y       z     vdW  Elec       q    Type
REMARK                         _______ _______ _______ _____ _____    ______ ____
ROOT
ATOM      1  C   UNL     1       1.229  -2.186  -0.022  0.00  0.00    +0.107 C 
ATOM      2  C   UNL     1       1.463  -2.689  -1.451  0.00  0.00    +0.059 C 
ATOM      3  C   UNL     1       0.374  -2.137  -2.379  0.00  0.00    +0.143 C 
ATOM      4  N   UNL     1      -0.933  -2.374  -1.767  0.00  0.00    -0.224 N 
ATOM      5  C   UNL     1      -1.123  -2.637  -0.452  0.00  0.00    +0.216 A 
ATOM      6  N   UNL     1      -2.404  -2.798  -0.250  0.00  0.00    -0.180 NA
ATOM      7  C   UNL     1      -3.062  -2.643  -1.408  0.00  0.00    +0.233 A 
ATOM      8  N   UNL     1      -2.195  -2.382  -2.361  0.00  0.00    -0.132 NA
ATOM      9  N   UNL     1      -4.444  -2.744  -1.575  0.00  0.00    -0.326 N 
ATOM     10  N   UNL     1      -0.069  -2.702   0.456  0.00  0.00    -0.307 N 
ATOM     11  H   UNL     1      -5.011  -2.941  -0.813  0.00  0.00    +0.145 HD
ATOM     12  H   UNL     1      -4.837  -2.618  -2.452  0.00  0.00    +0.145 HD
ATOM     13  H   UNL     1      -0.179  -3.065   1.348  0.00  0.00    +0.149 HD
ENDROOT
BRANCH   1  18
ATOM     14  C   UNL     1      -0.017   1.378   0.010  0.00  0.00    +0.000 A 
ATOM     15  C   UNL     1       1.171   2.086   0.002  0.00  0.00    +0.001 A 
ATOM     16  C   UNL     1       2.377   1.412  -0.013  0.00  0.00    +0.020 A 
ATOM     17  C   UNL     1       2.397   0.029  -0.021  0.00  0.00    +0.046 A 
ATOM     18  C   UNL     1       1.208  -0.679  -0.013  0.00  0.00    -0.009 A 
ATOM     19  C   UNL     1       0.002  -0.004   0.002  0.00  0.00    +0.007 A 
ATOM     20 CL   UNL     1       3.912  -0.818  -0.041  0.00  0.00    -0.083 Cl
ENDBRANCH   1  18
BRANCH   3  21
ATOM     21  C   UNL     1       0.445  -2.837  -3.712  0.00  0.00    -0.023 A 
ATOM     22  C   UNL     1       0.272  -4.207  -3.783  0.00  0.00    +0.008 A 
ATOM     23  C   UNL     1       0.336  -4.850  -5.004  0.00  0.00    +0.038 A 
ATOM     24  C   UNL     1       0.573  -4.121  -6.158  0.00  0.00    +0.123 A 
ATOM     25  C   UNL     1       0.745  -2.749  -6.086  0.00  0.00    +0.038 A 
ATOM     26  C   UNL     1       0.676  -2.108  -4.864  0.00  0.00    +0.008 A 
ATOM     27  F   UNL     1       0.636  -4.748  -7.353  0.00  0.00    -0.205 F 
ENDBRANCH   3  21
TORSDOF 2
