REMARK  Name = ZINC20755832
REMARK  7 active torsions:
REMARK  status: ('A' for Active; 'I' for Inactive)
REMARK    1  A    between atoms: C_1  and  C_2
REMARK    2  A    between atoms: N_5  and  S_8
REMARK    3  A    between atoms: S_8  and  C_11
REMARK    4  A    between atoms: C_15  and  C_17
REMARK    5  A    between atoms: N_19  and  C_20
REMARK    6  A    between atoms: C_25  and  C_26
REMARK    7  A    between atoms: N_28  and  C_29
REMARK                            x       y       z     vdW  Elec       q    Type
REMARK                         _______ _______ _______ _____ _____    ______ ____
ROOT
ATOM      1  C   UNL     1      -0.035   5.302  -0.020  0.00  0.00    +0.248 C 
ATOM      2  O   UNL     1      -1.103   5.882   0.022  0.00  0.00    -0.270 OA
ATOM      3  N   UNL     1       1.115   6.005  -0.021  0.00  0.00    -0.281 N 
ATOM      4  H   UNL     1       2.080   5.481   0.035  0.00  0.00    +0.155 HD
ENDROOT
BRANCH   1   9
ATOM      5  C   UNL     1      -1.145   1.716  -0.126  0.00  0.00    +0.106 A 
ATOM      6  C   UNL     1       0.071   1.058  -0.169  0.00  0.00    +0.028 A 
ATOM      7  C   UNL     1       1.253   1.777  -0.169  0.00  0.00    +0.003 A 
ATOM      8  C   UNL     1       1.226   3.156  -0.120  0.00  0.00    +0.013 A 
ATOM      9  C   UNL     1       0.002   3.825  -0.071  0.00  0.00    +0.039 A 
ATOM     10  C   UNL     1      -1.187   3.094  -0.071  0.00  0.00    +0.041 A 
BRANCH   5  11
ATOM     11  S   UNL     1      -2.645   0.791  -0.134  0.00  0.00    +0.061 S 
ATOM     12  O   UNL     1      -3.653   1.656  -0.639  0.00  0.00    -0.153 OA
ATOM     13  O   UNL     1      -2.346  -0.462  -0.734  0.00  0.00    -0.153 OA
BRANCH  11  18
ATOM     14  C   UNL     1      -5.707  -1.295   4.242  0.00  0.00    +0.007 C 
ATOM     15  C   UNL     1      -4.531  -0.541   3.618  0.00  0.00    -0.012 C 
ATOM     16  C   UNL     1      -5.058   0.640   2.801  0.00  0.00    +0.020 C 
ATOM     17  C   UNL     1      -3.876   1.413   2.206  0.00  0.00    +0.110 C 
ATOM     18  N   UNL     1      -3.036   0.478   1.444  0.00  0.00    -0.177 NA
ATOM     19  C   UNL     1      -2.554  -0.741   2.108  0.00  0.00    +0.110 C 
ATOM     20  C   UNL     1      -3.747  -1.486   2.705  0.00  0.00    +0.020 C 
ENDBRANCH  11  18
ENDBRANCH   5  11
ENDBRANCH   1   9
BRANCH   3  21
ATOM     21  C   UNL     1       1.080   7.395  -0.093  0.00  0.00    +0.046 A 
ATOM     22  C   UNL     1      -0.006   8.037  -0.673  0.00  0.00    +0.024 A 
ATOM     23  C   UNL     1      -0.038   9.415  -0.742  0.00  0.00    +0.002 A 
ATOM     24  C   UNL     1       1.009  10.168  -0.235  0.00  0.00    +0.001 A 
ATOM     25  C   UNL     1       2.095   9.548   0.344  0.00  0.00    +0.015 A 
ATOM     26  C   UNL     1       2.140   8.154   0.426  0.00  0.00    +0.058 A 
BRANCH  26  27
ATOM     27  C   UNL     1       3.297   7.485   1.049  0.00  0.00    +0.250 C 
ATOM     28  O   UNL     1       3.377   6.271   1.035  0.00  0.00    -0.270 OA
ATOM     29  N   UNL     1       4.265   8.217   1.635  0.00  0.00    -0.281 N 
ATOM     30  H   UNL     1       4.240   9.315   1.567  0.00  0.00    +0.155 HD
BRANCH  29  31
ATOM     31  C   UNL     1       5.300   7.582   2.329  0.00  0.00    +0.034 A 
ATOM     32  C   UNL     1       5.096   6.326   2.886  0.00  0.00    +0.026 A 
ATOM     33  C   UNL     1       6.122   5.699   3.565  0.00  0.00    +0.040 A 
ATOM     34  C   UNL     1       7.349   6.325   3.702  0.00  0.00    +0.124 A 
ATOM     35  C   UNL     1       7.553   7.580   3.152  0.00  0.00    +0.040 A 
ATOM     36  C   UNL     1       6.532   8.209   2.467  0.00  0.00    +0.026 A 
ATOM     37  F   UNL     1       8.349   5.712   4.372  0.00  0.00    -0.205 F 
ENDBRANCH  29  31
ENDBRANCH  26  27
ENDBRANCH   3  21
TORSDOF 6
