REMARK  Name = ZINC00836099
REMARK  5 active torsions:
REMARK  status: ('A' for Active; 'I' for Inactive)
REMARK    1  A    between atoms: C_4  and  C_7
REMARK    2  A    between atoms: N_10  and  C_12
REMARK    3  A    between atoms: C_19  and  N_31
REMARK    4  A    between atoms: C_20  and  C_29
REMARK    5  A    between atoms: C_21  and  C_23
REMARK                            x       y       z     vdW  Elec       q    Type
REMARK                         _______ _______ _______ _____ _____    ______ ____
ROOT
ATOM      1  C   UNL     1       4.496   4.458   0.428  0.00  0.00    +0.101 A 
ATOM      2  C   UNL     1       3.872   5.457  -0.325  0.00  0.00    +0.055 A 
ATOM      3  C   UNL     1       2.587   5.066  -0.565  0.00  0.00    +0.230 A 
ATOM      4  N   UNL     1       2.410   3.858   0.018  0.00  0.00    -0.199 N 
ATOM      5  N   UNL     1       3.615   3.498   0.640  0.00  0.00    -0.163 NA
ATOM      6  O   UNL     1       1.711   5.822  -1.272  0.00  0.00    -0.423 OA
ATOM      7  C   UNL     1       2.045   7.107  -1.510  0.00  0.00    +0.200 C 
ATOM      8  C   UNL     1       3.286   7.608  -1.323  0.00  0.00    +0.098 C 
ATOM      9  C   UNL     1       4.433   6.763  -0.827  0.00  0.00    +0.102 C 
ENDROOT
BRANCH   1  13
ATOM     10  C   UNL     1       8.516   4.511   1.813  0.00  0.00    +0.000 A 
ATOM     11  C   UNL     1       7.748   5.659   1.884  0.00  0.00    +0.001 A 
ATOM     12  C   UNL     1       6.442   5.647   1.436  0.00  0.00    +0.010 A 
ATOM     13  C   UNL     1       5.899   4.477   0.911  0.00  0.00    +0.003 A 
ATOM     14  C   UNL     1       6.676   3.322   0.847  0.00  0.00    +0.010 A 
ATOM     15  C   UNL     1       7.982   3.346   1.293  0.00  0.00    +0.001 A 
ENDBRANCH   1  13
BRANCH   4  16
ATOM     16  C   UNL     1       1.230   3.103   0.007  0.00  0.00    +0.069 A 
ATOM     17  C   UNL     1       1.291   1.717  -0.050  0.00  0.00    +0.028 A 
ATOM     18  C   UNL     1       0.126   0.976  -0.061  0.00  0.00    +0.002 A 
ATOM     19  C   UNL     1      -1.101   1.613  -0.021  0.00  0.00    +0.000 A 
ATOM     20  C   UNL     1      -1.165   2.993   0.041  0.00  0.00    +0.002 A 
ATOM     21  C   UNL     1      -0.004   3.740   0.052  0.00  0.00    +0.028 A 
ENDBRANCH   4  16
BRANCH   9  22
ATOM     22  C   UNL     1       5.397   6.501  -1.955  0.00  0.00    -0.035 A 
ATOM     23  C   UNL     1       4.985   5.790  -3.066  0.00  0.00    +0.004 A 
ATOM     24  C   UNL     1       5.869   5.553  -4.103  0.00  0.00    +0.000 A 
ATOM     25  C   UNL     1       7.167   6.021  -4.024  0.00  0.00    +0.000 A 
ATOM     26  C   UNL     1       7.581   6.729  -2.911  0.00  0.00    +0.000 A 
ATOM     27  C   UNL     1       6.696   6.969  -1.877  0.00  0.00    +0.004 A 
ENDBRANCH   9  22
BRANCH   7  28
ATOM     28  N   UNL     1       1.068   7.954  -1.970  0.00  0.00    -0.328 N 
ATOM     29  H   UNL     1       1.278   8.884  -2.151  0.00  0.00    +0.145 HD
ATOM     30  H   UNL     1       0.168   7.624  -2.114  0.00  0.00    +0.145 HD
ENDBRANCH   7  28
BRANCH   8  31
ATOM     31  C   UNL     1       3.521   8.992  -1.607  0.00  0.00    +0.101 C 
ATOM     32  N   UNL     1       3.708  10.089  -1.832  0.00  0.00    -0.191 NA
ENDBRANCH   8  31
TORSDOF 5
