REMARK  Name = ZINC03336210
REMARK  9 active torsions:
REMARK  status: ('A' for Active; 'I' for Inactive)
REMARK    1  A    between atoms: C_1  and  C_2
REMARK    2  A    between atoms: C_5  and  C_7
REMARK    3  A    between atoms: C_9  and  C_35
REMARK    4  A    between atoms: C_10  and  S_21
REMARK    5  A    between atoms: C_17  and  C_19
REMARK    6  A    between atoms: C_17  and  C_20
REMARK    7  A    between atoms: S_21  and  C_22
REMARK    8  A    between atoms: C_22  and  C_23
REMARK    9  A    between atoms: N_25  and  C_26
REMARK                            x       y       z     vdW  Elec       q    Type
REMARK                         _______ _______ _______ _____ _____    ______ ____
ROOT
ATOM      1  C   UNL     1      -4.327   6.330   0.071  0.00  0.00    +0.132 C 
ATOM      2  C   UNL     1      -2.925   5.796   0.066  0.00  0.00    +0.072 C 
ATOM      3  C   UNL     1      -2.684   4.458   0.052  0.00  0.00    +0.080 C 
ATOM      4  N   UNL     1      -3.733   3.568   0.062  0.00  0.00    -0.311 N 
ATOM      5  C   UNL     1      -4.976   3.963   0.476  0.00  0.00    +0.017 C 
ATOM      6  C   UNL     1      -5.310   5.271   0.502  0.00  0.00    +0.027 C 
ATOM      7  C   UNL     1      -6.584   5.685   0.927  0.00  0.00    +0.162 C 
ATOM      8  O   UNL     1      -6.846   6.871   0.956  0.00  0.00    -0.292 OA
ATOM      9  C   UNL     1      -7.629   4.688   1.347  0.00  0.00    +0.086 C 
ATOM     10  C   UNL     1      -7.384   3.369   0.606  0.00  0.00    -0.023 C 
ATOM     11  C   UNL     1      -5.958   2.901   0.906  0.00  0.00    +0.058 C 
ATOM     12  C   UNL     1      -7.547   3.587  -0.900  0.00  0.00    +0.011 C 
ATOM     13  C   UNL     1      -8.383   2.313   1.084  0.00  0.00    +0.011 C 
ATOM     14  H   UNL     1      -3.576   2.530  -0.266  0.00  0.00    +0.152 HD
ENDROOT
BRANCH   1  19
ATOM     15  C   UNL     1      -5.261   6.302  -4.886  0.00  0.00    +0.086 C 
ATOM     16  C   UNL     1      -5.092   6.790  -3.470  0.00  0.00    +0.102 A 
ATOM     17  C   UNL     1      -5.270   8.054  -3.047  0.00  0.00    +0.044 A 
ATOM     18  C   UNL     1      -5.013   8.061  -1.657  0.00  0.00    +0.046 A 
ATOM     19  C   UNL     1      -4.686   6.802  -1.315  0.00  0.00    +0.118 A 
ATOM     20  O   UNL     1      -4.738   6.036  -2.417  0.00  0.00    -0.464 OA
ENDBRANCH   1  19
BRANCH   2  21
ATOM     21  C   UNL     1      -1.823   6.711   0.071  0.00  0.00    +0.098 C 
ATOM     22  N   UNL     1      -0.948   7.436   0.075  0.00  0.00    -0.191 NA
ENDBRANCH   2  21
BRANCH   3  23
ATOM     23  S   UNL     1      -1.025   3.863   0.030  0.00  0.00    -0.100 S 
BRANCH  23  24
ATOM     24  C   UNL     1      -1.332   2.079   0.026  0.00  0.00    +0.171 C 
BRANCH  24  25
ATOM     25  C   UNL     1      -0.016   1.344   0.007  0.00  0.00    +0.227 C 
ATOM     26  O   UNL     1       1.026   1.964  -0.008  0.00  0.00    -0.275 OA
ATOM     27  N   UNL     1       0.002  -0.004   0.002  0.00  0.00    -0.285 N 
ATOM     28  H   UNL     1      -0.938  -0.567   0.092  0.00  0.00    +0.155 HD
BRANCH  27  29
ATOM     29  C   UNL     1       1.219  -0.688  -0.119  0.00  0.00    +0.037 A 
ATOM     30  C   UNL     1       2.367  -0.169   0.465  0.00  0.00    +0.027 A 
ATOM     31  C   UNL     1       3.568  -0.842   0.346  0.00  0.00    +0.051 A 
ATOM     32  C   UNL     1       3.630  -2.036  -0.355  0.00  0.00    +0.166 A 
ATOM     33  C   UNL     1       2.480  -2.558  -0.941  0.00  0.00    +0.168 A 
ATOM     34  C   UNL     1       1.276  -1.886  -0.818  0.00  0.00    +0.072 A 
ATOM     35  O   UNL     1       2.802  -3.728  -1.566  0.00  0.00    -0.453 OA
ATOM     36  C   UNL     1       4.070  -4.125  -1.011  0.00  0.00    +0.466 C 
ATOM     37  O   UNL     1       4.673  -2.880  -0.613  0.00  0.00    -0.453 OA
ENDBRANCH  27  29
ENDBRANCH  24  25
ENDBRANCH  23  24
ENDBRANCH   3  23
TORSDOF 6
