REMARK  Name = ZINC20885304
REMARK  5 active torsions:
REMARK  status: ('A' for Active; 'I' for Inactive)
REMARK    1  A    between atoms: C_6  and  C_7
REMARK    2  A    between atoms: C_10  and  C_12
REMARK    3  A    between atoms: N_13  and  N_14
REMARK    4  A    between atoms: C_15  and  C_17
REMARK    5  A    between atoms: C_19  and  N_25
REMARK                            x       y       z     vdW  Elec       q    Type
REMARK                         _______ _______ _______ _____ _____    ______ ____
ROOT
ATOM      1  N   UNL     1      -1.191   1.870   0.018  0.00  0.00    -0.202 N 
ATOM      2  C   UNL     1      -0.014   1.212   0.009  0.00  0.00    +0.283 C 
ATOM      3  O   UNL     1       0.002  -0.004   0.002  0.00  0.00    -0.267 OA
ATOM      4  H   UNL     1      -1.206   2.970   0.024  0.00  0.00    +0.178 HD
ENDROOT
BRANCH   2   5
ATOM      5  C   UNL     1       1.257   1.969   0.001  0.00  0.00    +0.149 A 
ATOM      6  C   UNL     1       2.468   1.283  -0.009  0.00  0.00    +0.094 A 
ATOM      7  C   UNL     1       3.658   2.011  -0.022  0.00  0.00    +0.067 A 
ATOM      8  C   UNL     1       3.581   3.403  -0.014  0.00  0.00    +0.100 A 
ATOM      9  C   UNL     1       2.337   4.013   0.001  0.00  0.00    +0.150 A 
ATOM     10  N   UNL     1       1.231   3.298   0.008  0.00  0.00    -0.228 NA
ATOM     11 CL   UNL     1       2.235   5.746   0.011  0.00  0.00    -0.060 Cl
ATOM     12 CL   UNL     1       5.029   4.362  -0.022  0.00  0.00    -0.078 Cl
ATOM     13 CL   UNL     1       2.498  -0.453  -0.011  0.00  0.00    -0.079 Cl
BRANCH   7  14
ATOM     14  N   UNL     1       4.891   1.364  -0.037  0.00  0.00    -0.356 N 
ATOM     15  H   UNL     1       5.821   1.952  -0.048  0.00  0.00    +0.142 HD
ATOM     16  H   UNL     1       4.936   0.265  -0.039  0.00  0.00    +0.142 HD
ENDBRANCH   7  14
ENDBRANCH   2   5
BRANCH   1  18
ATOM     17  C   UNL     1      -3.531   1.788   0.029  0.00  0.00    +0.176 C 
ATOM     18  N   UNL     1      -2.394   1.153   0.020  0.00  0.00    -0.184 NA
BRANCH  17  22
ATOM     19  C   UNL     1      -6.215  -0.634   0.027  0.00  0.00    +0.136 A 
ATOM     20  C   UNL     1      -6.955   0.511   0.037  0.00  0.00    +0.050 A 
ATOM     21  C   UNL     1      -6.054   1.584   0.039  0.00  0.00    +0.051 A 
ATOM     22  C   UNL     1      -4.788   1.040   0.030  0.00  0.00    +0.148 A 
ATOM     23  O   UNL     1      -4.910  -0.304   0.018  0.00  0.00    -0.454 OA
BRANCH  19  29
ATOM     24  C   UNL     1      -8.136  -2.218   0.033  0.00  0.00    +0.014 A 
ATOM     25  C   UNL     1      -8.635  -3.504   0.022  0.00  0.00    +0.039 A 
ATOM     26  C   UNL     1      -7.769  -4.586   0.012  0.00  0.00    +0.123 A 
ATOM     27  C   UNL     1      -6.398  -4.383   0.006  0.00  0.00    +0.039 A 
ATOM     28  C   UNL     1      -5.888  -3.102   0.011  0.00  0.00    +0.014 A 
ATOM     29  C   UNL     1      -6.755  -2.008   0.022  0.00  0.00    +0.017 A 
ATOM     30  F   UNL     1      -8.264  -5.843   0.008  0.00  0.00    -0.205 F 
ENDBRANCH  19  29
ENDBRANCH  17  22
ENDBRANCH   1  18
TORSDOF 5
