REMARK  Name = ZINC36214722
REMARK  11 active torsions:
REMARK  status: ('A' for Active; 'I' for Inactive)
REMARK    1  A    between atoms: C_1  and  C_2
REMARK    2  A    between atoms: C_2  and  C_4
REMARK    3  A    between atoms: C_2  and  N_7
REMARK    4  A    between atoms: C_4  and  C_5
REMARK    5  A    between atoms: C_4  and  C_6
REMARK    6  A    between atoms: C_8  and  C_10
REMARK    7  A    between atoms: C_10  and  C_12
REMARK    8  A    between atoms: C_10  and  N_28
REMARK    9  A    between atoms: N_15  and  S_18
REMARK   10  A    between atoms: S_18  and  C_21
REMARK   11  A    between atoms: C_29  and  C_31
REMARK                            x       y       z     vdW  Elec       q    Type
REMARK                         _______ _______ _______ _____ _____    ______ ____
ROOT
ATOM      1  C   UNL     1       2.757  -1.000   2.445  0.00  0.00    +0.162 C 
ENDROOT
BRANCH   1   2
ATOM      2  C   UNL     1       2.368  -0.037   3.568  0.00  0.00    +0.021 C 
ATOM      3  C   UNL     1       0.874  -0.180   3.868  0.00  0.00    +0.023 C 
ATOM      4  C   UNL     1       0.481   0.810   4.969  0.00  0.00    +0.110 C 
ATOM      5  N   UNL     1       1.353   0.595   6.132  0.00  0.00    -0.177 NA
ATOM      6  C   UNL     1       2.810   0.622   5.937  0.00  0.00    +0.110 C 
ATOM      7  C   UNL     1       3.177  -0.366   4.825  0.00  0.00    +0.023 C 
BRANCH   5   8
ATOM      8  S   UNL     1       0.708   0.328   7.633  0.00  0.00    +0.061 S 
ATOM      9  O   UNL     1       1.699   0.712   8.576  0.00  0.00    -0.153 OA
ATOM     10  O   UNL     1      -0.594   0.898   7.622  0.00  0.00    -0.153 OA
BRANCH   8  11
ATOM     11  C   UNL     1       0.494  -1.412   7.807  0.00  0.00    +0.106 A 
ATOM     12  C   UNL     1      -0.690  -2.006   7.411  0.00  0.00    +0.030 A 
ATOM     13  C   UNL     1      -0.858  -3.371   7.548  0.00  0.00    +0.022 A 
ATOM     14  C   UNL     1       0.160  -4.143   8.080  0.00  0.00    +0.041 A 
ATOM     15  C   UNL     1       1.345  -3.548   8.475  0.00  0.00    +0.022 A 
ATOM     16  C   UNL     1       1.513  -2.184   8.333  0.00  0.00    +0.030 A 
ATOM     17 CL   UNL     1      -0.051  -5.858   8.251  0.00  0.00    -0.084 Cl
ENDBRANCH   8  11
ENDBRANCH   5   8
ENDBRANCH   1   2
BRANCH   1  19
ATOM     18  N   UNL     1       0.802  -1.098   0.932  0.00  0.00    -0.311 N 
ATOM     19  C   UNL     1       2.036  -0.614   1.179  0.00  0.00    +0.234 C 
ATOM     20  O   UNL     1       2.564   0.133   0.384  0.00  0.00    -0.274 OA
ATOM     21  H   UNL     1       0.407  -1.748   1.535  0.00  0.00    +0.149 HD
BRANCH  18  23
ATOM     22  C   UNL     1      -0.677   0.655   0.085  0.00  0.00    +0.028 C 
ATOM     23  C   UNL     1       0.060  -0.644  -0.246  0.00  0.00    +0.072 C 
BRANCH  23  24
ATOM     24  C   UNL     1      -0.954  -1.716  -0.653  0.00  0.00    +0.003 C 
ATOM     25  C   UNL     1      -2.002  -1.873   0.450  0.00  0.00    +0.009 C 
ATOM     26  C   UNL     1      -1.642  -1.298  -1.954  0.00  0.00    +0.009 C 
ENDBRANCH  23  24
ENDBRANCH  18  23
ENDBRANCH   1  19
BRANCH   1  27
ATOM     27  N   UNL     1       4.204  -0.932   2.222  0.00  0.00    -0.300 N 
ATOM     28  C   UNL     1       4.853  -1.983   1.684  0.00  0.00    +0.245 C 
ATOM     29  O   UNL     1       4.239  -2.988   1.384  0.00  0.00    -0.270 OA
ATOM     30  H   UNL     1       4.694  -0.130   2.462  0.00  0.00    +0.150 HD
BRANCH  28  31
ATOM     31  C   UNL     1       6.313  -1.914   1.460  0.00  0.00    +0.037 A 
ATOM     32  C   UNL     1       7.022  -0.764   1.809  0.00  0.00    +0.013 A 
ATOM     33  C   UNL     1       8.384  -0.706   1.597  0.00  0.00    +0.001 A 
ATOM     34  C   UNL     1       9.047  -1.785   1.039  0.00  0.00    +0.000 A 
ATOM     35  C   UNL     1       8.350  -2.928   0.690  0.00  0.00    +0.001 A 
ATOM     36  C   UNL     1       6.988  -3.001   0.903  0.00  0.00    +0.013 A 
ENDBRANCH  28  31
ENDBRANCH   1  27
TORSDOF 8
