REMARK  Name = ZINC09357947
REMARK  4 active torsions:
REMARK  status: ('A' for Active; 'I' for Inactive)
REMARK    1  A    between atoms: C_1  and  C_2
REMARK    2  A    between atoms: C_7  and  C_12
REMARK    3  A    between atoms: C_12  and  C_14
REMARK    4  A    between atoms: C_19  and  C_21
REMARK                            x       y       z     vdW  Elec       q    Type
REMARK                         _______ _______ _______ _____ _____    ______ ____
ROOT
ATOM      1  C   UNL     1       4.057   1.736   0.043  0.00  0.00    +0.077 C 
ATOM      2  C   UNL     1       5.348   1.359  -0.108  0.00  0.00    +0.250 C 
ATOM      3  C   UNL     1       6.184   2.560  -0.310  0.00  0.00    +0.293 C 
ATOM      4  O   UNL     1       7.387   2.552  -0.479  0.00  0.00    -0.266 OA
ATOM      5  N   UNL     1       5.416   3.665  -0.275  0.00  0.00    -0.232 N 
ATOM      6  C   UNL     1       4.028   3.243  -0.052  0.00  0.00    +0.154 C 
ATOM      7  C   UNL     1       5.858   4.968  -0.423  0.00  0.00    +0.169 A 
ATOM      8  N   UNL     1       7.079   5.406  -0.624  0.00  0.00    -0.224 NA
ATOM      9  C   UNL     1       7.368   6.720  -0.751  0.00  0.00    +0.080 A 
ATOM     10  C   UNL     1       8.630   7.319  -0.968  0.00  0.00    +0.032 A 
ATOM     11  C   UNL     1       8.751   8.679  -1.075  0.00  0.00    +0.040 A 
ATOM     12  C   UNL     1       7.647   9.516  -0.975  0.00  0.00    +0.125 A 
ATOM     13  C   UNL     1       6.396   8.963  -0.762  0.00  0.00    +0.055 A 
ATOM     14  C   UNL     1       6.267   7.601  -0.653  0.00  0.00    +0.043 A 
ATOM     15  S   UNL     1       4.910   6.483  -0.397  0.00  0.00    -0.052 S 
ATOM     16  F   UNL     1       7.792  10.855  -1.083  0.00  0.00    -0.205 F 
ATOM     17  O   UNL     1       5.801   0.085  -0.081  0.00  0.00    -0.282 OA
ENDROOT
BRANCH   6  18
ATOM     18  C   UNL     1       3.507   3.835   1.232  0.00  0.00    +0.013 A 
ATOM     19  C   UNL     1       4.389   4.209   2.228  0.00  0.00    +0.008 A 
ATOM     20  C   UNL     1       3.911   4.752   3.406  0.00  0.00    +0.001 A 
ATOM     21  C   UNL     1       2.551   4.921   3.589  0.00  0.00    +0.003 A 
ATOM     22  C   UNL     1       1.668   4.548   2.594  0.00  0.00    +0.039 A 
ATOM     23  C   UNL     1       2.146   4.008   1.412  0.00  0.00    +0.129 A 
ATOM     24  F   UNL     1       1.283   3.647   0.436  0.00  0.00    -0.205 F 
ENDBRANCH   6  18
BRANCH   1  25
ATOM     25  C   UNL     1       2.908   0.852   0.264  0.00  0.00    +0.195 C 
ATOM     26  O   UNL     1       2.821   0.214   1.297  0.00  0.00    -0.287 OA
BRANCH  25  32
ATOM     27  C   UNL     1      -2.967  -1.409  -3.638  0.00  0.00    +0.052 C 
ATOM     28  C   UNL     1      -2.215  -0.391  -2.778  0.00  0.00    +0.175 C 
ATOM     29  C   UNL     1      -1.437  -1.099  -1.644  0.00  0.00    +0.083 C 
ATOM     30  C   UNL     1      -0.176  -0.261  -1.557  0.00  0.00    -0.002 A 
ATOM     31  C   UNL     1       0.794  -0.157  -0.592  0.00  0.00    +0.019 A 
ATOM     32  C   UNL     1       1.857   0.736  -0.766  0.00  0.00    +0.023 A 
ATOM     33  C   UNL     1       1.916   1.517  -1.924  0.00  0.00    +0.015 A 
ATOM     34  C   UNL     1       0.939   1.405  -2.884  0.00  0.00    +0.046 A 
ATOM     35  C   UNL     1      -0.121   0.512  -2.714  0.00  0.00    +0.124 A 
ATOM     36  O   UNL     1      -1.170   0.242  -3.535  0.00  0.00    -0.488 OA
ENDBRANCH  25  32
ENDBRANCH   1  25
TORSDOF 3
