REMARK  Name = ZINC13247793
REMARK  9 active torsions:
REMARK  status: ('A' for Active; 'I' for Inactive)
REMARK    1  A    between atoms: C_1  and  C_2
REMARK    2  A    between atoms: C_4  and  C_32
REMARK    3  A    between atoms: C_6  and  S_9
REMARK    4  A    between atoms: C_7  and  C_8
REMARK    5  A    between atoms: S_9  and  N_12
REMARK    6  A    between atoms: N_12  and  C_13
REMARK    7  A    between atoms: C_14  and  C_22
REMARK    8  A    between atoms: N_24  and  C_25
REMARK    9  A    between atoms: C_25  and  C_26
REMARK                            x       y       z     vdW  Elec       q    Type
REMARK                         _______ _______ _______ _____ _____    ______ ____
ROOT
ATOM      1  C   UNL     1       3.297   7.996  -1.458  0.00  0.00    +0.098 A 
ATOM      2  C   UNL     1       3.237   8.960  -2.456  0.00  0.00    +0.070 A 
ATOM      3  C   UNL     1       2.280  10.042  -2.288  0.00  0.00    -0.023 A 
ATOM      4  C   UNL     1       1.550   9.992  -1.153  0.00  0.00    -0.004 A 
ATOM      5  S   UNL     1       2.108   8.535  -0.318  0.00  0.00    -0.076 S 
ATOM      6  C   UNL     1       0.501  10.966  -0.711  0.00  0.00    +0.043 C 
ATOM      7  C   UNL     1       0.635  12.239  -1.558  0.00  0.00    +0.005 C 
ATOM      8  C   UNL     1       0.742  11.842  -3.033  0.00  0.00    +0.005 C 
ATOM      9  C   UNL     1       2.091  11.170  -3.294  0.00  0.00    +0.037 C 
ENDROOT
BRANCH   2  10
ATOM     10  C   UNL     1       4.103   8.888  -3.635  0.00  0.00    +0.247 C 
ATOM     11  O   UNL     1       3.730   8.292  -4.628  0.00  0.00    -0.270 OA
ATOM     12  N   UNL     1       5.313   9.482  -3.620  0.00  0.00    -0.309 N 
ATOM     13  H   UNL     1       5.610   9.957  -2.829  0.00  0.00    +0.149 HD
BRANCH  12  14
ATOM     14  C   UNL     1       6.179   9.409  -4.800  0.00  0.00    +0.136 C 
BRANCH  14  15
ATOM     15  C   UNL     1       7.483  10.159  -4.522  0.00  0.00    +0.135 C 
ATOM     16  C   UNL     1       8.360  10.204  -5.793  0.00  0.00    +0.035 C 
ATOM     17  C   UNL     1       9.802  10.048  -5.260  0.00  0.00    +0.031 C 
ATOM     18  C   UNL     1       9.626   9.928  -3.730  0.00  0.00    +0.160 C 
ATOM     19  O   UNL     1       8.277   9.443  -3.551  0.00  0.00    -0.375 OA
ENDBRANCH  14  15
ENDBRANCH  12  14
ENDBRANCH   2  10
BRANCH   1  20
ATOM     20  N   UNL     1       4.111   6.882  -1.387  0.00  0.00    -0.209 N 
ATOM     21  H   UNL     1       4.687   6.654  -2.134  0.00  0.00    +0.174 HD
BRANCH  20  22
ATOM     22  S   UNL     1       4.104   5.935  -0.029  0.00  0.00    +0.073 S 
ATOM     23  O   UNL     1       4.227   6.815   1.080  0.00  0.00    -0.150 OA
ATOM     24  O   UNL     1       5.021   4.876  -0.267  0.00  0.00    -0.150 OA
BRANCH  22  30
ATOM     25  C   UNL     1       0.344   2.832  -1.913  0.00  0.00    +0.044 C 
ATOM     26  C   UNL     1       0.814   3.764  -0.826  0.00  0.00    -0.045 A 
ATOM     27  C   UNL     1      -0.007   4.037   0.249  0.00  0.00    +0.018 A 
ATOM     28  C   UNL     1       0.429   4.900   1.255  0.00  0.00    +0.065 A 
ATOM     29  C   UNL     1       1.693   5.487   1.163  0.00  0.00    +0.044 A 
ATOM     30  C   UNL     1       2.506   5.201   0.086  0.00  0.00    +0.112 A 
ATOM     31  C   UNL     1       2.067   4.344  -0.908  0.00  0.00    -0.021 A 
ATOM     32  C   UNL     1       2.958   4.042  -2.085  0.00  0.00    +0.046 C 
BRANCH  28  33
ATOM     33  C   UNL     1      -0.444   5.197   2.409  0.00  0.00    +0.387 C 
ATOM     34  O   UNL     1      -0.061   5.949   3.283  0.00  0.00    -0.241 OA
ATOM     35  O   UNL     1      -1.665   4.634   2.492  0.00  0.00    -0.241 OA
ENDBRANCH  28  33
ENDBRANCH  22  30
ENDBRANCH  20  22
ENDBRANCH   1  20
TORSDOF 7
