REMARK  Name = ZINC66673204
REMARK  6 active torsions:
REMARK  status: ('A' for Active; 'I' for Inactive)
REMARK    1  A    between atoms: C_1  and  C_2
REMARK    2  A    between atoms: C_2  and  C_3
REMARK    3  A    between atoms: C_2  and  N_4
REMARK    4  A    between atoms: C_6  and  N_9
REMARK    5  A    between atoms: C_10  and  C_12
REMARK    6  A    between atoms: C_19  and  C_21
REMARK                            x       y       z     vdW  Elec       q    Type
REMARK                         _______ _______ _______ _____ _____    ______ ____
ROOT
ATOM      1  C   UNL     1      -6.430  -2.704   2.257  0.00  0.00    +0.093 C 
ATOM      2  C   UNL     1      -7.444  -3.581   1.519  0.00  0.00    +0.016 C 
ATOM      3  C   UNL     1      -8.603  -3.924   2.458  0.00  0.00    +0.020 C 
ATOM      4  C   UNL     1      -9.304  -2.633   2.889  0.00  0.00    +0.108 C 
ATOM      5  N   UNL     1      -8.307  -1.724   3.470  0.00  0.00    -0.297 N 
ATOM      6  C   UNL     1      -7.106  -1.399   2.687  0.00  0.00    +0.120 C 
ATOM      7  C   UNL     1      -8.489  -1.198   4.697  0.00  0.00    +0.247 C 
ATOM      8  O   UNL     1      -7.609  -0.533   5.210  0.00  0.00    -0.270 OA
ENDROOT
BRANCH   7   9
ATOM      9  C   UNL     1      -9.756  -1.429   5.419  0.00  0.00    +0.038 A 
ATOM     10  C   UNL     1      -9.738  -1.710   6.794  0.00  0.00    +0.015 A 
ATOM     11  C   UNL     1     -10.897  -1.926   7.474  0.00  0.00    +0.028 A 
ATOM     12  C   UNL     1     -12.122  -1.869   6.809  0.00  0.00    +0.066 A 
ATOM     13  C   UNL     1     -12.156  -1.587   5.428  0.00  0.00    +0.020 A 
ATOM     14  C   UNL     1     -10.965  -1.361   4.737  0.00  0.00    +0.024 A 
ATOM     15  C   UNL     1     -13.564  -1.601   5.041  0.00  0.00    +0.142 A 
ATOM     16  N   UNL     1     -14.265  -1.866   6.106  0.00  0.00    -0.181 NA
ATOM     17  N   UNL     1     -13.420  -2.037   7.208  0.00  0.00    -0.277 N 
ATOM     18  H   UNL     1     -13.709  -2.241   8.111  0.00  0.00    +0.189 HD
ENDBRANCH   7   9
BRANCH   1  20
ATOM     19  N   UNL     1      -4.254  -1.629   1.780  0.00  0.00    -0.283 N 
ATOM     20  C   UNL     1      -5.273  -2.393   1.342  0.00  0.00    +0.222 C 
ATOM     21  O   UNL     1      -5.260  -2.831   0.211  0.00  0.00    -0.275 OA
ATOM     22  H   UNL     1      -4.264  -1.278   2.685  0.00  0.00    +0.155 HD
BRANCH  19  25
ATOM     23  N   UNL     1      -1.285  -0.551   0.142  0.00  0.00    -0.267 N 
ATOM     24  C   UNL     1      -2.088  -0.586   1.237  0.00  0.00    +0.132 A 
ATOM     25  C   UNL     1      -3.174  -1.338   0.926  0.00  0.00    +0.071 A 
ATOM     26  C   UNL     1      -3.028  -1.776  -0.399  0.00  0.00    +0.157 A 
ATOM     27  N   UNL     1      -1.902  -1.301  -0.867  0.00  0.00    -0.178 NA
BRANCH  23  29
ATOM     28  C   UNL     1      -0.253   1.612  -0.343  0.00  0.00    +0.032 C 
ATOM     29  C   UNL     1      -0.004   0.150   0.034  0.00  0.00    +0.101 C 
ATOM     30  C   UNL     1       0.728   0.087   1.376  0.00  0.00    +0.032 C 
ENDBRANCH  23  29
ENDBRANCH  19  25
ENDBRANCH   1  20
TORSDOF 4
