REMARK  Name = ZINC35664575
REMARK  12 active torsions:
REMARK  status: ('A' for Active; 'I' for Inactive)
REMARK    1  A    between atoms: C_1  and  C_2
REMARK    2  A    between atoms: C_2  and  O_3
REMARK    3  A    between atoms: O_3  and  C_4
REMARK    4  A    between atoms: C_4  and  C_6
REMARK    5  A    between atoms: C_7  and  C_23
REMARK    6  A    between atoms: N_8  and  C_20
REMARK    7  A    between atoms: C_12  and  C_14
REMARK    8  A    between atoms: C_20  and  C_21
REMARK    9  A    between atoms: C_23  and  N_24
REMARK   10  A    between atoms: C_31  and  C_33
REMARK   11  A    between atoms: C_37  and  O_39
REMARK   12  A    between atoms: O_39  and  C_40
REMARK                            x       y       z     vdW  Elec       q    Type
REMARK                         _______ _______ _______ _____ _____    ______ ____
ROOT
ATOM      1  C   UNL     1      -3.872  -4.427  -0.868  0.00  0.00    +0.076 C 
ATOM      2  C   UNL     1      -2.888  -3.992  -0.051  0.00  0.00    +0.011 C 
ATOM      3  N   UNL     1      -3.000  -2.808   0.619  0.00  0.00    -0.257 N 
ATOM      4  C   UNL     1      -4.064  -2.000   0.526  0.00  0.00    +0.307 C 
ATOM      5  O   UNL     1      -4.072  -0.964   1.161  0.00  0.00    -0.252 OA
ATOM      6  N   UNL     1      -5.125  -2.297  -0.250  0.00  0.00    -0.288 N 
ATOM      7  C   UNL     1      -5.100  -3.552  -1.020  0.00  0.00    +0.143 C 
ATOM      8  H   UNL     1      -5.886  -1.698  -0.302  0.00  0.00    +0.151 HD
ENDROOT
BRANCH   7   9
ATOM      9  C   UNL     1      -6.302  -4.365  -0.613  0.00  0.00    -0.023 A 
ATOM     10  C   UNL     1      -6.607  -4.526   0.726  0.00  0.00    +0.006 A 
ATOM     11  C   UNL     1      -7.710  -5.271   1.099  0.00  0.00    +0.000 A 
ATOM     12  C   UNL     1      -8.508  -5.856   0.133  0.00  0.00    +0.000 A 
ATOM     13  C   UNL     1      -8.203  -5.695  -1.206  0.00  0.00    +0.000 A 
ATOM     14  C   UNL     1      -7.103  -4.946  -1.579  0.00  0.00    +0.006 A 
ENDBRANCH   7   9
BRANCH   1  15
ATOM     15  C   UNL     1      -3.757  -5.653  -1.563  0.00  0.00    +0.339 C 
ATOM     16  O   UNL     1      -2.725  -6.295  -1.499  0.00  0.00    -0.245 OA
BRANCH  15  17
ATOM     17  O   UNL     1      -4.792  -6.112  -2.298  0.00  0.00    -0.462 OA
BRANCH  17  19
ATOM     18  C   UNL     1      -5.878  -7.712  -3.748  0.00  0.00    +0.048 C 
ATOM     19  C   UNL     1      -4.607  -7.358  -2.973  0.00  0.00    +0.229 C 
ENDBRANCH  17  19
ENDBRANCH  15  17
ENDBRANCH   1  15
BRANCH   3  20
ATOM     20  C   UNL     1      -1.895  -2.398   1.488  0.00  0.00    +0.141 C 
BRANCH  20  21
ATOM     21  C   UNL     1      -0.966  -1.489   0.725  0.00  0.00    -0.015 C 
ATOM     22  C   UNL     1      -0.714  -0.284   1.174  0.00  0.00    +0.005 C 
ENDBRANCH  20  21
ENDBRANCH   3  20
BRANCH   2  23
ATOM     23  C   UNL     1      -1.647  -4.829   0.124  0.00  0.00    -0.026 C 
BRANCH  23  24
ATOM     24  N   UNL     1      -1.794  -5.680   1.312  0.00  0.00    +0.384 N 
ATOM     25  C   UNL     1      -0.497  -6.284   1.610  0.00  0.00    -0.077 C 
ATOM     26  C   UNL     1      -0.393  -6.535   3.098  0.00  0.00    +0.000 C 
ATOM     27  C   UNL     1      -0.850  -7.973   3.408  0.00  0.00    +0.106 C 
ATOM     28  N   UNL     1      -2.023  -8.345   2.592  0.00  0.00    -0.299 N 
ATOM     29  C   UNL     1      -3.120  -7.430   2.349  0.00  0.00    +0.089 C 
ATOM     30  C   UNL     1      -2.839  -6.600   1.075  0.00  0.00    -0.059 C 
ATOM     31  C   UNL     1      -2.075  -9.579   2.053  0.00  0.00    +0.247 C 
ATOM     32  O   UNL     1      -2.975  -9.872   1.290  0.00  0.00    -0.270 OA
ATOM     33  H   UNL     1      -2.056  -5.094   2.091  0.00  0.00    -0.081 HD
BRANCH  31  34
ATOM     34  C   UNL     1      -1.038 -10.577   2.390  0.00  0.00    +0.040 A 
ATOM     35  C   UNL     1      -0.501 -10.623   3.679  0.00  0.00    +0.013 A 
ATOM     36  C   UNL     1       0.467 -11.555   3.990  0.00  0.00    +0.004 A 
ATOM     37  C   UNL     1       0.909 -12.446   3.029  0.00  0.00    +0.045 A 
ATOM     38  C   UNL     1       0.382 -12.408   1.745  0.00  0.00    +0.121 A 
ATOM     39  C   UNL     1      -0.595 -11.480   1.424  0.00  0.00    +0.058 A 
BRANCH  38  40
ATOM     40  O   UNL     1       0.821 -13.286   0.805  0.00  0.00    -0.495 OA
ATOM     41  C   UNL     1       1.826 -14.219   1.207  0.00  0.00    +0.277 C 
ENDBRANCH  38  40
ENDBRANCH  31  34
ENDBRANCH  23  24
ENDBRANCH   2  23
TORSDOF 10
