REMARK  Name = ZINC10348987
REMARK  7 active torsions:
REMARK  status: ('A' for Active; 'I' for Inactive)
REMARK    1  A    between atoms: C_1  and  C_2
REMARK    2  A    between atoms: C_7  and  N_8
REMARK    3  A    between atoms: C_9  and  C_31
REMARK    4  A    between atoms: C_12  and  S_13
REMARK    5  A    between atoms: S_13  and  C_14
REMARK    6  A    between atoms: C_14  and  C_15
REMARK    7  A    between atoms: C_19  and  C_28
REMARK                            x       y       z     vdW  Elec       q    Type
REMARK                         _______ _______ _______ _____ _____    ______ ____
ROOT
ATOM      1  C   UNL     1      -0.086   2.067  -2.244  0.00  0.00    +0.230 C 
ATOM      2  O   UNL     1       1.121   2.185  -2.215  0.00  0.00    -0.274 OA
ATOM      3  N   UNL     1      -0.742   1.583  -1.171  0.00  0.00    -0.264 N 
ATOM      4  C   UNL     1      -2.213   1.515  -1.144  0.00  0.00    +0.168 C 
ATOM      5  C   UNL     1      -2.606   0.168  -0.521  0.00  0.00    +0.276 C 
ATOM      6  O   UNL     1      -2.035   0.083   0.788  0.00  0.00    -0.476 OA
ATOM      7  C   UNL     1      -0.714   0.372   0.924  0.00  0.00    +0.143 A 
ATOM      8  C   UNL     1      -0.047   1.124  -0.039  0.00  0.00    +0.078 A 
ATOM      9  C   UNL     1       1.298   1.419   0.116  0.00  0.00    +0.027 A 
ATOM     10  C   UNL     1       1.979   0.963   1.230  0.00  0.00    +0.002 A 
ATOM     11  C   UNL     1       1.319   0.214   2.187  0.00  0.00    +0.004 A 
ATOM     12  C   UNL     1      -0.023  -0.082   2.037  0.00  0.00    +0.047 A 
ENDROOT
BRANCH   5  13
ATOM     13  C   UNL     1      -4.107   0.073  -0.427  0.00  0.00    +0.253 C 
ATOM     14  O   UNL     1      -4.645   0.024   0.659  0.00  0.00    -0.272 OA
ATOM     15  N   UNL     1      -4.852   0.043  -1.550  0.00  0.00    -0.326 N 
ATOM     16  H   UNL     1      -4.422   0.083  -2.419  0.00  0.00    +0.145 HD
ATOM     17  H   UNL     1      -5.818  -0.018  -1.490  0.00  0.00    +0.145 HD
ENDBRANCH   5  13
BRANCH   1  18
ATOM     18  C   UNL     1      -0.852   2.463  -3.480  0.00  0.00    +0.173 C 
BRANCH  18  19
ATOM     19  S   UNL     1       0.311   2.932  -4.786  0.00  0.00    -0.076 S 
BRANCH  19  24
ATOM     20  N   UNL     1      -0.504   3.773  -7.330  0.00  0.00    -0.274 N 
ATOM     21  C   UNL     1      -1.700   3.953  -7.973  0.00  0.00    +0.135 A 
ATOM     22  N   UNL     1      -2.643   3.645  -7.128  0.00  0.00    -0.133 NA
ATOM     23  N   UNL     1      -2.132   3.281  -6.007  0.00  0.00    -0.122 NA
ATOM     24  C   UNL     1      -0.822   3.336  -6.073  0.00  0.00    +0.197 A 
ATOM     25  C   UNL     1      -1.889   4.425  -9.391  0.00  0.00    +0.088 C 
BRANCH  20  32
ATOM     26  C   UNL     1       0.653   6.357  -7.034  0.00  0.00    +0.046 C 
ATOM     27  C   UNL     1       1.380   5.234  -7.729  0.00  0.00    -0.027 A 
ATOM     28  C   UNL     1       2.647   5.443  -8.240  0.00  0.00    +0.005 A 
ATOM     29  C   UNL     1       3.312   4.415  -8.883  0.00  0.00    +0.000 A 
ATOM     30  C   UNL     1       2.714   3.175  -9.011  0.00  0.00    +0.002 A 
ATOM     31  C   UNL     1       1.450   2.959  -8.498  0.00  0.00    +0.026 A 
ATOM     32  C   UNL     1       0.780   3.989  -7.852  0.00  0.00    +0.053 A 
ENDBRANCH  20  32
ENDBRANCH  19  24
ENDBRANCH  18  19
ENDBRANCH   1  18
TORSDOF 5
