REMARK  Name = ZINC06418097
REMARK  7 active torsions:
REMARK  status: ('A' for Active; 'I' for Inactive)
REMARK    1  A    between atoms: C_1  and  C_2
REMARK    2  A    between atoms: C_2  and  N_3
REMARK    3  A    between atoms: N_3  and  C_4
REMARK    4  A    between atoms: N_3  and  C_6
REMARK    5  A    between atoms: C_4  and  C_5
REMARK    6  A    between atoms: C_9  and  C_12
REMARK    7  A    between atoms: N_20  and  C_21
REMARK                            x       y       z     vdW  Elec       q    Type
REMARK                         _______ _______ _______ _____ _____    ______ ____
ROOT
ATOM      1  C   UNL     1      -2.096  -4.769   0.330  0.00  0.00    +0.191 C 
ATOM      2  N   UNL     1      -2.946  -5.595   1.198  0.00  0.00    -0.307 N 
ATOM      3  C   UNL     1      -3.945  -6.346   0.576  0.00  0.00    +0.125 A 
ATOM      4  C   UNL     1      -3.745  -6.689  -0.749  0.00  0.00    +0.115 A 
ATOM      5  S   UNL     1      -5.193  -7.618  -1.141  0.00  0.00    -0.055 S 
ATOM      6  C   UNL     1      -5.959  -7.519   0.357  0.00  0.00    +0.132 A 
ATOM      7  S   UNL     1      -7.468  -8.183   0.818  0.00  0.00    -0.024 S 
ATOM      8  N   UNL     1      -5.103  -6.792   1.109  0.00  0.00    -0.285 N 
ATOM      9  C   UNL     1      -2.626  -6.324  -1.496  0.00  0.00    +0.256 C 
ATOM     10  O   UNL     1      -2.438  -6.761  -2.618  0.00  0.00    -0.269 OA
ATOM     11  N   UNL     1      -1.758  -5.459  -0.914  0.00  0.00    -0.289 N 
ATOM     12  H   UNL     1      -2.818  -5.618   2.159  0.00  0.00    +0.150 HD
ATOM     13  H   UNL     1      -0.898  -5.297  -1.331  0.00  0.00    +0.151 HD
ENDROOT
BRANCH   1  17
ATOM     14  C   UNL     1      -4.167  -1.152  -0.608  0.00  0.00    +0.013 A 
ATOM     15  C   UNL     1      -3.246  -1.671  -1.498  0.00  0.00    +0.022 A 
ATOM     16  C   UNL     1      -2.576  -2.842  -1.194  0.00  0.00    +0.009 A 
ATOM     17  C   UNL     1      -2.826  -3.492  -0.001  0.00  0.00    -0.009 A 
ATOM     18  C   UNL     1      -3.747  -2.972   0.890  0.00  0.00    +0.009 A 
ATOM     19  C   UNL     1      -4.414  -1.800   0.589  0.00  0.00    +0.022 A 
BRANCH  14  20
ATOM     20  N   UNL     1      -4.845   0.032  -0.914  0.00  0.00    -0.394 NA
ATOM     21  H   UNL     1      -5.470   0.267  -0.158  0.00  0.00    +0.126 HD
BRANCH  20  23
ATOM     22  C   UNL     1      -3.121   1.361   0.208  0.00  0.00    +0.022 C 
ATOM     23  C   UNL     1      -3.874   1.118  -1.102  0.00  0.00    +0.081 C 
ENDBRANCH  20  23
BRANCH  20  24
ATOM     24  C   UNL     1      -5.618  -0.153  -2.150  0.00  0.00    +0.081 C 
ATOM     25  C   UNL     1      -6.705  -1.204  -1.919  0.00  0.00    +0.022 C 
ENDBRANCH  20  24
ENDBRANCH  14  20
ENDBRANCH   1  17
BRANCH   8  26
ATOM     26  C   UNL     1      -5.418  -6.501   2.443  0.00  0.00    +0.049 A 
ATOM     27  C   UNL     1      -4.915  -7.293   3.465  0.00  0.00    +0.026 A 
ATOM     28  C   UNL     1      -5.227  -7.003   4.779  0.00  0.00    +0.002 A 
ATOM     29  C   UNL     1      -6.040  -5.926   5.077  0.00  0.00    +0.000 A 
ATOM     30  C   UNL     1      -6.544  -5.135   4.060  0.00  0.00    +0.002 A 
ATOM     31  C   UNL     1      -6.230  -5.416   2.745  0.00  0.00    +0.026 A 
ENDBRANCH   8  26
TORSDOF 5
