REMARK  Name = ZINC08185783
REMARK  9 active torsions:
REMARK  status: ('A' for Active; 'I' for Inactive)
REMARK    1  A    between atoms: C_1  and  C_2
REMARK    2  A    between atoms: C_2  and  C_4
REMARK    3  A    between atoms: C_2  and  N_54
REMARK    4  A    between atoms: C_9  and  C_11
REMARK    5  A    between atoms: C_9  and  C_12
REMARK    6  A    between atoms: C_9  and  N_54
REMARK    7  A    between atoms: N_14  and  C_15
REMARK    8  A    between atoms: C_18  and  S_21
REMARK    9  A    between atoms: S_21  and  N_24
REMARK                            x       y       z     vdW  Elec       q    Type
REMARK                         _______ _______ _______ _____ _____    ______ ____
ROOT
ATOM      1  C   UNL     1       3.202   8.743   2.490  0.00  0.00    +0.203 C 
ATOM      2  O   UNL     1       3.885   9.655   2.908  0.00  0.00    -0.277 OA
ATOM      3  N   UNL     1       3.035   7.631   3.234  0.00  0.00    -0.287 N 
ATOM      4  H   UNL     1       2.556   6.871   2.869  0.00  0.00    +0.155 HD
ENDROOT
BRANCH   3   5
ATOM      5  C   UNL     1       3.552   7.574   4.533  0.00  0.00    +0.033 A 
ATOM      6  C   UNL     1       4.038   6.375   5.036  0.00  0.00    +0.025 A 
ATOM      7  C   UNL     1       4.553   6.323   6.317  0.00  0.00    +0.030 A 
ATOM      8  C   UNL     1       4.574   7.462   7.102  0.00  0.00    +0.106 A 
ATOM      9  C   UNL     1       4.085   8.656   6.606  0.00  0.00    +0.030 A 
ATOM     10  C   UNL     1       3.574   8.716   5.324  0.00  0.00    +0.025 A 
BRANCH   8  11
ATOM     11  S   UNL     1       5.224   7.390   8.738  0.00  0.00    +0.061 S 
ATOM     12  O   UNL     1       6.118   6.285   8.771  0.00  0.00    -0.153 OA
ATOM     13  O   UNL     1       5.631   8.710   9.071  0.00  0.00    -0.153 OA
BRANCH  11  14
ATOM     14  N   UNL     1       3.968   7.012   9.748  0.00  0.00    -0.177 NA
ATOM     15  C   UNL     1       3.156   8.073  10.362  0.00  0.00    +0.109 C 
ATOM     16  C   UNL     1       1.678   7.800  10.047  0.00  0.00    +0.017 C 
ATOM     17  C   UNL     1       1.316   6.386  10.508  0.00  0.00    +0.003 C 
ATOM     18  C   UNL     1       2.166   5.367   9.746  0.00  0.00    +0.017 C 
ATOM     19  C   UNL     1       3.647   5.611  10.053  0.00  0.00    +0.109 C 
ENDBRANCH  11  14
ENDBRANCH   8  11
ENDBRANCH   3   5
BRANCH   1  20
ATOM     20  C   UNL     1       2.542   8.852   1.140  0.00  0.00    +0.014 C 
ATOM     21  C   UNL     1       1.025   8.743   1.304  0.00  0.00    -0.004 C 
BRANCH  20  22
ATOM     22  N   UNL     1       2.871  10.158   0.536  0.00  0.00    +0.391 N 
ATOM     23  H   UNL     1       2.098  10.454  -0.071  0.00  0.00    -0.084 HD
ATOM     24  H   UNL     1       3.006  10.851   1.282  0.00  0.00    -0.084 HD
BRANCH  22  26
ATOM     25  C   UNL     1       3.783   9.450  -1.630  0.00  0.00    -0.008 C 
ATOM     26  C   UNL     1       4.107  10.055  -0.263  0.00  0.00    -0.036 C 
BRANCH  26  27
ATOM     27  C   UNL     1       4.690  11.432  -0.448  0.00  0.00    -0.024 A 
ATOM     28  C   UNL     1       5.989  11.820  -0.416  0.00  0.00    +0.009 A 
ATOM     29  C   UNL     1       6.295  13.153  -0.620  0.00  0.00    +0.008 A 
ATOM     30  C   UNL     1       5.288  14.033  -0.836  0.00  0.00    +0.045 A 
ATOM     31  S   UNL     1       3.852  12.976  -0.767  0.00  0.00    -0.103 S 
ENDBRANCH  26  27
ENDBRANCH  22  26
ENDBRANCH  20  22
ENDBRANCH   1  20
TORSDOF 7
