REMARK  Name = ZINC00751145
REMARK  13 active torsions:
REMARK  status: ('A' for Active; 'I' for Inactive)
REMARK    1  A    between atoms: C_1  and  C_2
REMARK    2  A    between atoms: C_2  and  C_3
REMARK    3  A    between atoms: C_2  and  C_4
REMARK    4  A    between atoms: C_4  and  N_5
REMARK    5  A    between atoms: N_5  and  C_6
REMARK    6  A    between atoms: C_6  and  C_7
REMARK    7  A    between atoms: N_9  and  C_10
REMARK    8  A    between atoms: C_12  and  C_22
REMARK    9  A    between atoms: N_14  and  C_15
REMARK   10  A    between atoms: C_22  and  C_23
REMARK   11  A    between atoms: C_22  and  C_24
REMARK   12  A    between atoms: C_22  and  C_25
REMARK   13  A    between atoms: C_26  and  C_28
REMARK                            x       y       z     vdW  Elec       q    Type
REMARK                         _______ _______ _______ _____ _____    ______ ____
ROOT
ATOM      1  C   UNL     1       6.673  -1.237   4.757  0.00  0.00    +0.236 C 
ATOM      2  O   UNL     1       5.612  -0.995   5.293  0.00  0.00    -0.274 OA
ATOM      3  N   UNL     1       7.822  -1.118   5.451  0.00  0.00    -0.269 N 
ATOM      4  H   UNL     1       8.670  -1.312   5.022  0.00  0.00    +0.156 HD
ENDROOT
BRANCH   3   5
ATOM      5  C   UNL     1       7.791  -0.715   6.786  0.00  0.00    +0.129 A 
ATOM      6  C   UNL     1       6.679  -0.413   7.511  0.00  0.00    +0.069 A 
ATOM      7  C   UNL     1       7.089  -0.059   8.799  0.00  0.00    +0.071 A 
ATOM      8  N   UNL     1       8.394  -0.141   8.856  0.00  0.00    -0.169 NA
ATOM      9  N   UNL     1       8.866  -0.559   7.605  0.00  0.00    -0.218 N 
BRANCH   9  10
ATOM     10  C   UNL     1      10.207  -0.773   7.257  0.00  0.00    +0.068 A 
ATOM     11  C   UNL     1      10.543  -1.791   6.375  0.00  0.00    +0.029 A 
ATOM     12  C   UNL     1      11.864  -1.997   6.030  0.00  0.00    +0.022 A 
ATOM     13  C   UNL     1      12.855  -1.196   6.571  0.00  0.00    +0.041 A 
ATOM     14  C   UNL     1      12.523  -0.184   7.455  0.00  0.00    +0.022 A 
ATOM     15  C   UNL     1      11.203   0.029   7.799  0.00  0.00    +0.029 A 
ATOM     16 CL   UNL     1      14.515  -1.461   6.141  0.00  0.00    -0.084 Cl
ENDBRANCH   9  10
BRANCH   7  17
ATOM     17  C   UNL     1       6.182   0.350   9.931  0.00  0.00    +0.006 C 
ATOM     18  C   UNL     1       5.477  -0.887  10.491  0.00  0.00    +0.017 C 
ATOM     19  C   UNL     1       7.011   1.008  11.036  0.00  0.00    +0.017 C 
ATOM     20  C   UNL     1       5.138   1.342   9.416  0.00  0.00    +0.017 C 
ENDBRANCH   7  17
ENDBRANCH   3   5
BRANCH   1  21
ATOM     21  C   UNL     1       6.706  -1.672   3.314  0.00  0.00    +0.204 C 
BRANCH  21  22
ATOM     22  N   UNL     1       5.340  -1.725   2.788  0.00  0.00    -0.288 N 
ATOM     23  C   UNL     1       4.797  -0.634   2.212  0.00  0.00    +0.247 C 
ATOM     24  O   UNL     1       5.478   0.355   2.020  0.00  0.00    -0.270 OA
BRANCH  23  25
ATOM     25  C   UNL     1       3.375  -0.639   1.815  0.00  0.00    +0.041 A 
ATOM     26  C   UNL     1       2.838  -1.744   1.150  0.00  0.00    +0.017 A 
ATOM     27  C   UNL     1       1.511  -1.747   0.780  0.00  0.00    +0.050 A 
ATOM     28  C   UNL     1       0.703  -0.655   1.066  0.00  0.00    +0.166 A 
ATOM     29  C   UNL     1       1.234   0.452   1.730  0.00  0.00    +0.167 A 
ATOM     30  C   UNL     1       2.564   0.461   2.103  0.00  0.00    +0.062 A 
ATOM     31  O   UNL     1       0.244   1.379   1.889  0.00  0.00    -0.453 OA
ATOM     32  C   UNL     1      -0.988   0.665   1.683  0.00  0.00    +0.466 C 
ATOM     33  O   UNL     1      -0.615  -0.418   0.810  0.00  0.00    -0.453 OA
ENDBRANCH  23  25
BRANCH  22  34
ATOM     34  C   UNL     1       4.563  -2.963   2.889  0.00  0.00    +0.111 C 
BRANCH  34  36
ATOM     35  C   UNL     1       6.391  -4.362   1.916  0.00  0.00    +0.009 C 
ATOM     36  C   UNL     1       4.944  -3.898   1.739  0.00  0.00    +0.000 C 
ATOM     37  C   UNL     1       4.014  -5.113   1.741  0.00  0.00    +0.009 C 
ENDBRANCH  34  36
ENDBRANCH  22  34
ENDBRANCH  21  22
ENDBRANCH   1  21
TORSDOF 8
