REMARK  Name = ZINC20709209
REMARK  5 active torsions:
REMARK  status: ('A' for Active; 'I' for Inactive)
REMARK    1  A    between atoms: N_9  and  S_10
REMARK    2  A    between atoms: S_10  and  C_13
REMARK    3  A    between atoms: C_26  and  C_29
REMARK    4  A    between atoms: C_31  and  N_36
REMARK    5  A    between atoms: C_34  and  O_35
REMARK                            x       y       z     vdW  Elec       q    Type
REMARK                         _______ _______ _______ _____ _____    ______ ____
ROOT
ATOM      1  C   UNL     1       2.232  -2.378  -1.739  0.00  0.00    +0.109 A 
ATOM      2  C   UNL     1       3.411  -2.145  -2.424  0.00  0.00    +0.030 A 
ATOM      3  C   UNL     1       3.534  -2.528  -3.743  0.00  0.00    +0.025 A 
ATOM      4  C   UNL     1       2.474  -3.146  -4.396  0.00  0.00    +0.031 A 
ATOM      5  C   UNL     1       1.281  -3.370  -3.700  0.00  0.00    -0.018 A 
ATOM      6  C   UNL     1       1.173  -2.996  -2.378  0.00  0.00    +0.034 A 
ATOM      7  C   UNL     1       0.169  -4.008  -4.438  0.00  0.00    +0.049 C 
ATOM      8  C   UNL     1      -0.884  -4.795  -3.748  0.00  0.00    -0.023 C 
ATOM      9  C   UNL     1      -1.307  -5.748  -4.569  0.00  0.00    -0.030 C 
ATOM     10  C   UNL     1      -0.529  -5.689  -5.885  0.00  0.00    +0.033 C 
ATOM     11  C   UNL     1       0.784  -5.033  -5.438  0.00  0.00    +0.029 C 
ATOM     12  C   UNL     1       1.526  -4.199  -6.467  0.00  0.00    +0.108 C 
ATOM     13  N   UNL     1       2.629  -3.545  -5.729  0.00  0.00    -0.336 N 
ATOM     14  H   UNL     1       3.592  -3.363  -6.228  0.00  0.00    +0.147 HD
ENDROOT
BRANCH  12  15
ATOM     15  C   UNL     1       0.607  -3.161  -7.057  0.00  0.00    +0.017 A 
ATOM     16  C   UNL     1       0.521  -1.907  -6.484  0.00  0.00    +0.041 A 
ATOM     17  C   UNL     1      -0.318  -0.953  -7.028  0.00  0.00    +0.127 A 
ATOM     18  C   UNL     1      -1.083  -1.254  -8.140  0.00  0.00    +0.036 A 
ATOM     19  C   UNL     1      -1.004  -2.508  -8.714  0.00  0.00    +0.048 A 
ATOM     20  C   UNL     1      -0.159  -3.466  -8.173  0.00  0.00    +0.122 A 
BRANCH  17  21
ATOM     21  N   UNL     1      -0.403   0.392  -6.415  0.00  0.00    +0.056 N 
ATOM     22  O   UNL     1      -1.147   1.232  -6.891  0.00  0.00    -0.126 OA
ATOM     23  O   UNL     1       0.269   0.659  -5.436  0.00  0.00    -0.126 OA
ENDBRANCH  17  21
BRANCH  20  24
ATOM     24  O   UNL     1      -0.081  -4.701  -8.735  0.00  0.00    -0.506 OA
ATOM     25  H   UNL     1      -0.688  -4.941  -9.620  0.00  0.00    +0.292 HD
ENDBRANCH  20  24
ENDBRANCH  12  15
BRANCH   1  26
ATOM     26  S   UNL     1       2.082  -1.894  -0.052  0.00  0.00    +0.075 S 
ATOM     27  O   UNL     1       3.402  -1.835   0.473  0.00  0.00    -0.150 OA
ATOM     28  O   UNL     1       1.072  -2.715   0.518  0.00  0.00    -0.150 OA
BRANCH  26  37
ATOM     29  C   UNL     1       3.484   3.315  -0.068  0.00  0.00    +0.000 A 
ATOM     30  C   UNL     1       4.266   2.175  -0.087  0.00  0.00    +0.002 A 
ATOM     31  C   UNL     1       3.676   0.928  -0.077  0.00  0.00    +0.025 A 
ATOM     32  C   UNL     1       2.285   0.808  -0.049  0.00  0.00    +0.054 A 
ATOM     33  C   UNL     1       1.510   1.957  -0.030  0.00  0.00    -0.023 A 
ATOM     34  C   UNL     1       2.106   3.204  -0.040  0.00  0.00    +0.005 A 
ATOM     35  C   UNL     1       0.053   1.554  -0.002  0.00  0.00    +0.058 C 
ATOM     36  C   UNL     1       0.078   0.017  -0.007  0.00  0.00    +0.136 C 
ATOM     37  N   UNL     1       1.498  -0.345  -0.036  0.00  0.00    -0.202 N 
ENDBRANCH  26  37
ENDBRANCH   1  26
TORSDOF 5
