REMARK  Name = ZINC04236997
REMARK  12 active torsions:
REMARK  status: ('A' for Active; 'I' for Inactive)
REMARK    1  A    between atoms: C_1  and  C_2
REMARK    2  A    between atoms: C_5  and  O_38
REMARK    3  A    between atoms: C_7  and  C_35
REMARK    4  A    between atoms: C_7  and  C_36
REMARK    5  A    between atoms: C_17  and  C_19
REMARK    6  A    between atoms: C_19  and  C_20
REMARK    7  A    between atoms: C_20  and  C_21
REMARK    8  A    between atoms: C_20  and  C_22
REMARK    9  A    between atoms: C_20  and  C_23
REMARK   10  A    between atoms: C_24  and  C_26
REMARK   11  A    between atoms: C_26  and  C_27
REMARK   12  A    between atoms: C_36  and  O_37
REMARK                            x       y       z     vdW  Elec       q    Type
REMARK                         _______ _______ _______ _____ _____    ______ ____
ROOT
ATOM      1  C   UNL     1      -2.174  -0.136   0.178  0.00  0.00    +0.012 C 
ATOM      2  C   UNL     1      -1.997   1.319   0.617  0.00  0.00    -0.019 C 
ATOM      3  C   UNL     1      -2.851   1.588   1.860  0.00  0.00    +0.010 C 
ATOM      4  C   UNL     1      -2.381   0.722   3.027  0.00  0.00    +0.032 C 
ATOM      5  C   UNL     1      -0.925   1.073   3.345  0.00  0.00    +0.123 C 
ATOM      6  C   UNL     1      -0.065   0.760   2.123  0.00  0.00    +0.021 C 
ATOM      7  C   UNL     1      -0.521   1.594   0.923  0.00  0.00    +0.011 C 
ATOM      8  C   UNL     1       0.329   1.158  -0.286  0.00  0.00    +0.049 C 
ATOM      9  C   UNL     1      -0.299   1.673  -1.533  0.00  0.00    +0.015 A 
ATOM     10  C   UNL     1      -1.553   2.170  -1.687  0.00  0.00    +0.058 A 
ATOM     11  N   UNL     1      -1.878   2.565  -2.916  0.00  0.00    -0.229 NA
ATOM     12  C   UNL     1      -1.035   2.483  -3.925  0.00  0.00    +0.165 A 
ATOM     13  S   UNL     1       0.372   1.796  -3.169  0.00  0.00    -0.057 S 
ATOM     14  N   UNL     1      -1.223   2.850  -5.252  0.00  0.00    -0.265 N 
ATOM     15  C   UNL     1      -0.227   2.685  -6.144  0.00  0.00    +0.219 C 
ATOM     16  O   UNL     1       0.834   2.216  -5.789  0.00  0.00    -0.275 OA
ATOM     17  C   UNL     1      -2.492   2.255  -0.493  0.00  0.00    +0.054 C 
ATOM     18  C   UNL     1       1.397   1.082   2.436  0.00  0.00    +0.016 C 
ATOM     19  H   UNL     1      -2.071   3.225  -5.536  0.00  0.00    +0.157 HD
ENDROOT
BRANCH   5  20
ATOM     20  O   UNL     1      -0.477   0.295   4.458  0.00  0.00    -0.391 OA
ATOM     21  H   UNL     1      -0.987   0.436   5.267  0.00  0.00    +0.210 HD
ENDBRANCH   5  20
BRANCH  15  22
ATOM     22  C   UNL     1      -0.430   3.083  -7.583  0.00  0.00    +0.102 C 
BRANCH  22  23
ATOM     23  C   UNL     1       0.845   2.794  -8.378  0.00  0.00    -0.029 C 
ATOM     24  C   UNL     1       1.165   1.300  -8.303  0.00  0.00    +0.011 C 
ATOM     25  C   UNL     1       0.638   3.198  -9.839  0.00  0.00    +0.011 C 
ATOM     26  C   UNL     1       2.007   3.595  -7.787  0.00  0.00    +0.011 C 
ENDBRANCH  22  23
ENDBRANCH  15  22
BRANCH  17  27
ATOM     27  C   UNL     1      -3.900   1.837  -0.922  0.00  0.00    +0.106 C 
BRANCH  27  28
ATOM     28  C   UNL     1      -4.463   2.865  -1.869  0.00  0.00    +0.216 C 
ATOM     29  O   UNL     1      -3.803   3.836  -2.172  0.00  0.00    -0.276 OA
ATOM     30  N   UNL     1      -5.700   2.704  -2.380  0.00  0.00    -0.301 N 
ATOM     31  C   UNL     1      -6.509   1.530  -2.027  0.00  0.00    +0.108 C 
ATOM     32  C   UNL     1      -7.870   2.014  -1.503  0.00  0.00    +0.019 C 
ATOM     33  C   UNL     1      -8.515   2.931  -2.544  0.00  0.00    +0.003 C 
ATOM     34  C   UNL     1      -7.623   4.154  -2.770  0.00  0.00    +0.019 C 
ATOM     35  C   UNL     1      -6.262   3.698  -3.305  0.00  0.00    +0.108 C 
ENDBRANCH  27  28
ENDBRANCH  17  27
BRANCH   6  36
ATOM     36  C   UNL     1      -0.194  -0.726   1.780  0.00  0.00    +0.165 C 
BRANCH  36  37
ATOM     37  O   UNL     1       0.396  -1.508   2.820  0.00  0.00    -0.394 OA
ATOM     38  H   UNL     1       0.350  -2.462   2.669  0.00  0.00    +0.209 HD
ENDBRANCH  36  37
ENDBRANCH   6  36
TORSDOF 7
