REMARK  Name = ZINC63010001
REMARK  3 active torsions:
REMARK  status: ('A' for Active; 'I' for Inactive)
REMARK    1  A    between atoms: C_3  and  C_8
REMARK    2  A    between atoms: C_10  and  C_13
REMARK    3  A    between atoms: C_16  and  N_20
REMARK                            x       y       z     vdW  Elec       q    Type
REMARK                         _______ _______ _______ _____ _____    ______ ____
ROOT
ATOM      1  C   UNL     1       3.660   2.166  -0.022  0.00  0.00    +0.202 A 
ATOM      2  N   UNL     1       4.889   1.626  -0.042  0.00  0.00    -0.187 NA
ATOM      3  C   UNL     1       5.795   2.576  -0.045  0.00  0.00    +0.259 A 
ATOM      4  O   UNL     1       5.161   3.762  -0.027  0.00  0.00    -0.332 OA
ATOM      5  N   UNL     1       3.772   3.472  -0.017  0.00  0.00    -0.056 NA
ENDROOT
BRANCH   1   8
ATOM      6  C   UNL     1      -0.017   1.379   0.010  0.00  0.00    +0.002 A 
ATOM      7  C   UNL     1       1.168   2.088   0.002  0.00  0.00    +0.012 A 
ATOM      8  C   UNL     1       2.384   1.408  -0.013  0.00  0.00    +0.023 A 
ATOM      9  C   UNL     1       2.398   0.015  -0.021  0.00  0.00    +0.027 A 
ATOM     10  C   UNL     1       1.207  -0.685  -0.013  0.00  0.00    +0.019 A 
ATOM     11  C   UNL     1       0.002  -0.004   0.002  0.00  0.00    +0.015 A 
ATOM     12 BR   UNL     1       1.224  -2.575  -0.024  0.00  0.00    -0.050 Br
ENDBRANCH   1   8
BRANCH   3  13
ATOM     13  C   UNL     1       7.258   2.377  -0.064  0.00  0.00    +0.042 A 
ATOM     14  C   UNL     1       7.788   1.085  -0.088  0.00  0.00    +0.015 A 
ATOM     15  C   UNL     1       9.153   0.901  -0.106  0.00  0.00    +0.026 A 
ATOM     16  C   UNL     1      10.005   2.001  -0.102  0.00  0.00    +0.060 A 
ATOM     17  C   UNL     1       9.480   3.291  -0.079  0.00  0.00    +0.145 A 
ATOM     18  C   UNL     1       8.115   3.481  -0.066  0.00  0.00    +0.053 A 
ATOM     19  F   UNL     1      10.310   4.357  -0.074  0.00  0.00    -0.204 F 
BRANCH  16  20
ATOM     20  N   UNL     1      11.386   1.811  -0.121  0.00  0.00    -0.356 N 
ATOM     21  H   UNL     1      11.752   0.913  -0.137  0.00  0.00    +0.142 HD
ATOM     22  H   UNL     1      11.980   2.577  -0.118  0.00  0.00    +0.142 HD
ENDBRANCH  16  20
ENDBRANCH   3  13
TORSDOF 3
