REMARK  Name = ZINC39666000
REMARK  8 active torsions:
REMARK  status: ('A' for Active; 'I' for Inactive)
REMARK    1  A    between atoms: C_1  and  C_2
REMARK    2  A    between atoms: C_5  and  O_8
REMARK    3  A    between atoms: O_8  and  C_9
REMARK    4  A    between atoms: C_9  and  C_11
REMARK    5  A    between atoms: C_9  and  C_12
REMARK    6  A    between atoms: C_12  and  N_13
REMARK    7  A    between atoms: C_14  and  C_16
REMARK    8  A    between atoms: C_27  and  C_29
REMARK                            x       y       z     vdW  Elec       q    Type
REMARK                         _______ _______ _______ _____ _____    ______ ____
ROOT
ATOM      1  C   UNL     1       4.658  -6.549   0.312  0.00  0.00    +0.100 C 
ATOM      2  C   UNL     1       4.938  -5.632  -0.899  0.00  0.00    +0.121 C 
ATOM      3  N   UNL     1       6.230  -6.113  -1.442  0.00  0.00    -0.296 N 
ATOM      4  C   UNL     1       6.152  -7.589  -1.324  0.00  0.00    +0.115 C 
ATOM      5  C   UNL     1       5.456  -7.833   0.029  0.00  0.00    -0.004 C 
ATOM      6  C   UNL     1       4.515  -9.029  -0.070  0.00  0.00    -0.010 C 
ATOM      7  C   UNL     1       5.337 -10.302  -0.293  0.00  0.00    -0.082 C 
ATOM      8  N   UNL     1       6.275 -10.483   0.821  0.00  0.00    +0.379 N 
ATOM      9  C   UNL     1       7.235  -9.373   0.852  0.00  0.00    -0.082 C 
ATOM     10  C   UNL     1       6.494  -8.061   1.124  0.00  0.00    -0.010 C 
ATOM     11  C   UNL     1       7.246  -5.376  -1.932  0.00  0.00    +0.247 C 
ATOM     12  O   UNL     1       7.137  -4.168  -2.012  0.00  0.00    -0.270 OA
ATOM     13  H   UNL     1       5.763 -10.507   1.690  0.00  0.00    -0.086 HD
ATOM     14  H   UNL     1       6.772 -11.353   0.702  0.00  0.00    -0.086 HD
ENDROOT
BRANCH  11  15
ATOM     15  C   UNL     1       8.493  -6.036  -2.373  0.00  0.00    +0.040 A 
ATOM     16  C   UNL     1       8.459  -7.343  -2.861  0.00  0.00    +0.033 A 
ATOM     17  C   UNL     1       9.628  -7.955  -3.270  0.00  0.00    +0.043 A 
ATOM     18  C   UNL     1      10.831  -7.274  -3.198  0.00  0.00    +0.040 A 
ATOM     19  C   UNL     1      10.871  -5.977  -2.715  0.00  0.00    +0.043 A 
ATOM     20  C   UNL     1       9.708  -5.353  -2.308  0.00  0.00    +0.033 A 
ATOM     21 CL   UNL     1      12.384  -5.131  -2.627  0.00  0.00    -0.083 Cl
ATOM     22 CL   UNL     1       9.588  -9.581  -3.877  0.00  0.00    -0.083 Cl
ENDBRANCH  11  15
BRANCH   1  24
ATOM     23  N   UNL     1       2.624  -7.095   1.610  0.00  0.00    -0.312 N 
ATOM     24  C   UNL     1       3.186  -6.857   0.408  0.00  0.00    +0.218 C 
ATOM     25  O   UNL     1       2.506  -6.891  -0.596  0.00  0.00    -0.275 OA
ATOM     26  H   UNL     1       3.167  -7.068   2.413  0.00  0.00    +0.149 HD
BRANCH  23  27
ATOM     27  C   UNL     1       1.193  -7.395   1.703  0.00  0.00    +0.148 C 
BRANCH  27  28
ATOM     28  C   UNL     1       0.814  -7.623   3.168  0.00  0.00    +0.187 C 
ATOM     29  C   UNL     1      -0.650  -8.057   3.254  0.00  0.00    +0.053 C 
BRANCH  28  30
ATOM     30  O   UNL     1       0.995  -6.410   3.901  0.00  0.00    -0.488 OA
BRANCH  30  35
ATOM     31  C   UNL     1       2.255  -6.892   9.370  0.00  0.00    +0.044 C 
ATOM     32  C   UNL     1       1.917  -6.763   7.907  0.00  0.00    -0.050 A 
ATOM     33  C   UNL     1       1.621  -7.892   7.165  0.00  0.00    +0.007 A 
ATOM     34  C   UNL     1       1.312  -7.776   5.823  0.00  0.00    +0.046 A 
ATOM     35  C   UNL     1       1.298  -6.526   5.221  0.00  0.00    +0.121 A 
ATOM     36  C   UNL     1       1.595  -5.396   5.968  0.00  0.00    +0.046 A 
ATOM     37  C   UNL     1       1.899  -5.516   7.310  0.00  0.00    +0.007 A 
ENDBRANCH  30  35
ENDBRANCH  28  30
ENDBRANCH  27  28
ENDBRANCH  23  27
ENDBRANCH   1  24
TORSDOF 6
