REMARK  Name = ZINC10505158
REMARK  7 active torsions:
REMARK  status: ('A' for Active; 'I' for Inactive)
REMARK    1  A    between atoms: C_4  and  N_7
REMARK    2  A    between atoms: N_7  and  S_8
REMARK    3  A    between atoms: S_8  and  C_11
REMARK    4  A    between atoms: C_14  and  N_17
REMARK    5  A    between atoms: N_17  and  C_18
REMARK    6  A    between atoms: C_18  and  N_20
REMARK    7  A    between atoms: C_21  and  C_23
REMARK                            x       y       z     vdW  Elec       q    Type
REMARK                         _______ _______ _______ _____ _____    ______ ____
ROOT
ATOM      1  C   UNL     1      -5.946   3.280  -0.290  0.00  0.00    +0.109 A 
ATOM      2  C   UNL     1      -6.071   1.903  -0.329  0.00  0.00    +0.030 A 
ATOM      3  C   UNL     1      -4.945   1.107  -0.399  0.00  0.00    +0.025 A 
ATOM      4  C   UNL     1      -3.685   1.691  -0.430  0.00  0.00    +0.033 A 
ATOM      5  C   UNL     1      -3.562   3.074  -0.386  0.00  0.00    +0.025 A 
ATOM      6  C   UNL     1      -4.692   3.864  -0.321  0.00  0.00    +0.030 A 
ENDROOT
BRANCH   1   7
ATOM      7  S   UNL     1      -7.385   4.292  -0.201  0.00  0.00    +0.072 S 
ATOM      8  O   UNL     1      -7.053   5.527  -0.821  0.00  0.00    -0.150 OA
ATOM      9  O   UNL     1      -8.474   3.489  -0.636  0.00  0.00    -0.150 OA
BRANCH   7  10
ATOM     10  N   UNL     1      -7.652   4.623   1.400  0.00  0.00    -0.216 N 
ATOM     11  H   UNL     1      -8.447   4.283   1.840  0.00  0.00    +0.174 HD
BRANCH  10  15
ATOM     12  C   UNL     1      -4.913   6.920   3.536  0.00  0.00    +0.000 A 
ATOM     13  C   UNL     1      -5.750   7.523   2.615  0.00  0.00    +0.002 A 
ATOM     14  C   UNL     1      -6.659   6.765   1.905  0.00  0.00    +0.024 A 
ATOM     15  C   UNL     1      -6.733   5.394   2.116  0.00  0.00    +0.048 A 
ATOM     16  C   UNL     1      -5.895   4.792   3.046  0.00  0.00    +0.024 A 
ATOM     17  C   UNL     1      -4.984   5.555   3.749  0.00  0.00    +0.002 A 
ENDBRANCH  10  15
ENDBRANCH   7  10
ENDBRANCH   1   7
BRANCH   4  18
ATOM     18  N   UNL     1      -2.542   0.888  -0.501  0.00  0.00    -0.297 N 
ATOM     19  H   UNL     1      -1.783   1.073   0.074  0.00  0.00    +0.154 HD
BRANCH  18  20
ATOM     20  C   UNL     1      -2.496  -0.144  -1.367  0.00  0.00    +0.141 C 
ATOM     21  S   UNL     1      -3.874  -0.538  -2.303  0.00  0.00    -0.018 S 
BRANCH  20  22
ATOM     22  N   UNL     1      -1.364  -0.865  -1.497  0.00  0.00    -0.264 N 
ATOM     23  C   UNL     1      -1.320  -1.899  -2.360  0.00  0.00    +0.250 C 
ATOM     24  O   UNL     1      -2.298  -2.179  -3.024  0.00  0.00    -0.270 OA
ATOM     25  H   UNL     1      -0.583  -0.641  -0.967  0.00  0.00    +0.157 HD
BRANCH  23  26
ATOM     26  C   UNL     1      -0.081  -2.693  -2.497  0.00  0.00    +0.040 A 
ATOM     27  C   UNL     1       1.046  -2.371  -1.740  0.00  0.00    +0.033 A 
ATOM     28  C   UNL     1       2.199  -3.120  -1.869  0.00  0.00    +0.043 A 
ATOM     29  C   UNL     1       2.241  -4.183  -2.755  0.00  0.00    +0.040 A 
ATOM     30  C   UNL     1       1.129  -4.504  -3.514  0.00  0.00    +0.043 A 
ATOM     31  C   UNL     1      -0.032  -3.766  -3.390  0.00  0.00    +0.033 A 
ATOM     32 CL   UNL     1       1.192  -5.838  -4.623  0.00  0.00    -0.083 Cl
ATOM     33 CL   UNL     1       3.599  -2.726  -0.922  0.00  0.00    -0.083 Cl
ENDBRANCH  23  26
ENDBRANCH  20  22
ENDBRANCH  18  20
ENDBRANCH   4  18
TORSDOF 7
