REMARK  Name = ZINC05602660
REMARK  8 active torsions:
REMARK  status: ('A' for Active; 'I' for Inactive)
REMARK    1  A    between atoms: C_1  and  C_2
REMARK    2  A    between atoms: C_5  and  S_8
REMARK    3  A    between atoms: S_8  and  N_11
REMARK    4  A    between atoms: N_14  and  C_15
REMARK    5  A    between atoms: C_19  and  S_21
REMARK    6  A    between atoms: S_21  and  N_24
REMARK    7  A    between atoms: N_24  and  C_25
REMARK    8  A    between atoms: N_24  and  C_26
REMARK                            x       y       z     vdW  Elec       q    Type
REMARK                         _______ _______ _______ _____ _____    ______ ____
ROOT
ATOM      1  N   UNL     1       1.308  -3.053  -1.564  0.00  0.00    -0.169 N 
ATOM      2  C   UNL     1       2.349  -2.775  -2.373  0.00  0.00    +0.323 C 
ATOM      3  O   UNL     1       3.368  -2.298  -1.910  0.00  0.00    -0.251 OA
ATOM      4  N   UNL     1       2.262  -3.025  -3.694  0.00  0.00    -0.268 N 
ATOM      5  H   UNL     1       0.495  -3.433  -1.933  0.00  0.00    +0.178 HD
ATOM      6  H   UNL     1       1.481  -3.476  -4.052  0.00  0.00    +0.156 HD
ENDROOT
BRANCH   4   7
ATOM      7  C   UNL     1       3.298  -2.635  -4.550  0.00  0.00    +0.037 A 
ATOM      8  C   UNL     1       4.021  -1.479  -4.286  0.00  0.00    +0.023 A 
ATOM      9  C   UNL     1       5.046  -1.099  -5.130  0.00  0.00    +0.004 A 
ATOM     10  C   UNL     1       5.345  -1.863  -6.243  0.00  0.00    +0.028 A 
ATOM     11  C   UNL     1       4.624  -3.011  -6.512  0.00  0.00    +0.107 A 
ATOM     12  C   UNL     1       3.601  -3.400  -5.669  0.00  0.00    +0.052 A 
BRANCH  11  13
ATOM     13  S   UNL     1       5.010  -3.981  -7.932  0.00  0.00    +0.060 S 
ATOM     14  O   UNL     1       6.364  -3.700  -8.260  0.00  0.00    -0.153 OA
ATOM     15  O   UNL     1       4.549  -5.298  -7.662  0.00  0.00    -0.153 OA
BRANCH  13  16
ATOM     16  N   UNL     1       4.090  -3.405  -9.183  0.00  0.00    -0.183 NA
ATOM     17  C   UNL     1       4.608  -2.336 -10.041  0.00  0.00    +0.131 C 
ATOM     18  C   UNL     1       2.759  -3.964  -9.431  0.00  0.00    +0.131 C 
ENDBRANCH  13  16
ENDBRANCH  11  13
ENDBRANCH   4   7
BRANCH   1  19
ATOM     19  S   UNL     1       1.415  -2.745   0.060  0.00  0.00    +0.076 S 
ATOM     20  O   UNL     1       2.646  -3.303   0.499  0.00  0.00    -0.150 OA
ATOM     21  O   UNL     1       0.166  -3.115   0.627  0.00  0.00    -0.150 OA
BRANCH  19  26
ATOM     22  C   UNL     1       1.902   3.233   0.717  0.00  0.00    +0.044 C 
ATOM     23  C   UNL     1       1.781   1.740   0.553  0.00  0.00    -0.050 A 
ATOM     24  C   UNL     1       0.533   1.145   0.538  0.00  0.00    +0.005 A 
ATOM     25  C   UNL     1       0.421  -0.224   0.388  0.00  0.00    +0.029 A 
ATOM     26  C   UNL     1       1.557  -0.999   0.251  0.00  0.00    +0.109 A 
ATOM     27  C   UNL     1       2.805  -0.405   0.265  0.00  0.00    +0.029 A 
ATOM     28  C   UNL     1       2.917   0.965   0.415  0.00  0.00    +0.005 A 
ENDBRANCH  19  26
ENDBRANCH   1  19
TORSDOF 5
