REMARK  Name = ZINC26553641
REMARK  8 active torsions:
REMARK  status: ('A' for Active; 'I' for Inactive)
REMARK    1  A    between atoms: C_1  and  C_2
REMARK    2  A    between atoms: C_4  and  N_21
REMARK    3  A    between atoms: C_7  and  N_8
REMARK    4  A    between atoms: C_9  and  C_11
REMARK    5  A    between atoms: C_15  and  S_17
REMARK    6  A    between atoms: S_17  and  C_20
REMARK    7  A    between atoms: C_22  and  C_24
REMARK    8  A    between atoms: C_31  and  C_34
REMARK                            x       y       z     vdW  Elec       q    Type
REMARK                         _______ _______ _______ _____ _____    ______ ____
ROOT
ATOM      1  C   UNL     1       6.351  10.078  -1.200  0.00  0.00    +0.046 C 
ATOM      2  C   UNL     1       6.572   8.612  -0.929  0.00  0.00    -0.027 A 
ATOM      3  C   UNL     1       5.496   7.748  -0.887  0.00  0.00    +0.028 A 
ATOM      4  C   UNL     1       5.699   6.397  -0.637  0.00  0.00    +0.034 A 
ATOM      5  C   UNL     1       6.985   5.916  -0.424  0.00  0.00    +0.025 A 
ATOM      6  C   UNL     1       8.061   6.779  -0.472  0.00  0.00    +0.025 A 
ATOM      7  C   UNL     1       7.858   8.130  -0.721  0.00  0.00    +0.037 A 
ENDROOT
BRANCH   7   8
ATOM      8  N   UNL     1       8.949   9.006  -0.763  0.00  0.00    -0.281 N 
ATOM      9  C   UNL     1      10.131   8.586  -1.255  0.00  0.00    +0.248 C 
ATOM     10  O   UNL     1      10.275   7.425  -1.584  0.00  0.00    -0.270 OA
ATOM     11  H   UNL     1       8.841  10.037  -0.394  0.00  0.00    +0.155 HD
BRANCH   9  12
ATOM     12  C   UNL     1      11.253   9.539  -1.395  0.00  0.00    +0.039 A 
ATOM     13  C   UNL     1      11.091  10.873  -1.019  0.00  0.00    +0.013 A 
ATOM     14  C   UNL     1      12.142  11.757  -1.153  0.00  0.00    +0.003 A 
ATOM     15  C   UNL     1      13.355  11.322  -1.658  0.00  0.00    +0.027 A 
ATOM     16  C   UNL     1      13.523  10.001  -2.032  0.00  0.00    +0.089 A 
ATOM     17  C   UNL     1      12.481   9.106  -1.899  0.00  0.00    +0.040 A 
BRANCH  16  18
ATOM     18  S   UNL     1      15.071   9.459  -2.674  0.00  0.00    -0.006 S 
ATOM     19  O   UNL     1      14.753   8.340  -3.491  0.00  0.00    -0.170 OA
ATOM     20  O   UNL     1      15.658  10.623  -3.237  0.00  0.00    -0.170 OA
ATOM     21  C   UNL     1      16.016   8.923  -1.221  0.00  0.00    +0.200 C 
ENDBRANCH  16  18
ENDBRANCH   9  12
ENDBRANCH   7   8
BRANCH   4  22
ATOM     22  N   UNL     1       4.608   5.521  -0.595  0.00  0.00    -0.281 N 
ATOM     23  C   UNL     1       4.781   4.215  -0.877  0.00  0.00    +0.255 C 
ATOM     24  O   UNL     1       5.861   3.815  -1.271  0.00  0.00    -0.269 OA
ATOM     25  H   UNL     1       3.609   5.900  -0.331  0.00  0.00    +0.155 HD
BRANCH  23  26
ATOM     26  C   UNL     1       3.669   3.275  -0.709  0.00  0.00    +0.075 A 
ATOM     27  C   UNL     1       3.637   1.912  -0.939  0.00  0.00    +0.024 A 
ATOM     28  C   UNL     1       2.450   1.237  -0.702  0.00  0.00    -0.036 A 
ATOM     29  C   UNL     1       1.397   1.982  -0.255  0.00  0.00    -0.006 A 
ATOM     30  S   UNL     1       2.002   3.591  -0.153  0.00  0.00    -0.088 S 
ATOM     31  C   UNL     1       0.019   1.494   0.070  0.00  0.00    +0.043 C 
ATOM     32  C   UNL     1      -0.150   0.089  -0.526  0.00  0.00    +0.009 C 
ATOM     33  C   UNL     1       1.071  -0.755  -0.152  0.00  0.00    -0.009 C 
ATOM     34  C   UNL     1       2.298  -0.266  -0.921  0.00  0.00    +0.039 C 
ATOM     35  C   UNL     1       0.802  -2.220  -0.501  0.00  0.00    +0.008 C 
ENDBRANCH  23  26
ENDBRANCH   4  22
TORSDOF 5
