REMARK  Name = ZINC67587174
REMARK  4 active torsions:
REMARK  status: ('A' for Active; 'I' for Inactive)
REMARK    1  A    between atoms: C_6  and  C_7
REMARK    2  A    between atoms: C_7  and  N_8
REMARK    3  A    between atoms: C_11  and  N_14
REMARK    4  A    between atoms: C_21  and  C_23
REMARK                            x       y       z     vdW  Elec       q    Type
REMARK                         _______ _______ _______ _____ _____    ______ ____
ROOT
ATOM      1  N   UNL     1      -1.727  -1.018  -1.372  0.00  0.00    +0.382 N 
ATOM      2  C   UNL     1      -2.032   0.264  -2.020  0.00  0.00    -0.077 C 
ATOM      3  C   UNL     1      -2.407   0.023  -3.484  0.00  0.00    +0.004 C 
ATOM      4  C   UNL     1      -3.636  -0.888  -3.547  0.00  0.00    +0.071 C 
ATOM      5  C   UNL     1      -3.331  -2.192  -2.804  0.00  0.00    +0.004 C 
ATOM      6  C   UNL     1      -2.922  -1.869  -1.365  0.00  0.00    -0.077 C 
ATOM      7  H   UNL     1      -0.988  -1.481  -1.879  0.00  0.00    -0.081 HD
ENDROOT
BRANCH   4   8
ATOM      8  N   UNL     1      -3.954  -1.185  -4.946  0.00  0.00    -0.296 N 
ATOM      9  C   UNL     1      -5.213  -1.516  -5.295  0.00  0.00    +0.306 C 
ATOM     10  O   UNL     1      -6.085  -1.570  -4.449  0.00  0.00    -0.252 OA
ATOM     11  N   UNL     1      -5.506  -1.789  -6.582  0.00  0.00    -0.247 N 
ATOM     12  C   UNL     1      -6.805  -2.131  -6.942  0.00  0.00    +0.189 A 
ATOM     13  N   UNL     1      -7.878  -2.237  -6.183  0.00  0.00    -0.125 NA
ATOM     14  N   UNL     1      -9.003  -2.560  -6.658  0.00  0.00    -0.139 NA
ATOM     15  C   UNL     1      -9.109  -2.799  -7.950  0.00  0.00    +0.169 A 
ATOM     16  S   UNL     1      -7.421  -2.513  -8.464  0.00  0.00    -0.030 S 
ATOM     17  H   UNL     1      -3.259  -1.142  -5.621  0.00  0.00    +0.151 HD
ATOM     18  H   UNL     1      -4.811  -1.746  -7.257  0.00  0.00    +0.158 HD
BRANCH  15  19
ATOM     19  C   UNL     1     -10.313  -3.197  -8.764  0.00  0.00    +0.398 C 
ATOM     20  F   UNL     1     -11.468  -2.666  -8.179  0.00  0.00    -0.202 F 
ATOM     21  F   UNL     1     -10.180  -2.702 -10.066  0.00  0.00    -0.202 F 
ENDBRANCH  15  19
ENDBRANCH   4   8
BRANCH   1  22
ATOM     22  C   UNL     1      -1.293  -0.775   0.010  0.00  0.00    -0.043 C 
BRANCH  22  28
ATOM     23  C   UNL     1      -0.017   1.378   0.010  0.00  0.00    +0.004 A 
ATOM     24  C   UNL     1       1.170   2.086   0.002  0.00  0.00    +0.038 A 
ATOM     25  C   UNL     1       2.379   1.410  -0.013  0.00  0.00    +0.123 A 
ATOM     26  C   UNL     1       2.396   0.026  -0.021  0.00  0.00    +0.038 A 
ATOM     27  C   UNL     1       1.208  -0.680  -0.013  0.00  0.00    +0.004 A 
ATOM     28  C   UNL     1       0.002  -0.004   0.002  0.00  0.00    -0.064 A 
ATOM     29  F   UNL     1       3.540   2.101  -0.021  0.00  0.00    -0.205 F 
ENDBRANCH  22  28
ENDBRANCH   1  22
TORSDOF 4
