REMARK  Name = ZINC03770067
REMARK  11 active torsions:
REMARK  status: ('A' for Active; 'I' for Inactive)
REMARK    1  A    between atoms: C_1  and  C_2
REMARK    2  A    between atoms: C_5  and  N_9
REMARK    3  A    between atoms: C_6  and  C_8
REMARK    4  A    between atoms: C_10  and  C_12
REMARK    5  A    between atoms: C_17  and  C_20
REMARK    6  A    between atoms: C_20  and  C_21
REMARK    7  A    between atoms: C_21  and  O_23
REMARK    8  A    between atoms: O_23  and  C_24
REMARK    9  A    between atoms: C_25  and  N_38
REMARK   10  A    between atoms: C_26  and  C_36
REMARK   11  A    between atoms: C_27  and  C_29
REMARK                            x       y       z     vdW  Elec       q    Type
REMARK                         _______ _______ _______ _____ _____    ______ ____
ROOT
ATOM      1  C   UNL     1       4.306  -0.416   1.142  0.00  0.00    +0.055 C 
ATOM      2  C   UNL     1       5.519   0.159   0.936  0.00  0.00    +0.086 C 
ATOM      3  N   UNL     1       6.053   0.430  -0.310  0.00  0.00    -0.220 N 
ATOM      4  C   UNL     1       7.271   1.006  -0.391  0.00  0.00    +0.239 C 
ATOM      5  O   UNL     1       7.777   1.260  -1.463  0.00  0.00    -0.274 OA
ATOM      6  C   UNL     1       7.981   1.320   0.906  0.00  0.00    +0.150 C 
ATOM      7  S   UNL     1       6.739   0.715   2.113  0.00  0.00    -0.096 S 
ATOM      8  C   UNL     1       5.308   0.097  -1.452  0.00  0.00    +0.110 C 
ATOM      9  C   UNL     1       4.090  -0.475  -1.412  0.00  0.00    +0.077 C 
ATOM     10  C   UNL     1       3.471  -0.791  -0.066  0.00  0.00    +0.100 C 
ENDROOT
BRANCH  10  11
ATOM     11  C   UNL     1       2.153  -0.066   0.029  0.00  0.00    -0.034 A 
ATOM     12  C   UNL     1       0.977  -0.783   0.145  0.00  0.00    +0.007 A 
ATOM     13  C   UNL     1      -0.232  -0.119   0.232  0.00  0.00    +0.038 A 
ATOM     14  C   UNL     1      -0.265   1.265   0.204  0.00  0.00    +0.123 A 
ATOM     15  C   UNL     1       0.913   1.982   0.088  0.00  0.00    +0.038 A 
ATOM     16  C   UNL     1       2.121   1.316   0.000  0.00  0.00    +0.007 A 
ATOM     17  F   UNL     1      -1.447   1.915   0.283  0.00  0.00    -0.205 F 
ENDBRANCH  10  11
BRANCH   1  19
ATOM     18  N   UNL     1       2.631  -1.230   2.629  0.00  0.00    -0.281 N 
ATOM     19  C   UNL     1       3.837  -0.659   2.443  0.00  0.00    +0.248 C 
ATOM     20  O   UNL     1       4.521  -0.351   3.405  0.00  0.00    -0.270 OA
ATOM     21  H   UNL     1       2.122  -1.549   1.867  0.00  0.00    +0.155 HD
BRANCH  18  26
ATOM     22  C   UNL     1       0.527  -1.774   7.869  0.00  0.00    +0.044 C 
ATOM     23  C   UNL     1       1.086  -1.630   6.477  0.00  0.00    -0.050 A 
ATOM     24  C   UNL     1       1.853  -0.526   6.153  0.00  0.00    +0.005 A 
ATOM     25  C   UNL     1       2.367  -0.390   4.878  0.00  0.00    +0.024 A 
ATOM     26  C   UNL     1       2.112  -1.365   3.921  0.00  0.00    +0.037 A 
ATOM     27  C   UNL     1       1.337  -2.469   4.248  0.00  0.00    -0.029 A 
ATOM     28  C   UNL     1       0.831  -2.601   5.527  0.00  0.00    +0.008 A 
ATOM     29  C   UNL     1       1.053  -3.525   3.212  0.00  0.00    +0.045 C 
ENDBRANCH  18  26
ENDBRANCH   1  19
BRANCH   8  30
ATOM     30  N   UNL     1       5.854   0.374  -2.682  0.00  0.00    -0.345 N 
ATOM     31  H   UNL     1       6.817   0.432  -2.783  0.00  0.00    +0.144 HD
ATOM     32  H   UNL     1       5.276   0.510  -3.449  0.00  0.00    +0.144 HD
ENDBRANCH   8  30
BRANCH   9  33
ATOM     33  C   UNL     1       3.394  -0.782  -2.625  0.00  0.00    +0.099 C 
ATOM     34  N   UNL     1       2.841  -1.025  -3.587  0.00  0.00    -0.191 NA
ENDBRANCH   9  33
BRANCH   6  35
ATOM     35  C   UNL     1       8.217   2.824   1.059  0.00  0.00    +0.144 C 
BRANCH  35  36
ATOM     36  C   UNL     1       8.866   3.097   2.391  0.00  0.00    +0.308 C 
ATOM     37  O   UNL     1       9.114   2.183   3.141  0.00  0.00    -0.251 OA
BRANCH  36  38
ATOM     38  O   UNL     1       9.168   4.356   2.744  0.00  0.00    -0.468 OA
ATOM     39  C   UNL     1       9.792   4.545   4.042  0.00  0.00    +0.280 C 
ENDBRANCH  36  38
ENDBRANCH  35  36
ENDBRANCH   6  35
TORSDOF 8
