REMARK  Name = ZINC20776552
REMARK  8 active torsions:
REMARK  status: ('A' for Active; 'I' for Inactive)
REMARK    1  A    between atoms: C_1  and  C_2
REMARK    2  A    between atoms: C_2  and  C_3
REMARK    3  A    between atoms: C_2  and  N_4
REMARK    4  A    between atoms: C_6  and  C_9
REMARK    5  A    between atoms: N_23  and  C_24
REMARK    6  A    between atoms: C_24  and  C_25
REMARK    7  A    between atoms: C_28  and  N_30
REMARK    8  A    between atoms: C_31  and  C_33
REMARK                            x       y       z     vdW  Elec       q    Type
REMARK                         _______ _______ _______ _____ _____    ______ ____
ROOT
ATOM      1  C   UNL     1       1.345   2.022   0.000  0.00  0.00    +0.014 C 
ATOM      2  C   UNL     1       2.114   1.385  -1.133  0.00  0.00    +0.011 A 
ATOM      3  C   UNL     1       1.711   0.251  -1.751  0.00  0.00    -0.022 A 
ATOM      4  C   UNL     1       2.688  -0.048  -2.775  0.00  0.00    +0.003 A 
ATOM      5  C   UNL     1       2.796  -1.078  -3.714  0.00  0.00    +0.010 A 
ATOM      6  C   UNL     1       3.884  -1.045  -4.550  0.00  0.00    +0.001 A 
ATOM      7  C   UNL     1       4.837  -0.043  -4.478  0.00  0.00    +0.002 A 
ATOM      8  C   UNL     1       4.756   0.989  -3.559  0.00  0.00    +0.026 A 
ATOM      9  C   UNL     1       3.662   0.982  -2.696  0.00  0.00    +0.047 A 
ATOM     10  N   UNL     1       3.281   1.827  -1.694  0.00  0.00    -0.359 N 
ATOM     11  H   UNL     1       3.760   2.742  -1.316  0.00  0.00    +0.166 HD
ATOM     12  C   UNL     1       0.459  -0.501  -1.376  0.00  0.00    +0.019 C 
ATOM     13  C   UNL     1       0.002  -0.004   0.002  0.00  0.00    -0.072 C 
ATOM     14  N   UNL     1      -0.018   1.465   0.010  0.00  0.00    +0.391 N 
ATOM     15  H   UNL     1      -0.521   1.796  -0.911  0.00  0.00    -0.080 HD
ENDROOT
BRANCH   1  18
ATOM     16  N   UNL     1       1.686   5.652  -0.042  0.00  0.00    -0.269 N 
ATOM     17  C   UNL     1       2.047   4.436   0.420  0.00  0.00    +0.111 A 
ATOM     18  C   UNL     1       1.282   3.513  -0.206  0.00  0.00    -0.018 A 
ATOM     19  C   UNL     1       0.417   4.188  -1.074  0.00  0.00    +0.136 A 
ATOM     20  N   UNL     1       0.658   5.470  -0.977  0.00  0.00    -0.179 NA
BRANCH  16  22
ATOM     21  C   UNL     1       1.567   7.426   1.637  0.00  0.00    +0.032 C 
ATOM     22  C   UNL     1       2.263   6.935   0.366  0.00  0.00    +0.101 C 
ATOM     23  C   UNL     1       3.758   6.759   0.638  0.00  0.00    +0.032 C 
ENDBRANCH  16  22
ENDBRANCH   1  18
BRANCH  14  24
ATOM     24  C   UNL     1      -0.786   1.975   1.154  0.00  0.00    -0.034 C 
BRANCH  24  25
ATOM     25  C   UNL     1      -0.076   1.619   2.434  0.00  0.00    -0.025 A 
ATOM     26  C   UNL     1       0.864   2.322   3.111  0.00  0.00    +0.011 A 
ATOM     27  C   UNL     1       1.381   1.798   4.282  0.00  0.00    +0.031 A 
ATOM     28  C   UNL     1       0.935   0.585   4.712  0.00  0.00    +0.072 A 
ATOM     29  S   UNL     1      -0.252   0.160   3.447  0.00  0.00    -0.080 S 
BRANCH  28  30
ATOM     30  N   UNL     1       1.308  -0.139   5.847  0.00  0.00    -0.280 N 
ATOM     31  C   UNL     1       0.744  -1.336   6.099  0.00  0.00    +0.214 C 
ATOM     32  O   UNL     1      -0.089  -1.786   5.340  0.00  0.00    -0.276 OA
ATOM     33  C   UNL     1       1.147  -2.117   7.323  0.00  0.00    +0.109 C 
ATOM     34  H   UNL     1       2.064   0.269   6.535  0.00  0.00    +0.155 HD
ENDBRANCH  28  30
ENDBRANCH  24  25
ENDBRANCH  14  24
TORSDOF 5
