REMARK  Name = ZINC01436334
REMARK  7 active torsions:
REMARK  status: ('A' for Active; 'I' for Inactive)
REMARK    1  A    between atoms: C_1  and  C_2
REMARK    2  A    between atoms: C_2  and  C_36
REMARK    3  A    between atoms: C_6  and  C_24
REMARK    4  A    between atoms: C_8  and  C_22
REMARK    5  A    between atoms: C_9  and  N_21
REMARK    6  A    between atoms: N_10  and  C_11
REMARK    7  A    between atoms: C_15  and  C_17
REMARK                            x       y       z     vdW  Elec       q    Type
REMARK                         _______ _______ _______ _____ _____    ______ ____
ROOT
ATOM      1  C   UNL     1       3.060   6.242  -1.774  0.00  0.00    +0.011 C 
ATOM      2  C   UNL     1       3.455   5.806  -0.361  0.00  0.00    -0.023 C 
ATOM      3  C   UNL     1       2.327   4.977   0.256  0.00  0.00    +0.058 C 
ATOM      4  C   UNL     1       1.076   5.817   0.360  0.00  0.00    +0.025 C 
ATOM      5  C   UNL     1       1.150   7.151   0.543  0.00  0.00    +0.025 C 
ATOM      6  C   UNL     1      -0.100   7.986   0.661  0.00  0.00    +0.097 C 
ATOM      7  C   UNL     1      -1.293   7.255   0.118  0.00  0.00    +0.077 C 
ATOM      8  C   UNL     1      -1.270   5.909  -0.060  0.00  0.00    +0.107 C 
ATOM      9  N   UNL     1      -0.138   5.191   0.252  0.00  0.00    -0.260 N 
ATOM     10  C   UNL     1       2.392   7.804   0.633  0.00  0.00    +0.162 C 
ATOM     11  O   UNL     1       2.422   9.006   0.811  0.00  0.00    -0.292 OA
ATOM     12  C   UNL     1       3.684   7.043   0.514  0.00  0.00    +0.086 C 
ATOM     13  C   UNL     1       4.738   4.974  -0.420  0.00  0.00    +0.011 C 
ENDROOT
BRANCH   6  14
ATOM     14  C   UNL     1      -0.340   8.314   2.112  0.00  0.00    -0.031 A 
ATOM     15  C   UNL     1      -0.564   7.297   3.022  0.00  0.00    +0.008 A 
ATOM     16  C   UNL     1      -0.780   7.593   4.354  0.00  0.00    +0.050 A 
ATOM     17  C   UNL     1      -0.783   8.911   4.781  0.00  0.00    +0.166 A 
ATOM     18  C   UNL     1      -0.562   9.936   3.864  0.00  0.00    +0.167 A 
ATOM     19  C   UNL     1      -0.342   9.632   2.530  0.00  0.00    +0.054 A 
ATOM     20  O   UNL     1      -0.614  11.130   4.523  0.00  0.00    -0.453 OA
ATOM     21  C   UNL     1      -0.461  10.806   5.918  0.00  0.00    +0.466 C 
ATOM     22  O   UNL     1      -0.972   9.463   6.015  0.00  0.00    -0.453 OA
ENDBRANCH   6  14
BRANCH   9  23
ATOM     23  C   UNL     1      -0.228   3.811   0.466  0.00  0.00    +0.040 A 
ATOM     24  C   UNL     1      -0.131   2.932  -0.606  0.00  0.00    +0.024 A 
ATOM     25  C   UNL     1      -0.220   1.571  -0.392  0.00  0.00    +0.002 A 
ATOM     26  C   UNL     1      -0.406   1.082   0.888  0.00  0.00    +0.012 A 
ATOM     27  C   UNL     1      -0.509   1.954   1.957  0.00  0.00    +0.057 A 
ATOM     28  C   UNL     1      -0.415   3.316   1.750  0.00  0.00    +0.036 A 
BRANCH  27  29
ATOM     29  C   UNL     1      -0.718   1.416   3.349  0.00  0.00    +0.417 C 
ATOM     30  F   UNL     1      -0.775   0.019   3.306  0.00  0.00    -0.166 F 
ATOM     31  F   UNL     1       0.345   1.815   4.167  0.00  0.00    -0.166 F 
ATOM     32  F   UNL     1      -1.917   1.916   3.867  0.00  0.00    -0.166 F 
ENDBRANCH  27  29
ENDBRANCH   9  23
BRANCH   8  33
ATOM     33  N   UNL     1      -2.379   5.263  -0.551  0.00  0.00    -0.345 N 
ATOM     34  H   UNL     1      -2.334   4.318  -0.767  0.00  0.00    +0.144 HD
ATOM     35  H   UNL     1      -3.206   5.752  -0.683  0.00  0.00    +0.144 HD
ENDBRANCH   8  33
BRANCH   7  36
ATOM     36  C   UNL     1      -2.476   7.990  -0.217  0.00  0.00    +0.099 C 
ATOM     37  N   UNL     1      -3.414   8.572  -0.483  0.00  0.00    -0.191 NA
ENDBRANCH   7  36
TORSDOF 5
