REMARK  Name = ZINC66790219
REMARK  7 active torsions:
REMARK  status: ('A' for Active; 'I' for Inactive)
REMARK    1  A    between atoms: C_1  and  C_2
REMARK    2  A    between atoms: C_5  and  C_7
REMARK    3  A    between atoms: N_9  and  C_10
REMARK    4  A    between atoms: C_15  and  C_16
REMARK    5  A    between atoms: N_18  and  N_19
REMARK    6  A    between atoms: C_20  and  C_22
REMARK    7  A    between atoms: C_22  and  C_23
REMARK                            x       y       z     vdW  Elec       q    Type
REMARK                         _______ _______ _______ _____ _____    ______ ____
ROOT
ATOM      1  C   UNL     1       0.147  -3.838   3.201  0.00  0.00    +0.046 A 
ATOM      2  C   UNL     1      -0.978  -4.409   2.620  0.00  0.00    +0.027 A 
ATOM      3  C   UNL     1      -1.529  -5.554   3.158  0.00  0.00    +0.040 A 
ATOM      4  C   UNL     1      -0.965  -6.144   4.280  0.00  0.00    +0.124 A 
ATOM      5  C   UNL     1       0.153  -5.590   4.870  0.00  0.00    +0.053 A 
ATOM      6  C   UNL     1       0.724  -4.434   4.332  0.00  0.00    +0.062 A 
ATOM      7  F   UNL     1      -1.513  -7.265   4.799  0.00  0.00    -0.205 F 
ENDROOT
BRANCH   1  10
ATOM      8  C   UNL     1      -0.094  -1.740   2.116  0.00  0.00    +0.221 C 
ATOM      9  O   UNL     1      -1.288  -1.935   2.025  0.00  0.00    -0.275 OA
ATOM     10  N   UNL     1       0.703  -2.681   2.659  0.00  0.00    -0.285 N 
ATOM     11  H   UNL     1       1.665  -2.553   2.673  0.00  0.00    +0.155 HD
BRANCH   8  15
ATOM     12  C   UNL     1      -0.154   2.063   1.258  0.00  0.00    +0.008 C 
ATOM     13  C   UNL     1      -0.461   0.583   1.016  0.00  0.00    -0.002 C 
ATOM     14  C   UNL     1       0.495  -0.197   0.112  0.00  0.00    +0.017 C 
ATOM     15  C   UNL     1       0.497  -0.445   1.622  0.00  0.00    +0.078 C 
ENDBRANCH   8  15
ENDBRANCH   1  10
BRANCH   6  16
ATOM     16  C   UNL     1       1.922  -3.840   4.954  0.00  0.00    +0.262 C 
ATOM     17  O   UNL     1       2.356  -2.779   4.547  0.00  0.00    -0.269 OA
ATOM     18  N   UNL     1       2.537  -4.472   5.973  0.00  0.00    -0.230 N 
ATOM     19  H   UNL     1       2.191  -5.318   6.298  0.00  0.00    +0.173 HD
BRANCH  18  20
ATOM     20  N   UNL     1       3.675  -3.908   6.563  0.00  0.00    -0.234 N 
ATOM     21  C   UNL     1       4.289  -4.540   7.582  0.00  0.00    +0.229 C 
ATOM     22  O   UNL     1       3.857  -5.598   7.989  0.00  0.00    -0.274 OA
ATOM     23  H   UNL     1       4.021  -3.062   6.239  0.00  0.00    +0.173 HD
BRANCH  21  24
ATOM     24  C   UNL     1       5.514  -3.933   8.218  0.00  0.00    +0.101 C 
BRANCH  24  25
ATOM     25  C   UNL     1       6.011  -4.845   9.341  0.00  0.00    -0.002 C 
ATOM     26  C   UNL     1       4.963  -4.901  10.454  0.00  0.00    +0.004 C 
ATOM     27  C   UNL     1       5.460  -5.812  11.578  0.00  0.00    +0.000 C 
ATOM     28  C   UNL     1       6.771  -5.261  12.140  0.00  0.00    +0.000 C 
ATOM     29  C   UNL     1       7.820  -5.205  11.027  0.00  0.00    +0.000 C 
ATOM     30  C   UNL     1       7.322  -4.293   9.903  0.00  0.00    +0.004 C 
ENDBRANCH  24  25
ENDBRANCH  21  24
ENDBRANCH  18  20
ENDBRANCH   6  16
TORSDOF 6
