REMARK  Name = ZINC08835257
REMARK  7 active torsions:
REMARK  status: ('A' for Active; 'I' for Inactive)
REMARK    1  A    between atoms: C_4  and  N_16
REMARK    2  A    between atoms: C_5  and  C_7
REMARK    3  A    between atoms: N_16  and  C_17
REMARK    4  A    between atoms: C_17  and  N_19
REMARK    5  A    between atoms: C_20  and  C_22
REMARK    6  A    between atoms: C_25  and  N_31
REMARK    7  A    between atoms: C_26  and  N_28
REMARK                            x       y       z     vdW  Elec       q    Type
REMARK                         _______ _______ _______ _____ _____    ______ ____
ROOT
ATOM      1  C   UNL     1       4.327   3.988   0.228  0.00  0.00    +0.141 C 
ATOM      2  S   UNL     1       4.413   5.679   0.480  0.00  0.00    -0.018 S 
ENDROOT
BRANCH   1   3
ATOM      3  N   UNL     1       3.129   3.370   0.201  0.00  0.00    -0.264 N 
ATOM      4  C   UNL     1       1.999   4.085   0.372  0.00  0.00    +0.250 C 
ATOM      5  O   UNL     1       2.060   5.286   0.551  0.00  0.00    -0.270 OA
ATOM      6  H   UNL     1       3.080   2.412   0.058  0.00  0.00    +0.157 HD
BRANCH   4   7
ATOM      7  C   UNL     1       0.689   3.409   0.342  0.00  0.00    +0.039 A 
ATOM      8  C   UNL     1       0.617   2.028   0.136  0.00  0.00    +0.015 A 
ATOM      9  C   UNL     1      -0.598   1.403   0.109  0.00  0.00    +0.026 A 
ATOM     10  C   UNL     1      -1.768   2.138   0.281  0.00  0.00    +0.060 A 
ATOM     11  C   UNL     1      -1.705   3.513   0.492  0.00  0.00    +0.148 A 
ATOM     12  C   UNL     1      -0.485   4.149   0.520  0.00  0.00    +0.047 A 
BRANCH  10  13
ATOM     13  N   UNL     1      -3.001   1.497   0.247  0.00  0.00    -0.328 N 
ATOM     14  C   UNL     1      -3.142   0.681  -0.986  0.00  0.00    +0.105 C 
ATOM     15  C   UNL     1      -4.262  -0.326  -0.619  0.00  0.00    +0.020 C 
ATOM     16  C   UNL     1      -3.968  -0.643   0.866  0.00  0.00    +0.020 C 
ATOM     17  C   UNL     1      -3.137   0.550   1.375  0.00  0.00    +0.105 C 
ENDBRANCH  10  13
BRANCH  11  18
ATOM     18  N   UNL     1      -2.951   4.291   0.679  0.00  0.00    +0.058 N 
ATOM     19  O   UNL     1      -2.893   5.474   0.961  0.00  0.00    -0.126 OA
ATOM     20  O   UNL     1      -4.033   3.747   0.551  0.00  0.00    -0.126 OA
ENDBRANCH  11  18
ENDBRANCH   4   7
ENDBRANCH   1   3
BRANCH   1  21
ATOM     21  N   UNL     1       5.457   3.274   0.057  0.00  0.00    -0.296 N 
ATOM     22  H   UNL     1       5.406   2.329  -0.157  0.00  0.00    +0.154 HD
BRANCH  21  26
ATOM     23  C   UNL     1       9.174   5.127   0.443  0.00  0.00    +0.001 A 
ATOM     24  C   UNL     1       8.182   5.707  -0.331  0.00  0.00    +0.002 A 
ATOM     25  C   UNL     1       6.951   5.095  -0.460  0.00  0.00    +0.024 A 
ATOM     26  C   UNL     1       6.700   3.893   0.186  0.00  0.00    +0.042 A 
ATOM     27  C   UNL     1       7.700   3.307   0.975  0.00  0.00    +0.028 A 
ATOM     28  C   UNL     1       8.941   3.934   1.093  0.00  0.00    +0.012 A 
BRANCH  27  29
ATOM     29  C   UNL     1       7.442   2.031   1.673  0.00  0.00    +0.111 A 
ATOM     30  N   UNL     1       8.225   1.370   2.499  0.00  0.00    -0.239 NA
ATOM     31  C   UNL     1       7.857   0.206   3.069  0.00  0.00    +0.079 A 
ATOM     32  C   UNL     1       8.596  -0.600   3.967  0.00  0.00    +0.029 A 
ATOM     33  C   UNL     1       8.076  -1.757   4.456  0.00  0.00    +0.002 A 
ATOM     34  C   UNL     1       6.808  -2.195   4.097  0.00  0.00    +0.001 A 
ATOM     35  C   UNL     1       6.052  -1.437   3.222  0.00  0.00    +0.017 A 
ATOM     36  C   UNL     1       6.569  -0.267   2.723  0.00  0.00    +0.040 A 
ATOM     37  S   UNL     1       5.986   0.996   1.618  0.00  0.00    -0.067 S 
ENDBRANCH  27  29
ENDBRANCH  21  26
ENDBRANCH   1  21
TORSDOF 7
