REMARK  Name = ZINC33113030
REMARK  6 active torsions:
REMARK  status: ('A' for Active; 'I' for Inactive)
REMARK    1  A    between atoms: C_1  and  C_2
REMARK    2  A    between atoms: C_5  and  N_9
REMARK    3  A    between atoms: C_6  and  C_8
REMARK    4  A    between atoms: C_16  and  C_19
REMARK    5  A    between atoms: C_22  and  C_24
REMARK    6  A    between atoms: N_26  and  C_27
REMARK                            x       y       z     vdW  Elec       q    Type
REMARK                         _______ _______ _______ _____ _____    ______ ____
ROOT
ATOM      1  N   UNL     1      -4.042   3.292   1.558  0.00  0.00    -0.269 N 
ATOM      2  C   UNL     1      -3.263   3.160   0.466  0.00  0.00    +0.306 C 
ATOM      3  O   UNL     1      -3.531   3.774  -0.549  0.00  0.00    -0.252 OA
ATOM      4  N   UNL     1      -2.188   2.348   0.498  0.00  0.00    -0.285 N 
ATOM      5  C   UNL     1      -1.394   2.108  -0.715  0.00  0.00    +0.109 C 
ATOM      6  C   UNL     1       0.075   2.418  -0.412  0.00  0.00    +0.020 C 
ATOM      7  C   UNL     1       0.524   1.605   0.804  0.00  0.00    +0.013 C 
ATOM      8  C   UNL     1      -0.315   2.000   2.022  0.00  0.00    +0.064 C 
ATOM      9  C   UNL     1      -1.788   1.685   1.747  0.00  0.00    +0.119 C 
ATOM     10  H   UNL     1      -3.756   2.799   2.499  0.00  0.00    +0.156 HD
ENDROOT
BRANCH   1  15
ATOM     11  C   UNL     1      -8.791   6.385   1.302  0.00  0.00    +0.044 C 
ATOM     12  C   UNL     1      -7.529   5.563   1.370  0.00  0.00    -0.050 A 
ATOM     13  C   UNL     1      -6.941   5.104   0.206  0.00  0.00    +0.005 A 
ATOM     14  C   UNL     1      -5.785   4.351   0.265  0.00  0.00    +0.024 A 
ATOM     15  C   UNL     1      -5.213   4.055   1.495  0.00  0.00    +0.038 A 
ATOM     16  C   UNL     1      -5.808   4.513   2.663  0.00  0.00    -0.029 A 
ATOM     17  C   UNL     1      -6.962   5.271   2.597  0.00  0.00    +0.008 A 
ATOM     18  C   UNL     1      -5.194   4.190   4.000  0.00  0.00    +0.045 C 
ENDBRANCH   1  15
BRANCH   8  19
ATOM     19  C   UNL     1       0.149   1.222   3.226  0.00  0.00    +0.107 A 
ATOM     20  N   UNL     1       0.182  -0.085   3.421  0.00  0.00    -0.145 NA
ATOM     21  N   UNL     1       0.604  -0.591   4.498  0.00  0.00    -0.136 NA
ATOM     22  C   UNL     1       1.034   0.192   5.483  0.00  0.00    +0.187 A 
ATOM     23  S   UNL     1       0.794   1.799   4.735  0.00  0.00    -0.046 S 
BRANCH  22  24
ATOM     24  C   UNL     1       1.563  -0.163   6.811  0.00  0.00    +0.275 C 
ATOM     25  O   UNL     1       1.909   0.712   7.582  0.00  0.00    -0.268 OA
ATOM     26  N   UNL     1       1.664  -1.458   7.172  0.00  0.00    -0.280 N 
ATOM     27  H   UNL     1       1.281  -2.246   6.507  0.00  0.00    +0.155 HD
BRANCH  26  28
ATOM     28  C   UNL     1       2.257  -1.800   8.392  0.00  0.00    +0.034 A 
ATOM     29  C   UNL     1       3.014  -2.959   8.497  0.00  0.00    +0.026 A 
ATOM     30  C   UNL     1       3.602  -3.292   9.701  0.00  0.00    +0.040 A 
ATOM     31  C   UNL     1       3.429  -2.476  10.807  0.00  0.00    +0.124 A 
ATOM     32  C   UNL     1       2.670  -1.322  10.706  0.00  0.00    +0.040 A 
ATOM     33  C   UNL     1       2.084  -0.983   9.502  0.00  0.00    +0.026 A 
ATOM     34  F   UNL     1       4.002  -2.806  11.985  0.00  0.00    -0.205 F 
ENDBRANCH  26  28
ENDBRANCH  22  24
ENDBRANCH   8  19
TORSDOF 4
