REMARK  Name = ZINC11667229
REMARK  7 active torsions:
REMARK  status: ('A' for Active; 'I' for Inactive)
REMARK    1  A    between atoms: C_1  and  C_2
REMARK    2  A    between atoms: C_2  and  O_3
REMARK    3  A    between atoms: O_3  and  C_4
REMARK    4  A    between atoms: C_4  and  C_6
REMARK    5  A    between atoms: C_6  and  N_52
REMARK    6  A    between atoms: C_7  and  C_26
REMARK    7  A    between atoms: C_16  and  C_18
REMARK                            x       y       z     vdW  Elec       q    Type
REMARK                         _______ _______ _______ _____ _____    ______ ____
ROOT
ATOM      1  C   UNL     1      -1.675   2.611   0.129  0.00  0.00    -0.001 C 
ATOM      2  C   UNL     1      -2.118   3.391   1.338  0.00  0.00    -0.035 A 
ATOM      3  C   UNL     1      -2.178   2.764   2.570  0.00  0.00    +0.019 A 
ATOM      4  C   UNL     1      -2.585   3.468   3.688  0.00  0.00    +0.018 A 
ATOM      5  C   UNL     1      -2.935   4.803   3.582  0.00  0.00    +0.017 A 
ATOM      6  C   UNL     1      -2.876   5.436   2.356  0.00  0.00    +0.024 A 
ATOM      7  C   UNL     1      -2.466   4.730   1.232  0.00  0.00    +0.028 A 
ATOM      8  N   UNL     1      -2.401   5.373  -0.010  0.00  0.00    -0.353 N 
ATOM      9  C   UNL     1      -2.244   4.542  -1.214  0.00  0.00    +0.052 C 
ATOM     10 BR   UNL     1      -2.666   2.604   5.368  0.00  0.00    -0.050 Br
ATOM     11  H   UNL     1      -2.458   6.339  -0.075  0.00  0.00    +0.145 HD
ATOM     12  N   UNL     1      -1.199   3.534  -0.921  0.00  0.00    +0.409 N 
ATOM     13  H   UNL     1      -0.356   4.014  -0.587  0.00  0.00    -0.076 HD
ENDROOT
BRANCH   9  14
ATOM     14  C   UNL     1      -1.800   5.400  -2.371  0.00  0.00    -0.009 A 
ATOM     15  C   UNL     1      -0.454   5.534  -2.655  0.00  0.00    +0.006 A 
ATOM     16  C   UNL     1      -0.046   6.320  -3.716  0.00  0.00    +0.000 A 
ATOM     17  C   UNL     1      -0.984   6.973  -4.495  0.00  0.00    +0.003 A 
ATOM     18  C   UNL     1      -2.330   6.840  -4.213  0.00  0.00    +0.038 A 
ATOM     19  C   UNL     1      -2.740   6.048  -3.153  0.00  0.00    +0.126 A 
ATOM     20  F   UNL     1      -4.056   5.913  -2.879  0.00  0.00    -0.205 F 
ENDBRANCH   9  14
BRANCH   1  21
ATOM     21  C   UNL     1      -0.543   1.693   0.515  0.00  0.00    -0.057 A 
ATOM     22  C   UNL     1       0.743   2.188   0.620  0.00  0.00    +0.002 A 
ATOM     23  C   UNL     1       1.782   1.345   0.967  0.00  0.00    +0.000 A 
ATOM     24  C   UNL     1       1.534   0.007   1.211  0.00  0.00    +0.000 A 
ATOM     25  C   UNL     1       0.247  -0.488   1.107  0.00  0.00    +0.000 A 
ATOM     26  C   UNL     1      -0.791   0.355   0.758  0.00  0.00    +0.002 A 
ENDBRANCH   1  21
BRANCH  12  27
ATOM     27  C   UNL     1      -0.867   2.778  -2.146  0.00  0.00    +0.048 C 
BRANCH  27  28
ATOM     28  C   UNL     1      -2.103   2.135  -2.720  0.00  0.00    +0.290 C 
ATOM     29  O   UNL     1      -3.150   2.193  -2.119  0.00  0.00    -0.253 OA
BRANCH  28  30
ATOM     30  O   UNL     1      -2.042   1.496  -3.899  0.00  0.00    -0.466 OA
BRANCH  30  32
ATOM     31  C   UNL     1      -2.943   0.036  -5.628  0.00  0.00    +0.048 C 
ATOM     32  C   UNL     1      -3.237   0.794  -4.332  0.00  0.00    +0.228 C 
ENDBRANCH  30  32
ENDBRANCH  28  30
ENDBRANCH  27  28
ENDBRANCH  12  27
TORSDOF 6
