REMARK  Name = ZINC44910617
REMARK  6 active torsions:
REMARK  status: ('A' for Active; 'I' for Inactive)
REMARK    1  A    between atoms: C_3  and  N_26
REMARK    2  A    between atoms: C_6  and  C_7
REMARK    3  A    between atoms: C_7  and  N_8
REMARK    4  A    between atoms: C_9  and  C_11
REMARK    5  A    between atoms: N_16  and  C_18
REMARK    6  A    between atoms: C_18  and  C_19
REMARK                            x       y       z     vdW  Elec       q    Type
REMARK                         _______ _______ _______ _____ _____    ______ ____
ROOT
ATOM      1  N   UNL     1      -1.737  -0.999  -1.367  0.00  0.00    -0.311 N 
ATOM      2  C   UNL     1      -2.880  -1.672  -1.606  0.00  0.00    +0.215 C 
ATOM      3  O   UNL     1      -3.542  -2.090  -0.680  0.00  0.00    -0.276 OA
ATOM      4  H   UNL     1      -1.207  -0.665  -2.108  0.00  0.00    +0.149 HD
ENDROOT
BRANCH   2   5
ATOM      5  C   UNL     1      -3.336  -1.904  -3.023  0.00  0.00    +0.058 C 
ATOM      6  C   UNL     1      -3.550  -0.556  -3.719  0.00  0.00    +0.009 C 
ATOM      7  C   UNL     1      -4.087  -0.802  -5.132  0.00  0.00    -0.018 C 
ATOM      8  C   UNL     1      -5.377  -1.621  -5.046  0.00  0.00    -0.078 C 
ATOM      9  N   UNL     1      -5.101  -2.908  -4.395  0.00  0.00    +0.383 N 
ATOM     10  C   UNL     1      -4.653  -2.683  -3.015  0.00  0.00    -0.066 C 
ATOM     11  H   UNL     1      -4.380  -3.394  -4.906  0.00  0.00    -0.081 HD
BRANCH   9  12
ATOM     12  C   UNL     1      -6.324  -3.722  -4.385  0.00  0.00    -0.043 C 
BRANCH  12  13
ATOM     13  C   UNL     1      -6.711  -4.065  -5.800  0.00  0.00    -0.064 A 
ATOM     14  C   UNL     1      -7.547  -3.224  -6.511  0.00  0.00    +0.003 A 
ATOM     15  C   UNL     1      -7.902  -3.538  -7.809  0.00  0.00    +0.015 A 
ATOM     16  C   UNL     1      -7.420  -4.694  -8.398  0.00  0.00    +0.018 A 
ATOM     17  C   UNL     1      -6.584  -5.535  -7.686  0.00  0.00    +0.015 A 
ATOM     18  C   UNL     1      -6.225  -5.218  -6.389  0.00  0.00    +0.003 A 
ATOM     19 BR   UNL     1      -7.906  -5.125 -10.174  0.00  0.00    -0.050 Br
ENDBRANCH  12  13
ENDBRANCH   9  12
ENDBRANCH   2   5
BRANCH   1  20
ATOM     20  C   UNL     1      -1.294  -0.773   0.011  0.00  0.00    +0.139 C 
BRANCH  20  26
ATOM     21  C   UNL     1      -0.017   1.379   0.026  0.00  0.00    +0.007 A 
ATOM     22  C   UNL     1       1.169   2.087   0.018  0.00  0.00    +0.023 A 
ATOM     23  C   UNL     1       2.381   1.409  -0.013  0.00  0.00    +0.030 A 
ATOM     24  C   UNL     1       2.396   0.020  -0.037  0.00  0.00    +0.023 A 
ATOM     25  C   UNL     1       1.207  -0.682  -0.029  0.00  0.00    +0.007 A 
ATOM     26  C   UNL     1       0.002  -0.004   0.002  0.00  0.00    -0.030 A 
BRANCH  23  27
ATOM     27  N   UNL     1       3.582   2.122  -0.021  0.00  0.00    -0.330 N 
ATOM     28  C   UNL     1       4.870   1.420   0.067  0.00  0.00    +0.105 C 
ATOM     29  C   UNL     1       5.753   1.862  -1.104  0.00  0.00    +0.019 C 
ATOM     30  C   UNL     1       5.867   3.388  -1.105  0.00  0.00    +0.003 C 
ATOM     31  C   UNL     1       4.479   4.005  -1.287  0.00  0.00    +0.019 C 
ATOM     32  C   UNL     1       3.582   3.588  -0.124  0.00  0.00    +0.105 C 
ENDBRANCH  23  27
ENDBRANCH  20  26
ENDBRANCH   1  20
TORSDOF 6
