REMARK  Name = ZINC13402519
REMARK  7 active torsions:
REMARK  status: ('A' for Active; 'I' for Inactive)
REMARK    1  A    between atoms: C_1  and  C_2
REMARK    2  A    between atoms: N_8  and  S_9
REMARK    3  A    between atoms: S_9  and  C_12
REMARK    4  A    between atoms: C_16  and  C_18
REMARK    5  A    between atoms: N_20  and  C_21
REMARK    6  A    between atoms: C_24  and  C_27
REMARK    7  A    between atoms: C_28  and  C_29
REMARK                            x       y       z     vdW  Elec       q    Type
REMARK                         _______ _______ _______ _____ _____    ______ ____
ROOT
ATOM      1  C   UNL     1       2.964  -1.078  -3.977  0.00  0.00    +0.106 A 
ATOM      2  C   UNL     1       3.661  -0.199  -4.788  0.00  0.00    +0.028 A 
ATOM      3  C   UNL     1       3.574  -0.302  -6.165  0.00  0.00    +0.003 A 
ATOM      4  C   UNL     1       2.791  -1.282  -6.739  0.00  0.00    +0.013 A 
ATOM      5  C   UNL     1       2.086  -2.172  -5.926  0.00  0.00    +0.039 A 
ATOM      6  C   UNL     1       2.182  -2.066  -4.537  0.00  0.00    +0.041 A 
ENDROOT
BRANCH   5   7
ATOM      7  C   UNL     1       1.244  -3.224  -6.534  0.00  0.00    +0.248 C 
ATOM      8  O   UNL     1       0.631  -3.998  -5.824  0.00  0.00    -0.270 OA
ATOM      9  N   UNL     1       1.157  -3.327  -7.875  0.00  0.00    -0.282 N 
ATOM     10  H   UNL     1       1.698  -2.754  -8.441  0.00  0.00    +0.155 HD
BRANCH   9  11
ATOM     11  C   UNL     1       0.290  -4.256  -8.447  0.00  0.00    +0.034 A 
ATOM     12  C   UNL     1      -0.381  -3.944  -9.626  0.00  0.00    +0.024 A 
ATOM     13  C   UNL     1      -1.234  -4.859 -10.198  0.00  0.00    +0.010 A 
ATOM     14  C   UNL     1      -1.435  -6.103  -9.586  0.00  0.00    -0.025 A 
ATOM     15  C   UNL     1      -0.761  -6.411  -8.398  0.00  0.00    +0.010 A 
ATOM     16  C   UNL     1       0.094  -5.491  -7.836  0.00  0.00    +0.024 A 
BRANCH  14  17
ATOM     17  C   UNL     1      -2.348  -7.082 -10.190  0.00  0.00    +0.015 C 
ATOM     18  C   UNL     1      -2.997  -6.783 -11.337  0.00  0.00    +0.096 C 
BRANCH  18  19
ATOM     19  C   UNL     1      -3.879  -7.728 -11.920  0.00  0.00    +0.380 C 
ATOM     20  O   UNL     1      -4.051  -8.809 -11.387  0.00  0.00    -0.241 OA
ATOM     21  O   UNL     1      -4.527  -7.429 -13.065  0.00  0.00    -0.241 OA
ENDBRANCH  18  19
ENDBRANCH  14  17
ENDBRANCH   9  11
ENDBRANCH   5   7
BRANCH   1  22
ATOM     22  S   UNL     1       3.082  -0.938  -2.224  0.00  0.00    +0.061 S 
ATOM     23  O   UNL     1       4.312  -0.280  -1.951  0.00  0.00    -0.153 OA
ATOM     24  O   UNL     1       2.769  -2.218  -1.693  0.00  0.00    -0.153 OA
BRANCH  22  31
ATOM     25  C   UNL     1       0.494  -1.937  -1.647  0.00  0.00    +0.026 C 
ATOM     26  C   UNL     1       0.513  -0.413  -1.514  0.00  0.00    +0.077 C 
ATOM     27  C   UNL     1       0.063  -0.015  -0.105  0.00  0.00    +0.020 C 
ATOM     28  C   UNL     1       0.213   1.499   0.066  0.00  0.00    +0.003 C 
ATOM     29  C   UNL     1       1.684   1.889  -0.099  0.00  0.00    +0.017 C 
ATOM     30  C   UNL     1       2.153   1.512  -1.508  0.00  0.00    +0.110 C 
ATOM     31  N   UNL     1       1.878   0.087  -1.733  0.00  0.00    -0.174 NA
ENDBRANCH  22  31
ENDBRANCH   1  22
TORSDOF 6
