REMARK  Name = ZINC00736622
REMARK  13 active torsions:
REMARK  status: ('A' for Active; 'I' for Inactive)
REMARK    1  A    between atoms: C_1  and  C_2
REMARK    2  A    between atoms: C_5  and  N_8
REMARK    3  A    between atoms: C_9  and  C_23
REMARK    4  A    between atoms: C_12  and  S_13
REMARK    5  A    between atoms: S_13  and  C_14
REMARK    6  A    between atoms: C_14  and  C_15
REMARK    7  A    between atoms: C_19  and  O_21
REMARK    8  A    between atoms: O_21  and  C_22
REMARK    9  A    between atoms: C_23  and  C_25
REMARK   10  A    between atoms: C_23  and  N_26
REMARK   11  A    between atoms: N_29  and  C_30
REMARK   12  A    between atoms: C_31  and  C_37
REMARK   13  A    between atoms: C_35  and  C_36
REMARK                            x       y       z     vdW  Elec       q    Type
REMARK                         _______ _______ _______ _____ _____    ______ ____
ROOT
ATOM      1  N   UNL     1      -0.083  -6.153  -0.888  0.00  0.00    -0.273 N 
ATOM      2  C   UNL     1      -1.032  -6.149   0.099  0.00  0.00    +0.159 A 
ATOM      3  N   UNL     1      -0.772  -7.150   0.891  0.00  0.00    -0.131 NA
ATOM      4  N   UNL     1       0.268  -7.782   0.478  0.00  0.00    -0.122 NA
ATOM      5  C   UNL     1       0.730  -7.219  -0.614  0.00  0.00    +0.196 A 
ENDROOT
BRANCH   1  10
ATOM      6  C   UNL     1       0.371  -2.521  -5.226  0.00  0.00    +0.044 C 
ATOM      7  C   UNL     1       0.251  -3.485  -4.075  0.00  0.00    -0.050 A 
ATOM      8  C   UNL     1      -0.032  -4.817  -4.317  0.00  0.00    +0.005 A 
ATOM      9  C   UNL     1      -0.143  -5.703  -3.263  0.00  0.00    +0.026 A 
ATOM     10  C   UNL     1       0.030  -5.256  -1.960  0.00  0.00    +0.050 A 
ATOM     11  C   UNL     1       0.314  -3.918  -1.721  0.00  0.00    +0.026 A 
ATOM     12  C   UNL     1       0.429  -3.038  -2.779  0.00  0.00    +0.005 A 
ENDBRANCH   1  10
BRANCH   2  13
ATOM     13  C   UNL     1      -2.167  -5.167   0.242  0.00  0.00    +0.140 C 
ATOM     14  C   UNL     1      -1.854  -4.188   1.375  0.00  0.00    +0.036 C 
BRANCH  13  15
ATOM     15  N   UNL     1      -3.403  -5.892   0.550  0.00  0.00    -0.290 N 
ATOM     16  C   UNL     1      -4.597  -5.350   0.238  0.00  0.00    +0.304 C 
ATOM     17  O   UNL     1      -4.648  -4.261  -0.299  0.00  0.00    -0.252 OA
ATOM     18  N   UNL     1      -5.734  -6.016   0.521  0.00  0.00    -0.269 N 
ATOM     19  H   UNL     1      -3.361  -6.761   0.979  0.00  0.00    +0.151 HD
ATOM     20  H   UNL     1      -5.692  -6.917   0.878  0.00  0.00    +0.156 HD
BRANCH  18  21
ATOM     21  C   UNL     1      -6.974  -5.408   0.300  0.00  0.00    +0.041 A 
ATOM     22  C   UNL     1      -7.934  -6.048  -0.474  0.00  0.00    -0.029 A 
ATOM     23  C   UNL     1      -9.158  -5.445  -0.690  0.00  0.00    +0.005 A 
ATOM     24  C   UNL     1      -9.428  -4.207  -0.137  0.00  0.00    +0.001 A 
ATOM     25  C   UNL     1      -8.474  -3.567   0.633  0.00  0.00    +0.005 A 
ATOM     26  C   UNL     1      -7.250  -4.167   0.858  0.00  0.00    -0.029 A 
ATOM     27  C   UNL     1      -6.214  -3.473   1.703  0.00  0.00    +0.045 C 
ATOM     28  C   UNL     1      -7.641  -7.397  -1.077  0.00  0.00    +0.045 C 
ENDBRANCH  18  21
ENDBRANCH  13  15
ENDBRANCH   2  13
BRANCH   5  29
ATOM     29  S   UNL     1       2.132  -7.736  -1.547  0.00  0.00    -0.081 S 
BRANCH  29  30
ATOM     30  C   UNL     1       2.745  -9.189  -0.651  0.00  0.00    +0.112 C 
BRANCH  30  31
ATOM     31  C   UNL     1       3.960  -9.737  -1.353  0.00  0.00    -0.034 A 
ATOM     32  C   UNL     1       3.814 -10.690  -2.344  0.00  0.00    +0.005 A 
ATOM     33  C   UNL     1       4.927 -11.195  -2.990  0.00  0.00    +0.004 A 
ATOM     34  C   UNL     1       6.189 -10.748  -2.647  0.00  0.00    +0.045 A 
ATOM     35  C   UNL     1       6.338  -9.791  -1.654  0.00  0.00    +0.120 A 
ATOM     36  C   UNL     1       5.219  -9.282  -1.011  0.00  0.00    +0.050 A 
BRANCH  35  37
ATOM     37  O   UNL     1       7.577  -9.350  -1.315  0.00  0.00    -0.495 OA
ATOM     38  C   UNL     1       8.683  -9.914  -2.022  0.00  0.00    +0.277 C 
ENDBRANCH  35  37
ENDBRANCH  30  31
ENDBRANCH  29  30
ENDBRANCH   5  29
TORSDOF 8
