REMARK  Name = ZINC09813896
REMARK  4 active torsions:
REMARK  status: ('A' for Active; 'I' for Inactive)
REMARK    1  A    between atoms: C_6  and  C_7
REMARK    2  A    between atoms: C_12  and  C_15
REMARK    3  A    between atoms: C_15  and  C_16
REMARK    4  A    between atoms: N_18  and  C_19
REMARK                            x       y       z     vdW  Elec       q    Type
REMARK                         _______ _______ _______ _____ _____    ______ ____
ROOT
ATOM      1  C   UNL     1      -1.267   2.129   0.012  0.00  0.00    +0.250 C 
ATOM      2  O   UNL     1      -2.310   1.504   0.004  0.00  0.00    -0.270 OA
ATOM      3  N   UNL     1      -1.288   3.476   0.024  0.00  0.00    -0.261 N 
ATOM      4  C   UNL     1      -2.502   4.152   0.027  0.00  0.00    +0.165 A 
ATOM      5  N   UNL     1      -2.727   5.451   0.043  0.00  0.00    -0.229 NA
ATOM      6  C   UNL     1      -3.955   5.932   0.039  0.00  0.00    +0.059 A 
ATOM      7  C   UNL     1      -4.991   5.058   0.030  0.00  0.00    +0.072 A 
ATOM      8  S   UNL     1      -4.112   3.502   0.018  0.00  0.00    -0.060 S 
ATOM      9  H   UNL     1      -0.456   3.975   0.030  0.00  0.00    +0.157 HD
ENDROOT
BRANCH   1  15
ATOM     10  C   UNL     1       1.222   2.127   0.011  0.00  0.00    +0.017 A 
ATOM     11  C   UNL     1       2.425   1.456   0.003  0.00  0.00    +0.050 A 
ATOM     12  C   UNL     1       2.451   0.068  -0.009  0.00  0.00    +0.166 A 
ATOM     13  C   UNL     1       1.256  -0.654  -0.013  0.00  0.00    +0.167 A 
ATOM     14  C   UNL     1       0.047   0.014  -0.004  0.00  0.00    +0.062 A 
ATOM     15  C   UNL     1       0.022   1.411   0.008  0.00  0.00    +0.041 A 
ATOM     16  O   UNL     1       1.552  -1.986  -0.025  0.00  0.00    -0.453 OA
ATOM     17  C   UNL     1       2.927  -2.070  -0.443  0.00  0.00    +0.466 C 
ATOM     18  O   UNL     1       3.490  -0.815  -0.020  0.00  0.00    -0.453 OA
ENDBRANCH   1  15
BRANCH   6  19
ATOM     19  C   UNL     1      -4.202   7.418   0.051  0.00  0.00    +0.152 C 
BRANCH  19  20
ATOM     20  C   UNL     1      -3.481   8.037   1.222  0.00  0.00    +0.223 C 
ATOM     21  O   UNL     1      -2.832   7.339   1.972  0.00  0.00    -0.275 OA
ATOM     22  N   UNL     1      -3.559   9.366   1.435  0.00  0.00    -0.283 N 
ATOM     23  H   UNL     1      -4.024   9.932   0.799  0.00  0.00    +0.155 HD
BRANCH  22  24
ATOM     24  C   UNL     1      -2.968   9.928   2.573  0.00  0.00    +0.069 A 
ATOM     25  C   UNL     1      -1.786   9.401   3.076  0.00  0.00    +0.027 A 
ATOM     26  C   UNL     1      -1.206   9.957   4.199  0.00  0.00    +0.017 A 
ATOM     27  C   UNL     1      -1.800  11.039   4.824  0.00  0.00    +0.021 A 
ATOM     28  C   UNL     1      -2.977  11.568   4.326  0.00  0.00    +0.055 A 
ATOM     29  C   UNL     1      -3.560  11.019   3.199  0.00  0.00    +0.146 A 
ATOM     30  F   UNL     1      -4.707  11.539   2.709  0.00  0.00    -0.204 F 
ATOM     31 BR   UNL     1      -1.000  11.796   6.362  0.00  0.00    -0.050 Br
ENDBRANCH  22  24
ENDBRANCH  19  20
ENDBRANCH   6  19
TORSDOF 4
