REMARK  Name = ZINC02636033
REMARK  11 active torsions:
REMARK  status: ('A' for Active; 'I' for Inactive)
REMARK    1  A    between atoms: C_1  and  C_2
REMARK    2  A    between atoms: C_5  and  S_8
REMARK    3  A    between atoms: S_8  and  N_11
REMARK    4  A    between atoms: N_11  and  C_12
REMARK    5  A    between atoms: N_11  and  C_13
REMARK    6  A    between atoms: C_13  and  C_14
REMARK    7  A    between atoms: C_17  and  C_20
REMARK    8  A    between atoms: N_22  and  N_23
REMARK    9  A    between atoms: C_24  and  C_26
REMARK   10  A    between atoms: C_26  and  C_27
REMARK   11  A    between atoms: C_34  and  C_36
REMARK                            x       y       z     vdW  Elec       q    Type
REMARK                         _______ _______ _______ _____ _____    ______ ____
ROOT
ATOM      1  C   UNL     1       1.170   2.086   0.002  0.00  0.00    -0.032 A 
ATOM      2  C   UNL     1      -0.017   1.375   0.010  0.00  0.00    +0.006 A 
ATOM      3  C   UNL     1       0.002  -0.004   0.002  0.00  0.00    +0.013 A 
ATOM      4  C   UNL     1       1.222  -0.682  -0.013  0.00  0.00    +0.038 A 
ATOM      5  C   UNL     1       2.416   0.041  -0.021  0.00  0.00    +0.013 A 
ATOM      6  C   UNL     1       2.383   1.420  -0.013  0.00  0.00    +0.006 A 
ENDROOT
BRANCH   4   7
ATOM      7  C   UNL     1       1.250  -2.160  -0.021  0.00  0.00    +0.260 C 
ATOM      8  O   UNL     1       0.208  -2.788  -0.014  0.00  0.00    -0.269 OA
ATOM      9  N   UNL     1       2.429  -2.812  -0.036  0.00  0.00    -0.230 N 
ATOM     10  H   UNL     1       3.260  -2.312  -0.041  0.00  0.00    +0.173 HD
BRANCH   9  11
ATOM     11  N   UNL     1       2.455  -4.213  -0.043  0.00  0.00    -0.234 N 
ATOM     12  C   UNL     1       3.635  -4.865  -0.058  0.00  0.00    +0.234 C 
ATOM     13  O   UNL     1       4.673  -4.239  -0.065  0.00  0.00    -0.274 OA
ATOM     14  H   UNL     1       1.624  -4.714  -0.038  0.00  0.00    +0.173 HD
BRANCH  12  15
ATOM     15  C   UNL     1       3.663  -6.372  -0.066  0.00  0.00    +0.136 C 
BRANCH  15  16
ATOM     16  C   UNL     1       5.093  -6.848  -0.082  0.00  0.00    +0.007 A 
ATOM     17  C   UNL     1       5.814  -7.190  -1.158  0.00  0.00    +0.200 A 
ATOM     18  O   UNL     1       7.052  -7.562  -0.786  0.00  0.00    -0.463 OA
ATOM     19  C   UNL     1       7.195  -7.488   0.552  0.00  0.00    +0.135 A 
ATOM     20  C   UNL     1       5.973  -7.035   1.078  0.00  0.00    +0.024 A 
ATOM     21  C   UNL     1       5.823  -6.860   2.452  0.00  0.00    +0.012 A 
ATOM     22  C   UNL     1       6.880  -7.134   3.292  0.00  0.00    +0.004 A 
ATOM     23  C   UNL     1       8.087  -7.582   2.774  0.00  0.00    -0.047 A 
ATOM     24  C   UNL     1       8.248  -7.759   1.417  0.00  0.00    +0.050 A 
ATOM     25  C   UNL     1       9.234  -7.878   3.706  0.00  0.00    +0.044 C 
ENDBRANCH  15  16
ENDBRANCH  12  15
ENDBRANCH   9  11
ENDBRANCH   4   7
BRANCH   1  26
ATOM     26  C   UNL     1       1.142   3.593   0.010  0.00  0.00    +0.144 C 
BRANCH  26  27
ATOM     27  N   UNL     1       1.146   4.074   1.394  0.00  0.00    -0.175 NA
ATOM     28  C   UNL     1      -0.113   4.187   2.134  0.00  0.00    +0.132 C 
BRANCH  27  29
ATOM     29  S   UNL     1       2.574   4.491   2.122  0.00  0.00    +0.061 S 
ATOM     30  O   UNL     1       2.367   4.367   3.522  0.00  0.00    -0.153 OA
ATOM     31  O   UNL     1       3.600   3.785   1.438  0.00  0.00    -0.153 OA
BRANCH  29  36
ATOM     32  C   UNL     1       3.492  10.353   1.025  0.00  0.00    +0.044 C 
ATOM     33  C   UNL     1       3.263   8.889   1.299  0.00  0.00    -0.050 A 
ATOM     34  C   UNL     1       2.564   8.498   2.426  0.00  0.00    +0.005 A 
ATOM     35  C   UNL     1       2.354   7.154   2.677  0.00  0.00    +0.029 A 
ATOM     36  C   UNL     1       2.842   6.203   1.801  0.00  0.00    +0.105 A 
ATOM     37  C   UNL     1       3.544   6.594   0.677  0.00  0.00    +0.029 A 
ATOM     38  C   UNL     1       3.750   7.937   0.423  0.00  0.00    +0.005 A 
ENDBRANCH  29  36
ENDBRANCH  27  29
ENDBRANCH  26  27
ENDBRANCH   1  26
TORSDOF 8
