REMARK  Name = ZINC53103429
REMARK  7 active torsions:
REMARK  status: ('A' for Active; 'I' for Inactive)
REMARK    1  A    between atoms: C_1  and  C_2
REMARK    2  A    between atoms: C_3  and  C_21
REMARK    3  A    between atoms: C_8  and  C_9
REMARK    4  A    between atoms: N_11  and  C_12
REMARK    5  A    between atoms: C_12  and  C_19
REMARK    6  A    between atoms: C_15  and  C_18
REMARK    7  A    between atoms: C_19  and  O_20
REMARK                            x       y       z     vdW  Elec       q    Type
REMARK                         _______ _______ _______ _____ _____    ______ ____
ROOT
ATOM      1  C   UNL     1       1.986  -0.919   3.058  0.00  0.00    +0.250 C 
ATOM      2  O   UNL     1       2.532  -1.360   4.051  0.00  0.00    -0.270 OA
ATOM      3  N   UNL     1       1.295   0.236   3.126  0.00  0.00    -0.303 N 
ATOM      4  H   UNL     1       0.924   0.627   2.320  0.00  0.00    +0.150 HD
ENDROOT
BRANCH   1  12
ATOM      5  C   UNL     1      -0.017  -2.952   2.338  0.00  0.00    +0.046 C 
ATOM      6  C   UNL     1       1.133  -2.619   1.423  0.00  0.00    -0.010 A 
ATOM      7  C   UNL     1       1.283  -3.258   0.203  0.00  0.00    +0.064 A 
ATOM      8  N   UNL     1       2.296  -2.952  -0.583  0.00  0.00    -0.151 NA
ATOM      9  N   UNL     1       3.174  -2.071  -0.270  0.00  0.00    -0.106 NA
ATOM     10  C   UNL     1       3.126  -1.401   0.872  0.00  0.00    +0.301 A 
ATOM     11  O   UNL     1       4.074  -0.478   1.162  0.00  0.00    -0.263 OA
ATOM     12  C   UNL     1       2.080  -1.650   1.776  0.00  0.00    +0.109 A 
ATOM     13  C   UNL     1       0.287  -4.304  -0.226  0.00  0.00    +0.068 C 
ENDBRANCH   1  12
BRANCH   3  14
ATOM     14  C   UNL     1       1.103   0.899   4.418  0.00  0.00    +0.058 C 
ATOM     15  C   UNL     1       0.219   2.134   4.231  0.00  0.00    +0.028 C 
ATOM     16  C   UNL     1       0.894   3.101   3.256  0.00  0.00    +0.005 C 
ATOM     17  C   UNL     1       2.252   3.526   3.817  0.00  0.00    -0.014 C 
ATOM     18  C   UNL     1       3.136   2.292   4.004  0.00  0.00    +0.005 C 
ATOM     19  C   UNL     1       2.462   1.325   4.979  0.00  0.00    +0.028 C 
ATOM     20  C   UNL     1       2.927   4.493   2.842  0.00  0.00    +0.007 C 
BRANCH  14  21
ATOM     21  C   UNL     1       0.429  -0.067   5.393  0.00  0.00    +0.181 C 
BRANCH  21  22
ATOM     22  O   UNL     1      -0.780  -0.562   4.814  0.00  0.00    -0.393 OA
ATOM     23  H   UNL     1      -1.262  -1.182   5.378  0.00  0.00    +0.209 HD
ENDBRANCH  21  22
ENDBRANCH  14  21
ENDBRANCH   3  14
TORSDOF 4
