REMARK  Name = ZINC15864405
REMARK  7 active torsions:
REMARK  status: ('A' for Active; 'I' for Inactive)
REMARK    1  A    between atoms: C_1  and  C_2
REMARK    2  A    between atoms: C_8  and  C_10
REMARK    3  A    between atoms: C_13  and  N_16
REMARK    4  A    between atoms: C_17  and  N_29
REMARK    5  A    between atoms: C_18  and  C_22
REMARK    6  A    between atoms: C_19  and  C_21
REMARK    7  A    between atoms: C_30  and  C_32
REMARK                            x       y       z     vdW  Elec       q    Type
REMARK                         _______ _______ _______ _____ _____    ______ ____
ROOT
ATOM      1  N   UNL     1       1.688   4.385  10.687  0.00  0.00    -0.218 N 
ATOM      2  C   UNL     1       2.249   3.382  11.416  0.00  0.00    +0.137 A 
ATOM      3  C   UNL     1       2.062   3.695  12.750  0.00  0.00    +0.045 A 
ATOM      4  C   UNL     1       1.369   4.920  12.800  0.00  0.00    +0.070 A 
ATOM      5  N   UNL     1       1.156   5.325  11.577  0.00  0.00    -0.169 NA
ATOM      6  C   UNL     1       0.949   5.644  14.054  0.00  0.00    +0.068 C 
ENDROOT
BRANCH   3   7
ATOM      7  C   UNL     1       2.508   2.889  13.912  0.00  0.00    -0.013 A 
ATOM      8  C   UNL     1       1.962   1.627  14.139  0.00  0.00    +0.011 A 
ATOM      9  C   UNL     1       2.384   0.879  15.219  0.00  0.00    +0.039 A 
ATOM     10  C   UNL     1       3.342   1.385  16.083  0.00  0.00    +0.123 A 
ATOM     11  C   UNL     1       3.884   2.641  15.864  0.00  0.00    +0.039 A 
ATOM     12  C   UNL     1       3.471   3.394  14.784  0.00  0.00    +0.011 A 
ATOM     13  F   UNL     1       3.749   0.651  17.142  0.00  0.00    -0.205 F 
ENDBRANCH   3   7
BRANCH   1  17
ATOM     14  C   UNL     1       1.586   4.624   6.526  0.00  0.00    +0.037 A 
ATOM     15  C   UNL     1       2.691   4.059   7.168  0.00  0.00    +0.015 A 
ATOM     16  C   UNL     1       2.723   3.986   8.543  0.00  0.00    +0.028 A 
ATOM     17  C   UNL     1       1.654   4.465   9.292  0.00  0.00    +0.067 A 
ATOM     18  C   UNL     1       0.550   5.024   8.656  0.00  0.00    +0.028 A 
ATOM     19  C   UNL     1       0.513   5.105   7.282  0.00  0.00    +0.015 A 
BRANCH  14  27
ATOM     20  C   UNL     1       4.303   3.625  -0.223  0.00  0.00    +0.066 C 
ATOM     21  C   UNL     1       3.263   4.079   0.768  0.00  0.00    +0.047 A 
ATOM     22  C   UNL     1       2.111   4.657   0.349  0.00  0.00    +0.071 A 
ATOM     23  S   UNL     1       1.306   4.966   1.914  0.00  0.00    -0.060 S 
ATOM     24  C   UNL     1       2.551   4.323   2.940  0.00  0.00    +0.165 A 
ATOM     25  N   UNL     1       3.455   3.929   2.064  0.00  0.00    -0.230 NA
ATOM     26  N   UNL     1       2.585   4.244   4.326  0.00  0.00    -0.261 N 
ATOM     27  C   UNL     1       1.550   4.708   5.053  0.00  0.00    +0.250 C 
ATOM     28  O   UNL     1       0.585   5.196   4.495  0.00  0.00    -0.270 OA
ATOM     29  H   UNL     1       3.354   3.855   4.771  0.00  0.00    +0.157 HD
ENDBRANCH  14  27
ENDBRANCH   1  17
BRANCH   2  30
ATOM     30  N   UNL     1       2.891   2.255  10.914  0.00  0.00    -0.270 N 
ATOM     31  C   UNL     1       2.265   1.467  10.016  0.00  0.00    +0.215 C 
ATOM     32  O   UNL     1       1.194   1.803   9.557  0.00  0.00    -0.276 OA
ATOM     33  C   UNL     1       2.897   0.169   9.583  0.00  0.00    +0.109 C 
ATOM     34  H   UNL     1       3.788   2.036  11.209  0.00  0.00    +0.156 HD
ENDBRANCH   2  30
TORSDOF 4
