REMARK  Name = ZINC35455604
REMARK  9 active torsions:
REMARK  status: ('A' for Active; 'I' for Inactive)
REMARK    1  A    between atoms: C_1  and  C_2
REMARK    2  A    between atoms: C_2  and  C_3
REMARK    3  A    between atoms: C_2  and  C_4
REMARK    4  A    between atoms: C_5  and  C_19
REMARK    5  A    between atoms: N_7  and  C_9
REMARK    6  A    between atoms: C_12  and  N_15
REMARK    7  A    between atoms: N_23  and  C_27
REMARK    8  A    between atoms: C_27  and  C_28
REMARK    9  A    between atoms: C_31  and  C_34
REMARK                            x       y       z     vdW  Elec       q    Type
REMARK                         _______ _______ _______ _____ _____    ______ ____
ROOT
ATOM      1  C   UNL     1       0.731  -0.503   1.223  0.00  0.00    +0.077 A 
ATOM      2  C   UNL     1       0.189  -1.339   2.230  0.00  0.00    +0.066 A 
ATOM      3  C   UNL     1       1.198  -1.555   3.165  0.00  0.00    +0.281 A 
ATOM      4  N   UNL     1       2.288  -0.881   2.737  0.00  0.00    -0.196 N 
ATOM      5  N   UNL     1       1.971  -0.245   1.532  0.00  0.00    -0.167 NA
ATOM      6  O   UNL     1       1.104  -2.299   4.292  0.00  0.00    -0.265 OA
ENDROOT
BRANCH   2   7
ATOM      7  C   UNL     1      -1.173  -1.873   2.279  0.00  0.00    +0.043 C 
ATOM      8  C   UNL     1      -1.376  -3.201   2.494  0.00  0.00    +0.099 C 
ATOM      9  C   UNL     1      -2.624  -3.875   2.564  0.00  0.00    +0.269 C 
ATOM     10  O   UNL     1      -3.727  -3.372   2.442  0.00  0.00    -0.268 OA
ATOM     11  N   UNL     1      -2.358  -5.176   2.789  0.00  0.00    -0.216 N 
ATOM     12  C   UNL     1      -1.030  -5.359   2.865  0.00  0.00    +0.313 C 
ATOM     13  O   UNL     1      -0.482  -6.428   3.061  0.00  0.00    -0.252 OA
ATOM     14  N   UNL     1      -0.394  -4.186   2.685  0.00  0.00    -0.265 N 
ATOM     15  H   UNL     1       0.566  -4.046   2.690  0.00  0.00    +0.157 HD
BRANCH  11  16
ATOM     16  C   UNL     1      -3.365  -6.231   2.931  0.00  0.00    +0.153 C 
BRANCH  16  17
ATOM     17  C   UNL     1      -3.663  -6.826   1.579  0.00  0.00    -0.029 A 
ATOM     18  C   UNL     1      -4.666  -6.285   0.795  0.00  0.00    +0.006 A 
ATOM     19  C   UNL     1      -4.944  -6.825  -0.444  0.00  0.00    +0.019 A 
ATOM     20  C   UNL     1      -4.210  -7.919  -0.906  0.00  0.00    +0.052 A 
ATOM     21  C   UNL     1      -3.199  -8.460  -0.110  0.00  0.00    +0.019 A 
ATOM     22  C   UNL     1      -2.928  -7.907   1.125  0.00  0.00    +0.006 A 
BRANCH  20  23
ATOM     23  C   UNL     1      -4.494  -8.485  -2.191  0.00  0.00    +0.099 C 
ATOM     24  N   UNL     1      -4.719  -8.934  -3.210  0.00  0.00    -0.191 NA
ENDBRANCH  20  23
ENDBRANCH  16  17
ENDBRANCH  11  16
ENDBRANCH   2   7
BRANCH   4  25
ATOM     25  C   UNL     1       3.528  -0.832   3.387  0.00  0.00    +0.069 A 
ATOM     26  C   UNL     1       3.587  -0.836   4.774  0.00  0.00    +0.030 A 
ATOM     27  C   UNL     1       4.811  -0.787   5.413  0.00  0.00    +0.035 A 
ATOM     28  C   UNL     1       5.977  -0.734   4.671  0.00  0.00    +0.126 A 
ATOM     29  C   UNL     1       5.922  -0.729   3.290  0.00  0.00    +0.035 A 
ATOM     30  C   UNL     1       4.701  -0.784   2.646  0.00  0.00    +0.030 A 
BRANCH  28  31
ATOM     31  N   UNL     1       7.287  -0.681   5.359  0.00  0.00    +0.056 N 
ATOM     32  O   UNL     1       7.337  -0.685   6.566  0.00  0.00    -0.126 OA
ATOM     33  O   UNL     1       8.307  -0.634   4.712  0.00  0.00    -0.126 OA
ENDBRANCH  28  31
ENDBRANCH   4  25
BRANCH   1  35
ATOM     34  C   UNL     1      -0.019   1.526   0.010  0.00  0.00    +0.014 C 
ATOM     35  C   UNL     1       0.002  -0.004   0.002  0.00  0.00    +0.034 C 
ATOM     36  C   UNL     1       0.718  -0.497  -1.257  0.00  0.00    +0.014 C 
ENDBRANCH   1  35
TORSDOF 7
