REMARK  Name = ZINC38610792
REMARK  9 active torsions:
REMARK  status: ('A' for Active; 'I' for Inactive)
REMARK    1  A    between atoms: C_1  and  C_2
REMARK    2  A    between atoms: C_4  and  C_16
REMARK    3  A    between atoms: C_6  and  C_14
REMARK    4  A    between atoms: C_7  and  N_13
REMARK    5  A    between atoms: C_20  and  O_31
REMARK    6  A    between atoms: C_21  and  O_22
REMARK    7  A    between atoms: O_22  and  C_23
REMARK    8  A    between atoms: C_23  and  C_24
REMARK    9  A    between atoms: O_31  and  C_32
REMARK                            x       y       z     vdW  Elec       q    Type
REMARK                         _______ _______ _______ _____ _____    ______ ____
ROOT
ATOM      1  C   UNL     1      -2.755   0.867   0.756  0.00  0.00    +0.010 A 
ATOM      2  C   UNL     1      -2.246   1.151   2.010  0.00  0.00    +0.008 A 
ATOM      3  C   UNL     1      -2.446   2.398   2.574  0.00  0.00    +0.004 A 
ATOM      4  C   UNL     1      -3.156   3.365   1.886  0.00  0.00    +0.049 A 
ATOM      5  C   UNL     1      -3.668   3.086   0.630  0.00  0.00    +0.162 A 
ATOM      6  C   UNL     1      -3.462   1.833   0.060  0.00  0.00    +0.166 A 
ENDROOT
BRANCH   1  10
ATOM      7  C   UNL     1      -0.018   1.503   0.010  0.00  0.00    +0.067 C 
ATOM      8  C   UNL     1       0.002  -0.004   0.002  0.00  0.00    +0.066 C 
ATOM      9  C   UNL     1      -1.064  -0.768   0.003  0.00  0.00    +0.030 C 
ATOM     10  C   UNL     1      -2.536  -0.493   0.145  0.00  0.00    +0.101 C 
ATOM     11  C   UNL     1      -3.065  -1.577   1.066  0.00  0.00    +0.098 C 
ATOM     12  C   UNL     1      -2.303  -2.628   1.436  0.00  0.00    +0.195 C 
ATOM     13  O   UNL     1      -1.023  -2.853   1.091  0.00  0.00    -0.448 OA
ATOM     14  C   UNL     1      -0.529  -2.198  -0.081  0.00  0.00    +0.343 C 
ATOM     15  N   UNL     1       0.921  -1.985  -0.028  0.00  0.00    -0.138 NA
ATOM     16  N   UNL     1       1.127  -0.765  -0.013  0.00  0.00    -0.155 NA
BRANCH  12  17
ATOM     17  N   UNL     1      -2.896  -3.562   2.247  0.00  0.00    -0.329 N 
ATOM     18  H   UNL     1      -3.818  -3.448   2.526  0.00  0.00    +0.145 HD
ATOM     19  H   UNL     1      -2.393  -4.337   2.542  0.00  0.00    +0.145 HD
ENDBRANCH  12  17
BRANCH  11  20
ATOM     20  C   UNL     1      -4.407  -1.482   1.556  0.00  0.00    +0.101 C 
ATOM     21  N   UNL     1      -5.472  -1.407   1.944  0.00  0.00    -0.191 NA
ENDBRANCH  11  20
ENDBRANCH   1  10
BRANCH   5  22
ATOM     22  O   UNL     1      -4.367   4.037  -0.048  0.00  0.00    -0.491 OA
ATOM     23  C   UNL     1      -4.534   5.301   0.597  0.00  0.00    +0.277 C 
ENDBRANCH   5  22
BRANCH   6  24
ATOM     24  O   UNL     1      -3.958   1.557  -1.176  0.00  0.00    -0.483 OA
BRANCH  24  25
ATOM     25  C   UNL     1      -5.278   1.013  -1.238  0.00  0.00    +0.264 C 
BRANCH  25  26
ATOM     26  C   UNL     1      -5.655   0.773  -2.677  0.00  0.00    -0.010 A 
ATOM     27  C   UNL     1      -6.276   1.771  -3.404  0.00  0.00    +0.008 A 
ATOM     28  C   UNL     1      -6.622   1.552  -4.724  0.00  0.00    +0.015 A 
ATOM     29  C   UNL     1      -6.347   0.333  -5.318  0.00  0.00    +0.018 A 
ATOM     30  C   UNL     1      -5.726  -0.666  -4.590  0.00  0.00    +0.015 A 
ATOM     31  C   UNL     1      -5.376  -0.444  -3.271  0.00  0.00    +0.008 A 
ATOM     32 BR   UNL     1      -6.820   0.032  -7.124  0.00  0.00    -0.050 Br
ENDBRANCH  25  26
ENDBRANCH  24  25
ENDBRANCH   6  24
TORSDOF 7
