REMARK  Name = ZINC39445833
REMARK  7 active torsions:
REMARK  status: ('A' for Active; 'I' for Inactive)
REMARK    1  A    between atoms: C_6  and  C_7
REMARK    2  A    between atoms: C_11  and  C_13
REMARK    3  A    between atoms: C_13  and  N_14
REMARK    4  A    between atoms: N_14  and  C_15
REMARK    5  A    between atoms: N_18  and  C_21
REMARK    6  A    between atoms: C_24  and  C_27
REMARK    7  A    between atoms: N_29  and  C_30
REMARK                            x       y       z     vdW  Elec       q    Type
REMARK                         _______ _______ _______ _____ _____    ______ ____
ROOT
ATOM      1  C   UNL     1      -0.298  -4.903  -2.414  0.00  0.00    -0.069 C 
ATOM      2  C   UNL     1      -1.139  -4.518  -3.633  0.00  0.00    +0.003 C 
ATOM      3  C   UNL     1      -0.501  -5.107  -4.895  0.00  0.00    +0.103 C 
ATOM      4  N   UNL     1      -0.334  -6.555  -4.710  0.00  0.00    -0.330 N 
ATOM      5  C   UNL     1       0.381  -7.037  -3.520  0.00  0.00    +0.103 C 
ATOM      6  C   UNL     1      -0.267  -6.427  -2.274  0.00  0.00    +0.003 C 
ENDROOT
BRANCH   4   7
ATOM      7  C   UNL     1      -0.845  -7.452  -5.641  0.00  0.00    +0.030 A 
ATOM      8  C   UNL     1      -1.619  -6.987  -6.701  0.00  0.00    +0.024 A 
ATOM      9  C   UNL     1      -2.126  -7.872  -7.625  0.00  0.00    +0.015 A 
ATOM     10  C   UNL     1      -1.862  -9.239  -7.498  0.00  0.00    +0.037 A 
ATOM     11  C   UNL     1      -1.084  -9.703  -6.434  0.00  0.00    +0.015 A 
ATOM     12  C   UNL     1      -0.576  -8.812  -5.516  0.00  0.00    +0.024 A 
BRANCH  10  13
ATOM     13  C   UNL     1      -2.404 -10.191  -8.487  0.00  0.00    +0.244 C 
ATOM     14  O   UNL     1      -3.081  -9.787  -9.412  0.00  0.00    -0.270 OA
ATOM     15  N   UNL     1      -2.149 -11.509  -8.364  0.00  0.00    -0.308 N 
ATOM     16  H   UNL     1      -1.609 -11.831  -7.626  0.00  0.00    +0.149 HD
BRANCH  15  17
ATOM     17  C   UNL     1      -2.687 -12.454  -9.345  0.00  0.00    +0.073 C 
ATOM     18  C   UNL     1      -4.099 -12.909  -8.921  0.00  0.00    +0.022 C 
ATOM     19  C   UNL     1      -4.153 -14.403  -9.327  0.00  0.00    +0.002 C 
ATOM     20  C   UNL     1      -2.724 -14.899  -8.997  0.00  0.00    +0.002 C 
ATOM     21  C   UNL     1      -1.813 -13.719  -9.393  0.00  0.00    +0.022 C 
ENDBRANCH  15  17
ENDBRANCH  10  13
ENDBRANCH   4   7
BRANCH   1  22
ATOM     22  N   UNL     1      -0.889  -4.312  -1.206  0.00  0.00    +0.382 N 
ATOM     23  H   UNL     1      -0.383  -4.631  -0.393  0.00  0.00    -0.085 HD
ATOM     24  H   UNL     1      -1.855  -4.593  -1.132  0.00  0.00    -0.085 HD
BRANCH  22  25
ATOM     25  C   UNL     1      -0.809  -2.848  -1.288  0.00  0.00    -0.067 C 
BRANCH  25  30
ATOM     26  C   UNL     1      -1.248  -0.727  -0.029  0.00  0.00    +0.077 C 
ATOM     27  N   UNL     1      -2.453  -0.227  -0.035  0.00  0.00    -0.153 NA
ATOM     28  N   UNL     1      -3.431  -1.216  -0.033  0.00  0.00    -0.161 NA
ATOM     29  C   UNL     1      -2.930  -2.408  -0.027  0.00  0.00    +0.115 C 
ATOM     30  C   UNL     1      -1.425  -2.232  -0.029  0.00  0.00    +0.066 C 
BRANCH  26  36
ATOM     31  C   UNL     1       0.016   1.416  -0.029  0.00  0.00    +0.011 A 
ATOM     32  C   UNL     1       1.209   2.107  -0.029  0.00  0.00    +0.020 A 
ATOM     33  C   UNL     1       2.412   1.419  -0.030  0.00  0.00    +0.041 A 
ATOM     34  C   UNL     1       2.425   0.033  -0.030  0.00  0.00    +0.020 A 
ATOM     35  C   UNL     1       1.240  -0.670  -0.030  0.00  0.00    +0.011 A 
ATOM     36  C   UNL     1       0.022   0.017  -0.029  0.00  0.00    -0.001 A 
ATOM     37 CL   UNL     1       3.909   2.297  -0.032  0.00  0.00    -0.084 Cl
ENDBRANCH  26  36
ENDBRANCH  25  30
ENDBRANCH  22  25
ENDBRANCH   1  22
TORSDOF 7
