REMARK  Name = ZINC45606242
REMARK  4 active torsions:
REMARK  status: ('A' for Active; 'I' for Inactive)
REMARK    1  A    between atoms: C_3  and  N_11
REMARK    2  A    between atoms: C_6  and  C_7
REMARK    3  A    between atoms: N_15  and  C_18
REMARK    4  A    between atoms: C_18  and  C_19
REMARK                            x       y       z     vdW  Elec       q    Type
REMARK                         _______ _______ _______ _____ _____    ______ ____
ROOT
ATOM      1  N   UNL     1       3.435   1.688  -0.820  0.00  0.00    -0.317 N 
ATOM      2  C   UNL     1       4.678   0.911  -1.003  0.00  0.00    +0.104 C 
ATOM      3  C   UNL     1       5.720   1.714  -1.802  0.00  0.00    +0.000 C 
ATOM      4  C   UNL     1       5.029   2.469  -2.915  0.00  0.00    -0.077 C 
ATOM      5  N   UNL     1       4.699   3.815  -2.453  0.00  0.00    +0.385 N 
ATOM      6  C   UNL     1       3.450   3.933  -1.804  0.00  0.00    -0.059 C 
ATOM      7  C   UNL     1       3.444   3.102  -0.506  0.00  0.00    +0.088 C 
ATOM      8  H   UNL     1       5.420   4.118  -1.815  0.00  0.00    -0.081 HD
ENDROOT
BRANCH   1  11
ATOM      9  C   UNL     1      -0.176   1.118  -1.042  0.00  0.00    +0.017 A 
ATOM     10  C   UNL     1       1.033   1.775  -0.901  0.00  0.00    +0.044 A 
ATOM     11  C   UNL     1       2.213   1.041  -0.960  0.00  0.00    +0.121 A 
ATOM     12  N   UNL     1       2.183  -0.270  -1.149  0.00  0.00    -0.240 NA
ATOM     13  C   UNL     1       1.044  -0.922  -1.287  0.00  0.00    +0.125 A 
ATOM     14  C   UNL     1      -0.164  -0.256  -1.239  0.00  0.00    +0.073 A 
BRANCH  14  15
ATOM     15  C   UNL     1      -1.458  -1.014  -1.397  0.00  0.00    +0.419 C 
ATOM     16  F   UNL     1      -1.807  -1.061  -2.751  0.00  0.00    -0.166 F 
ATOM     17  F   UNL     1      -1.298  -2.316  -0.911  0.00  0.00    -0.166 F 
ATOM     18  F   UNL     1      -2.468  -0.367  -0.677  0.00  0.00    -0.166 F 
ENDBRANCH  14  15
ENDBRANCH   1  11
BRANCH   5  19
ATOM     19  C   UNL     1       4.706   4.718  -3.612  0.00  0.00    -0.001 C 
BRANCH  19  20
ATOM     20  C   UNL     1       4.490   6.135  -3.147  0.00  0.00    +0.116 A 
ATOM     21  N   UNL     1       3.259   6.604  -3.055  0.00  0.00    -0.219 NA
ATOM     22  C   UNL     1       3.003   7.839  -2.653  0.00  0.00    +0.128 A 
ATOM     23  C   UNL     1       4.088   8.692  -2.307  0.00  0.00    +0.051 A 
ATOM     24  C   UNL     1       4.044  10.082  -1.840  0.00  0.00    -0.025 A 
ATOM     25  C   UNL     1       5.227  10.672  -1.583  0.00  0.00    -0.004 A 
ATOM     26  S   UNL     1       6.451   9.434  -1.928  0.00  0.00    -0.073 S 
ATOM     27  C   UNL     1       5.369   8.122  -2.429  0.00  0.00    +0.114 A 
ATOM     28  N   UNL     1       5.535   6.877  -2.834  0.00  0.00    -0.227 NA
ATOM     29  C   UNL     1       5.473  12.074  -1.118  0.00  0.00    +0.043 C 
ATOM     30  C   UNL     1       4.562  12.378   0.079  0.00  0.00    +0.005 C 
ATOM     31  C   UNL     1       3.247  12.943  -0.448  0.00  0.00    +0.001 C 
ATOM     32  C   UNL     1       2.912  12.310  -1.798  0.00  0.00    +0.005 C 
ATOM     33  C   UNL     1       2.714  10.806  -1.649  0.00  0.00    +0.037 C 
ATOM     34  N   UNL     1       1.699   8.293  -2.570  0.00  0.00    -0.343 N 
ATOM     35  H   UNL     1       1.471   9.000  -1.946  0.00  0.00    +0.144 HD
ATOM     36  H   UNL     1       1.014   7.906  -3.137  0.00  0.00    +0.144 HD
ENDBRANCH  19  20
ENDBRANCH   5  19
TORSDOF 4
