REMARK  Name = ZINC32284734
REMARK  8 active torsions:
REMARK  status: ('A' for Active; 'I' for Inactive)
REMARK    1  A    between atoms: C_1  and  C_2
REMARK    2  A    between atoms: C_4  and  S_9
REMARK    3  A    between atoms: S_9  and  N_12
REMARK    4  A    between atoms: N_12  and  C_13
REMARK    5  A    between atoms: C_16  and  C_19
REMARK    6  A    between atoms: N_21  and  C_22
REMARK    7  A    between atoms: C_22  and  C_24
REMARK    8  A    between atoms: C_22  and  C_25
REMARK                            x       y       z     vdW  Elec       q    Type
REMARK                         _______ _______ _______ _____ _____    ______ ____
ROOT
ATOM      1  C   UNL     1       1.125   2.395  -0.183  0.00  0.00    +0.048 A 
ATOM      2  C   UNL     1       2.310   2.002   0.431  0.00  0.00    +0.025 A 
ATOM      3  C   UNL     1       3.461   2.733   0.241  0.00  0.00    +0.015 A 
ATOM      4  C   UNL     1       3.436   3.878  -0.560  0.00  0.00    +0.037 A 
ATOM      5  C   UNL     1       2.242   4.274  -1.171  0.00  0.00    +0.015 A 
ATOM      6  C   UNL     1       1.096   3.535  -0.982  0.00  0.00    +0.025 A 
ENDROOT
BRANCH   4   7
ATOM      7  C   UNL     1       4.666   4.667  -0.760  0.00  0.00    +0.245 C 
ATOM      8  O   UNL     1       4.642   5.663  -1.457  0.00  0.00    -0.270 OA
ATOM      9  N   UNL     1       5.816   4.284  -0.170  0.00  0.00    -0.305 N 
ATOM     10  H   UNL     1       5.837   3.383   0.460  0.00  0.00    +0.150 HD
BRANCH   9  11
ATOM     11  C   UNL     1       7.037   5.068  -0.369  0.00  0.00    +0.101 C 
ATOM     12  C   UNL     1       7.074   6.218   0.639  0.00  0.00    +0.033 C 
BRANCH  11  13
ATOM     13  C   UNL     1       8.240   4.183  -0.167  0.00  0.00    -0.024 A 
ATOM     14  C   UNL     1       8.246   3.251   0.854  0.00  0.00    +0.009 A 
ATOM     15  C   UNL     1       9.344   2.431   1.042  0.00  0.00    +0.050 A 
ATOM     16  C   UNL     1      10.444   2.556   0.211  0.00  0.00    +0.162 A 
ATOM     17  C   UNL     1      10.441   3.495  -0.811  0.00  0.00    +0.162 A 
ATOM     18  C   UNL     1       9.337   4.311  -1.000  0.00  0.00    +0.055 A 
ATOM     19  O   UNL     1      11.529   3.610  -1.626  0.00  0.00    -0.488 OA
ATOM     20  C   UNL     1      12.715   4.123  -1.016  0.00  0.00    +0.232 C 
ATOM     21  C   UNL     1      13.489   3.013  -0.323  0.00  0.00    +0.082 C 
ATOM     22  C   UNL     1      12.722   2.413   0.845  0.00  0.00    +0.232 C 
ATOM     23  O   UNL     1      11.537   1.758   0.389  0.00  0.00    -0.488 OA
ENDBRANCH  11  13
ENDBRANCH   9  11
ENDBRANCH   4   7
BRANCH   1  24
ATOM     24  N   UNL     1      -0.035   1.651   0.005  0.00  0.00    -0.216 N 
ATOM     25  H   UNL     1      -0.984   2.160   0.228  0.00  0.00    +0.174 HD
BRANCH  24  26
ATOM     26  S   UNL     1       0.014  -0.000  -0.105  0.00  0.00    +0.072 S 
ATOM     27  O   UNL     1       1.068  -0.433   0.745  0.00  0.00    -0.150 OA
ATOM     28  O   UNL     1      -1.323  -0.457   0.046  0.00  0.00    -0.150 OA
BRANCH  26  32
ATOM     29  C   UNL     1       3.657  -1.248  -3.639  0.00  0.00    +0.047 C 
ATOM     30  C   UNL     1       2.209  -0.968  -3.328  0.00  0.00    -0.013 A 
ATOM     31  C   UNL     1       1.827  -0.656  -2.037  0.00  0.00    +0.035 A 
ATOM     32  C   UNL     1       0.500  -0.398  -1.752  0.00  0.00    +0.109 A 
ATOM     33  C   UNL     1      -0.449  -0.459  -2.756  0.00  0.00    +0.031 A 
ATOM     34  C   UNL     1      -0.069  -0.766  -4.048  0.00  0.00    +0.040 A 
ATOM     35  C   UNL     1       1.261  -1.024  -4.335  0.00  0.00    +0.126 A 
ATOM     36  F   UNL     1       1.634  -1.329  -5.598  0.00  0.00    -0.205 F 
ENDBRANCH  26  32
ENDBRANCH  24  26
ENDBRANCH   1  24
TORSDOF 6
