REMARK  Name = ZINC39599589
REMARK  6 active torsions:
REMARK  status: ('A' for Active; 'I' for Inactive)
REMARK    1  A    between atoms: C_6  and  C_11
REMARK    2  A    between atoms: C_15  and  C_24
REMARK    3  A    between atoms: N_26  and  C_27
REMARK    4  A    between atoms: C_27  and  C_28
REMARK    5  A    between atoms: C_31  and  O_34
REMARK    6  A    between atoms: O_34  and  C_35
REMARK                            x       y       z     vdW  Elec       q    Type
REMARK                         _______ _______ _______ _____ _____    ______ ____
ROOT
ATOM      1  C   UNL     1       4.975  -2.712  -0.060  0.00  0.00    +0.247 C 
ATOM      2  O   UNL     1       6.013  -2.090  -0.174  0.00  0.00    -0.270 OA
ATOM      3  N   UNL     1       5.002  -4.056   0.036  0.00  0.00    -0.296 N 
ATOM      4  C   UNL     1       3.850  -4.989   0.052  0.00  0.00    +0.121 C 
ATOM      5  C   UNL     1       4.312  -6.196  -0.794  0.00  0.00    +0.100 C 
ATOM      6  C   UNL     1       5.848  -6.157  -0.727  0.00  0.00    -0.004 C 
ATOM      7  C   UNL     1       6.190  -4.936   0.141  0.00  0.00    +0.115 C 
ATOM      8  C   UNL     1       6.381  -7.432  -0.080  0.00  0.00    -0.010 C 
ATOM      9  C   UNL     1       7.912  -7.396  -0.077  0.00  0.00    -0.082 C 
ATOM     10  N   UNL     1       8.403  -7.280  -1.456  0.00  0.00    +0.379 N 
ATOM     11  C   UNL     1       7.963  -6.007  -2.039  0.00  0.00    -0.082 C 
ATOM     12  C   UNL     1       6.434  -5.984  -2.125  0.00  0.00    -0.010 C 
ATOM     13  H   UNL     1       9.412  -7.317  -1.456  0.00  0.00    -0.086 HD
ATOM     14  H   UNL     1       8.041  -8.044  -2.006  0.00  0.00    -0.086 HD
ENDROOT
BRANCH   1  20
ATOM     15  C   UNL     1      -1.032  -0.498   0.662  0.00  0.00    +0.001 A 
ATOM     16  C   UNL     1      -0.936  -1.755   1.257  0.00  0.00    +0.001 A 
ATOM     17  C   UNL     1       0.235  -2.447   1.245  0.00  0.00    +0.008 A 
ATOM     18  C   UNL     1       1.368  -1.889   0.626  0.00  0.00    -0.017 A 
ATOM     19  C   UNL     1       2.591  -2.576   0.596  0.00  0.00    +0.021 A 
ATOM     20  C   UNL     1       3.683  -1.994  -0.025  0.00  0.00    +0.037 A 
ATOM     21  C   UNL     1       3.574  -0.725  -0.621  0.00  0.00    +0.013 A 
ATOM     22  C   UNL     1       2.399  -0.046  -0.601  0.00  0.00    +0.009 A 
ATOM     23  C   UNL     1       1.270  -0.611   0.021  0.00  0.00    -0.018 A 
ATOM     24  C   UNL     1       0.043   0.073   0.053  0.00  0.00    +0.008 A 
ENDBRANCH   1  20
BRANCH   5  25
ATOM     25  C   UNL     1       3.791  -7.481  -0.204  0.00  0.00    +0.218 C 
ATOM     26  O   UNL     1       3.522  -7.541   0.977  0.00  0.00    -0.275 OA
ATOM     27  N   UNL     1       3.624  -8.563  -0.990  0.00  0.00    -0.311 N 
ATOM     28  H   UNL     1       3.839  -8.515  -1.934  0.00  0.00    +0.149 HD
BRANCH  27  29
ATOM     29  C   UNL     1       3.117  -9.813  -0.416  0.00  0.00    +0.139 C 
BRANCH  29  30
ATOM     30  C   UNL     1       3.023 -10.860  -1.496  0.00  0.00    -0.030 A 
ATOM     31  C   UNL     1       1.860 -10.989  -2.232  0.00  0.00    +0.009 A 
ATOM     32  C   UNL     1       1.772 -11.948  -3.223  0.00  0.00    +0.046 A 
ATOM     33  C   UNL     1       2.851 -12.781  -3.479  0.00  0.00    +0.130 A 
ATOM     34  C   UNL     1       4.017 -12.649  -2.739  0.00  0.00    +0.046 A 
ATOM     35  C   UNL     1       4.103 -11.685  -1.753  0.00  0.00    +0.009 A 
BRANCH  33  36
ATOM     36  O   UNL     1       2.766 -13.726  -4.452  0.00  0.00    -0.406 OA
BRANCH  36  37
ATOM     37  C   UNL     1       3.916 -14.548  -4.660  0.00  0.00    +0.575 C 
ATOM     38  F   UNL     1       4.210 -15.246  -3.484  0.00  0.00    -0.133 F 
ATOM     39  F   UNL     1       3.658 -15.459  -5.691  0.00  0.00    -0.133 F 
ATOM     40  F   UNL     1       5.007 -13.745  -5.010  0.00  0.00    -0.133 F 
ENDBRANCH  36  37
ENDBRANCH  33  36
ENDBRANCH  29  30
ENDBRANCH  27  29
ENDBRANCH   5  25
TORSDOF 6
