REMARK  Name = ZINC14664698
REMARK  11 active torsions:
REMARK  status: ('A' for Active; 'I' for Inactive)
REMARK    1  A    between atoms: C_1  and  C_2
REMARK    2  A    between atoms: C_2  and  C_3
REMARK    3  A    between atoms: C_2  and  O_4
REMARK    4  A    between atoms: O_4  and  C_5
REMARK    5  A    between atoms: C_10  and  C_11
REMARK    6  A    between atoms: N_13  and  C_14
REMARK    7  A    between atoms: C_14  and  N_16
REMARK    8  A    between atoms: N_16  and  N_17
REMARK    9  A    between atoms: C_18  and  C_20
REMARK   10  A    between atoms: C_20  and  O_21
REMARK   11  A    between atoms: O_21  and  C_22
REMARK                            x       y       z     vdW  Elec       q    Type
REMARK                         _______ _______ _______ _____ _____    ______ ____
ROOT
ATOM      1  N   UNL     1      -5.516  -1.685   0.732  0.00  0.00    -0.245 N 
ATOM      2  H   UNL     1      -6.403  -1.367   0.965  0.00  0.00    +0.172 HD
ENDROOT
BRANCH   1   3
ATOM      3  N   UNL     1      -5.302  -3.048   0.489  0.00  0.00    -0.232 N 
ATOM      4  C   UNL     1      -6.328  -3.918   0.580  0.00  0.00    +0.267 C 
ATOM      5  O   UNL     1      -7.436  -3.521   0.872  0.00  0.00    -0.271 OA
ATOM      6  H   UNL     1      -4.416  -3.366   0.256  0.00  0.00    +0.173 HD
BRANCH   4   7
ATOM      7  C   UNL     1      -6.098  -5.384   0.319  0.00  0.00    +0.326 C 
BRANCH   7   8
ATOM      8  O   UNL     1      -7.328  -6.095   0.476  0.00  0.00    -0.482 OA
BRANCH   8   9
ATOM      9  C   UNL     1      -7.294  -7.438   0.274  0.00  0.00    +0.136 A 
ATOM     10  C   UNL     1      -6.087  -8.054  -0.071  0.00  0.00    +0.047 A 
ATOM     11  C   UNL     1      -6.022  -9.397  -0.279  0.00  0.00    +0.012 A 
ATOM     12  C   UNL     1      -7.181 -10.181  -0.147  0.00  0.00    -0.017 A 
ATOM     13  C   UNL     1      -7.149 -11.570  -0.355  0.00  0.00    +0.008 A 
ATOM     14  C   UNL     1      -8.290 -12.298  -0.218  0.00  0.00    +0.001 A 
ATOM     15  C   UNL     1      -9.495 -11.687   0.126  0.00  0.00    +0.001 A 
ATOM     16  C   UNL     1      -9.564 -10.344   0.335  0.00  0.00    +0.010 A 
ATOM     17  C   UNL     1      -8.406  -9.559   0.202  0.00  0.00    -0.000 A 
ATOM     18  C   UNL     1      -8.439  -8.170   0.415  0.00  0.00    +0.067 A 
ATOM     19 BR   UNL     1     -10.060  -7.319   0.889  0.00  0.00    -0.046 Br
ENDBRANCH   8   9
ENDBRANCH   7   8
ENDBRANCH   4   7
ENDBRANCH   1   3
BRANCH   1  20
ATOM     20  C   UNL     1      -4.491  -0.815   0.641  0.00  0.00    +0.153 C 
ATOM     21  S   UNL     1      -4.752   0.851   0.938  0.00  0.00    -0.017 S 
BRANCH  20  24
ATOM     22  C   UNL     1      -2.234  -0.387   0.226  0.00  0.00    +0.253 C 
ATOM     23  O   UNL     1      -2.420   0.796   0.437  0.00  0.00    -0.270 OA
ATOM     24  N   UNL     1      -3.260  -1.257   0.317  0.00  0.00    -0.263 N 
ATOM     25  H   UNL     1      -3.111  -2.200   0.148  0.00  0.00    +0.157 HD
BRANCH  22  31
ATOM     26  C   UNL     1       0.183   0.031  -0.225  0.00  0.00    +0.133 A 
ATOM     27  C   UNL     1       1.444  -0.434  -0.565  0.00  0.00    +0.046 A 
ATOM     28  C   UNL     1       1.647  -1.780  -0.798  0.00  0.00    +0.004 A 
ATOM     29  C   UNL     1       0.592  -2.673  -0.704  0.00  0.00    +0.001 A 
ATOM     30  C   UNL     1      -0.669  -2.229  -0.373  0.00  0.00    +0.017 A 
ATOM     31  C   UNL     1      -0.887  -0.870  -0.129  0.00  0.00    +0.079 A 
BRANCH  26  32
ATOM     32  O   UNL     1      -0.016   1.352   0.009  0.00  0.00    -0.489 OA
BRANCH  32  34
ATOM     33  C   UNL     1       1.457   2.616  -1.431  0.00  0.00    +0.051 C 
ATOM     34  C   UNL     1       1.139   2.193   0.005  0.00  0.00    +0.167 C 
ATOM     35  C   UNL     1       0.868   3.437   0.854  0.00  0.00    +0.051 C 
ENDBRANCH  32  34
ENDBRANCH  26  32
ENDBRANCH  22  31
ENDBRANCH  20  24
ENDBRANCH   1  20
TORSDOF 9
