REMARK  Name = ZINC15946760
REMARK  9 active torsions:
REMARK  status: ('A' for Active; 'I' for Inactive)
REMARK    1  A    between atoms: C_1  and  C_2
REMARK    2  A    between atoms: C_2  and  C_3
REMARK    3  A    between atoms: C_8  and  N_9
REMARK    4  A    between atoms: C_10  and  C_12
REMARK    5  A    between atoms: C_16  and  N_17
REMARK    6  A    between atoms: C_18  and  C_20
REMARK    7  A    between atoms: C_20  and  N_70
REMARK    8  A    between atoms: C_25  and  C_27
REMARK    9  A    between atoms: C_27  and  C_28
REMARK                            x       y       z     vdW  Elec       q    Type
REMARK                         _______ _______ _______ _____ _____    ______ ____
ROOT
ATOM      1  C   UNL     1      -1.319   0.328   0.319  0.00  0.00    +0.069 A 
ATOM      2  C   UNL     1      -2.548   1.107   0.385  0.00  0.00    -0.023 A 
ATOM      3  C   UNL     1      -2.373   2.444   0.432  0.00  0.00    -0.004 A 
ATOM      4  S   UNL     1      -0.616   2.675   0.410  0.00  0.00    -0.077 S 
ATOM      5  C   UNL     1      -0.117   1.018   0.330  0.00  0.00    +0.084 A 
ATOM      6  C   UNL     1      -3.428   3.505   0.475  0.00  0.00    +0.043 C 
ATOM      7  C   UNL     1      -4.456   3.153   1.558  0.00  0.00    +0.005 C 
ATOM      8  C   UNL     1      -5.549   2.297   0.926  0.00  0.00    +0.001 C 
ATOM      9  C   UNL     1      -4.959   1.423  -0.179  0.00  0.00    +0.005 C 
ATOM     10  C   UNL     1      -3.927   0.459   0.397  0.00  0.00    +0.037 C 
ENDROOT
BRANCH   1  12
ATOM     11  N   UNL     1      -1.388  -1.751  -0.952  0.00  0.00    -0.281 N 
ATOM     12  C   UNL     1      -1.352  -1.136   0.247  0.00  0.00    +0.251 C 
ATOM     13  O   UNL     1      -1.346  -1.796   1.270  0.00  0.00    -0.270 OA
ATOM     14  H   UNL     1      -1.333  -1.229  -1.767  0.00  0.00    +0.155 HD
BRANCH  11  20
ATOM     15  C   UNL     1      -2.092  -3.739  -2.129  0.00  0.00    -0.026 A 
ATOM     16  C   UNL     1      -2.201  -5.114  -2.196  0.00  0.00    +0.005 A 
ATOM     17  C   UNL     1      -1.739  -5.897  -1.155  0.00  0.00    +0.000 A 
ATOM     18  C   UNL     1      -1.160  -5.307  -0.046  0.00  0.00    +0.002 A 
ATOM     19  C   UNL     1      -1.042  -3.933   0.025  0.00  0.00    +0.023 A 
ATOM     20  C   UNL     1      -1.506  -3.143  -1.020  0.00  0.00    +0.037 A 
BRANCH  15  22
ATOM     21  C   UNL     1      -1.453  -2.570  -4.221  0.00  0.00    +0.009 C 
ATOM     22  C   UNL     1      -2.602  -2.885  -3.262  0.00  0.00    +0.033 C 
ENDBRANCH  15  22
ENDBRANCH  11  20
ENDBRANCH   1  12
BRANCH   5  23
ATOM     23  N   UNL     1       1.171   0.507   0.283  0.00  0.00    -0.281 N 
ATOM     24  C   UNL     1       2.229   1.343   0.292  0.00  0.00    +0.201 C 
ATOM     25  O   UNL     1       2.054   2.542   0.346  0.00  0.00    -0.278 OA
ATOM     26  H   UNL     1       1.311  -0.452   0.239  0.00  0.00    +0.155 HD
BRANCH  24  27
ATOM     27  C   UNL     1       3.628   0.787   0.235  0.00  0.00    +0.019 C 
BRANCH  27  33
ATOM     28  C   UNL     1       4.346   2.692  -1.076  0.00  0.00    -0.078 C 
ATOM     29  C   UNL     1       5.450   3.741  -1.227  0.00  0.00    -0.019 C 
ATOM     30  C   UNL     1       5.463   4.643   0.010  0.00  0.00    -0.003 C 
ATOM     31  C   UNL     1       5.670   3.781   1.258  0.00  0.00    -0.015 C 
ATOM     32  C   UNL     1       4.560   2.731   1.337  0.00  0.00    -0.068 C 
ATOM     33  N   UNL     1       4.617   1.880   0.130  0.00  0.00    +0.387 N 
ATOM     34  H   UNL     1       5.557   1.474   0.053  0.00  0.00    -0.081 HD
BRANCH  32  35
ATOM     35  C   UNL     1       4.774   1.854   2.573  0.00  0.00    -0.019 C 
ATOM     36  C   UNL     1       4.668   2.714   3.833  0.00  0.00    +0.002 C 
ENDBRANCH  32  35
ENDBRANCH  27  33
ENDBRANCH  24  27
ENDBRANCH   5  23
TORSDOF 7
