REMARK  Name = ZINC35674443
REMARK  14 active torsions:
REMARK  status: ('A' for Active; 'I' for Inactive)
REMARK    1  A    between atoms: C_1  and  C_2
REMARK    2  A    between atoms: C_2  and  C_3
REMARK    3  A    between atoms: C_3  and  C_5
REMARK    4  A    between atoms: C_3  and  N_28
REMARK    5  A    between atoms: C_9  and  O_26
REMARK    6  A    between atoms: C_10  and  O_24
REMARK    7  A    between atoms: N_15  and  C_16
REMARK    8  A    between atoms: C_16  and  C_17
REMARK    9  A    between atoms: C_22  and  C_23
REMARK   10  A    between atoms: O_24  and  C_25
REMARK   11  A    between atoms: O_26  and  C_27
REMARK   12  A    between atoms: C_29  and  C_31
REMARK   13  A    between atoms: C_34  and  O_37
REMARK   14  A    between atoms: O_37  and  C_38
REMARK                            x       y       z     vdW  Elec       q    Type
REMARK                         _______ _______ _______ _____ _____    ______ ____
ROOT
ATOM      1  C   UNL     1      -1.345  -1.932  -0.150  0.00  0.00    -0.016 C 
ATOM      2  C   UNL     1      -2.726  -2.532  -0.202  0.00  0.00    -0.052 A 
ATOM      3  C   UNL     1      -3.735  -1.933   0.538  0.00  0.00    +0.051 A 
ATOM      4  C   UNL     1      -5.017  -2.452   0.521  0.00  0.00    +0.162 A 
ATOM      5  C   UNL     1      -5.294  -3.583  -0.242  0.00  0.00    +0.162 A 
ATOM      6  C   UNL     1      -4.285  -4.177  -0.978  0.00  0.00    +0.053 A 
ATOM      7  C   UNL     1      -3.002  -3.651  -0.959  0.00  0.00    -0.044 A 
ATOM      8  C   UNL     1      -1.934  -4.325  -1.783  0.00  0.00    +0.017 C 
ATOM      9  C   UNL     1      -0.553  -3.859  -1.322  0.00  0.00    -0.073 C 
ATOM     10  N   UNL     1      -0.542  -2.389  -1.288  0.00  0.00    +0.388 N 
ATOM     11  H   UNL     1      -0.934  -2.028  -2.144  0.00  0.00    -0.080 HD
ENDROOT
BRANCH   5  12
ATOM     12  O   UNL     1      -6.551  -4.101  -0.263  0.00  0.00    -0.491 OA
ATOM     13  C   UNL     1      -6.761  -5.263  -1.069  0.00  0.00    +0.277 C 
ENDBRANCH   5  12
BRANCH   4  14
ATOM     14  O   UNL     1      -6.003  -1.860   1.248  0.00  0.00    -0.491 OA
ATOM     15  C   UNL     1      -5.644  -0.704   2.007  0.00  0.00    +0.277 C 
ENDBRANCH   4  14
BRANCH   1  16
ATOM     16  C   UNL     1      -1.456  -0.407  -0.191  0.00  0.00    +0.064 C 
BRANCH  16  17
ATOM     17  N   UNL     1      -2.652  -0.024  -0.945  0.00  0.00    -0.310 N 
ATOM     18  C   UNL     1      -2.671   1.133  -1.636  0.00  0.00    +0.244 C 
ATOM     19  O   UNL     1      -1.696   1.859  -1.633  0.00  0.00    -0.270 OA
ATOM     20  H   UNL     1      -3.430  -0.604  -0.947  0.00  0.00    +0.149 HD
BRANCH  18  21
ATOM     21  C   UNL     1      -3.877   1.518  -2.396  0.00  0.00    +0.037 A 
ATOM     22  C   UNL     1      -5.000   0.688  -2.396  0.00  0.00    +0.016 A 
ATOM     23  C   UNL     1      -6.123   1.051  -3.106  0.00  0.00    +0.046 A 
ATOM     24  C   UNL     1      -6.139   2.242  -3.822  0.00  0.00    +0.120 A 
ATOM     25  C   UNL     1      -5.023   3.071  -3.825  0.00  0.00    +0.046 A 
ATOM     26  C   UNL     1      -3.899   2.717  -3.113  0.00  0.00    +0.016 A 
BRANCH  24  27
ATOM     27  O   UNL     1      -7.247   2.596  -4.521  0.00  0.00    -0.495 OA
ATOM     28  C   UNL     1      -7.195   3.833  -5.236  0.00  0.00    +0.277 C 
ENDBRANCH  24  27
ENDBRANCH  18  21
ENDBRANCH  16  17
BRANCH  16  30
ATOM     29  C   UNL     1      -1.226   1.628   1.240  0.00  0.00    +0.005 C 
ATOM     30  C   UNL     1      -1.558   0.135   1.237  0.00  0.00    +0.017 C 
ENDBRANCH  16  30
ENDBRANCH   1  16
BRANCH  10  31
ATOM     31  C   UNL     1       0.839  -1.911  -1.138  0.00  0.00    -0.042 C 
BRANCH  31  32
ATOM     32  C   UNL     1       1.629  -2.263  -2.372  0.00  0.00    -0.061 A 
ATOM     33  C   UNL     1       2.459  -3.369  -2.370  0.00  0.00    +0.002 A 
ATOM     34  C   UNL     1       3.183  -3.692  -3.502  0.00  0.00    +0.000 A 
ATOM     35  C   UNL     1       3.078  -2.909  -4.637  0.00  0.00    +0.000 A 
ATOM     36  C   UNL     1       2.248  -1.804  -4.639  0.00  0.00    +0.003 A 
ATOM     37  C   UNL     1       1.520  -1.484  -3.508  0.00  0.00    -0.049 A 
ATOM     38  C   UNL     1       0.610  -0.282  -3.513  0.00  0.00    +0.044 C 
ENDBRANCH  31  32
ENDBRANCH  10  31
TORSDOF 9
