REMARK  Name = ZINC10011336
REMARK  12 active torsions:
REMARK  status: ('A' for Active; 'I' for Inactive)
REMARK    1  A    between atoms: C_1  and  C_2
REMARK    2  A    between atoms: C_2  and  C_3
REMARK    3  A    between atoms: C_2  and  C_4
REMARK    4  A    between atoms: C_4  and  O_5
REMARK    5  A    between atoms: O_5  and  C_6
REMARK    6  A    between atoms: C_9  and  C_13
REMARK    7  A    between atoms: N_15  and  C_16
REMARK    8  A    between atoms: C_16  and  N_18
REMARK    9  A    between atoms: N_18  and  C_19
REMARK   10  A    between atoms: C_24  and  O_25
REMARK   11  A    between atoms: O_25  and  C_26
REMARK   12  A    between atoms: C_26  and  C_27
REMARK                            x       y       z     vdW  Elec       q    Type
REMARK                         _______ _______ _______ _____ _____    ______ ____
ROOT
ATOM      1  C   UNL     1       2.350   5.579  -0.237  0.00  0.00    +0.141 C 
ATOM      2  S   UNL     1       0.880   6.396  -0.552  0.00  0.00    -0.018 S 
ENDROOT
BRANCH   1   5
ATOM      3  C   UNL     1       1.259   3.528  -0.466  0.00  0.00    +0.250 C 
ATOM      4  O   UNL     1       0.214   4.109  -0.690  0.00  0.00    -0.270 OA
ATOM      5  N   UNL     1       2.383   4.231  -0.228  0.00  0.00    -0.264 N 
ATOM      6  H   UNL     1       3.216   3.768  -0.049  0.00  0.00    +0.157 HD
BRANCH   3  10
ATOM      7  C   UNL     1       1.362  -0.717  -0.439  0.00  0.00    +0.134 A 
ATOM      8  C   UNL     1       0.167  -0.055  -0.694  0.00  0.00    +0.047 A 
ATOM      9  C   UNL     1       0.130   1.322  -0.703  0.00  0.00    +0.017 A 
ATOM     10  C   UNL     1       1.295   2.053  -0.456  0.00  0.00    +0.038 A 
ATOM     11  C   UNL     1       2.495   1.383  -0.201  0.00  0.00    +0.032 A 
ATOM     12  C   UNL     1       2.524   0.006  -0.192  0.00  0.00    +0.060 A 
ATOM     13 BR   UNL     1       4.146  -0.902   0.153  0.00  0.00    -0.046 Br
BRANCH   7  14
ATOM     14  O   UNL     1       1.395  -2.074  -0.430  0.00  0.00    -0.491 OA
BRANCH  14  15
ATOM     15  C   UNL     1       0.166  -2.755  -0.691  0.00  0.00    +0.232 C 
BRANCH  15  17
ATOM     16  C   UNL     1       0.793  -4.673   0.781  0.00  0.00    +0.010 C 
ATOM     17  C   UNL     1       0.399  -4.266  -0.640  0.00  0.00    +0.020 C 
ATOM     18  C   UNL     1      -0.886  -4.994  -1.041  0.00  0.00    +0.010 C 
ENDBRANCH  15  17
ENDBRANCH  14  15
ENDBRANCH   7  14
ENDBRANCH   3  10
ENDBRANCH   1   5
BRANCH   1  19
ATOM     19  N   UNL     1       3.475   6.282   0.002  0.00  0.00    -0.294 N 
ATOM     20  H   UNL     1       4.294   5.821   0.242  0.00  0.00    +0.154 HD
BRANCH  19  21
ATOM     21  C   UNL     1       3.461   7.679  -0.097  0.00  0.00    +0.075 A 
ATOM     22  C   UNL     1       2.448   8.409   0.507  0.00  0.00    +0.027 A 
ATOM     23  C   UNL     1       2.436   9.788   0.408  0.00  0.00    +0.002 A 
ATOM     24  C   UNL     1       3.434  10.443  -0.291  0.00  0.00    +0.004 A 
ATOM     25  C   UNL     1       4.447   9.722  -0.895  0.00  0.00    +0.047 A 
ATOM     26  C   UNL     1       4.468   8.340  -0.797  0.00  0.00    +0.142 A 
BRANCH  26  27
ATOM     27  O   UNL     1       5.468   7.630  -1.386  0.00  0.00    -0.488 OA
BRANCH  27  28
ATOM     28  C   UNL     1       6.466   8.374  -2.086  0.00  0.00    +0.260 C 
BRANCH  28  29
ATOM     29  C   UNL     1       7.498   7.412  -2.677  0.00  0.00    +0.156 C 
ATOM     30  C   UNL     1       8.514   8.194  -3.533  0.00  0.00    +0.037 C 
ATOM     31  C   UNL     1       9.882   7.882  -2.878  0.00  0.00    +0.031 C 
ATOM     32  C   UNL     1       9.579   6.575  -2.102  0.00  0.00    +0.160 C 
ATOM     33  O   UNL     1       8.230   6.770  -1.619  0.00  0.00    -0.373 OA
ENDBRANCH  28  29
ENDBRANCH  27  28
ENDBRANCH  26  27
ENDBRANCH  19  21
ENDBRANCH   1  19
TORSDOF 10
