REMARK  Name = ZINC13309697
REMARK  8 active torsions:
REMARK  status: ('A' for Active; 'I' for Inactive)
REMARK    1  A    between atoms: C_1  and  O_2
REMARK    2  A    between atoms: O_2  and  C_3
REMARK    3  A    between atoms: C_8  and  N_9
REMARK    4  A    between atoms: C_10  and  C_12
REMARK    5  A    between atoms: C_21  and  O_22
REMARK    6  A    between atoms: O_22  and  S_23
REMARK    7  A    between atoms: S_23  and  C_26
REMARK    8  A    between atoms: C_30  and  C_32
REMARK                            x       y       z     vdW  Elec       q    Type
REMARK                         _______ _______ _______ _____ _____    ______ ____
ROOT
ATOM      1  C   UNL     1      -4.857  -0.006  -0.141  0.00  0.00    +0.082 A 
ATOM      2  C   UNL     1      -4.871   1.379  -0.127  0.00  0.00    +0.025 A 
ATOM      3  C   UNL     1      -6.094   2.059  -0.217  0.00  0.00    -0.017 A 
ATOM      4  C   UNL     1      -6.145   3.465  -0.210  0.00  0.00    +0.008 A 
ATOM      5  C   UNL     1      -7.347   4.096  -0.293  0.00  0.00    +0.001 A 
ATOM      6  C   UNL     1      -8.534   3.370  -0.384  0.00  0.00    +0.001 A 
ATOM      7  C   UNL     1      -8.524   2.009  -0.393  0.00  0.00    +0.008 A 
ATOM      8  C   UNL     1      -7.302   1.320  -0.310  0.00  0.00    -0.014 A 
ATOM      9  C   UNL     1      -7.261  -0.084  -0.316  0.00  0.00    +0.058 A 
ATOM     10  C   UNL     1      -6.064  -0.732  -0.234  0.00  0.00    +0.169 A 
ENDROOT
BRANCH   1  12
ATOM     11  N   UNL     1      -2.418  -0.039   0.037  0.00  0.00    -0.278 N 
ATOM     12  C   UNL     1      -3.573  -0.728  -0.052  0.00  0.00    +0.252 C 
ATOM     13  O   UNL     1      -3.557  -1.944  -0.059  0.00  0.00    -0.270 OA
ATOM     14  H   UNL     1      -2.435   0.927   0.123  0.00  0.00    +0.155 HD
BRANCH  11  20
ATOM     15  C   UNL     1      -0.063  -0.148   0.586  0.00  0.00    +0.141 A 
ATOM     16  C   UNL     1       1.144  -0.827   0.555  0.00  0.00    +0.047 A 
ATOM     17  C   UNL     1       1.227  -2.064  -0.055  0.00  0.00    +0.004 A 
ATOM     18  C   UNL     1       0.106  -2.629  -0.637  0.00  0.00    +0.002 A 
ATOM     19  C   UNL     1      -1.102  -1.958  -0.611  0.00  0.00    +0.027 A 
ATOM     20  C   UNL     1      -1.193  -0.718   0.004  0.00  0.00    +0.076 A 
BRANCH  15  22
ATOM     21  C   UNL     1       1.052   1.589   1.767  0.00  0.00    +0.277 C 
ATOM     22  O   UNL     1      -0.146   1.069   1.187  0.00  0.00    -0.493 OA
ENDBRANCH  15  22
ENDBRANCH  11  20
ENDBRANCH   1  12
BRANCH  10  23
ATOM     23  O   UNL     1      -6.032  -2.089  -0.240  0.00  0.00    -0.342 OA
BRANCH  23  24
ATOM     24  S   UNL     1      -6.119  -2.717   1.143  0.00  0.00    +0.151 S 
ATOM     25  O   UNL     1      -5.865  -4.105   0.976  0.00  0.00    -0.131 OA
ATOM     26  O   UNL     1      -5.344  -1.900   2.010  0.00  0.00    -0.131 OA
BRANCH  24  27
ATOM     27  C   UNL     1      -7.792  -2.572   1.677  0.00  0.00    +0.129 A 
ATOM     28  C   UNL     1      -8.699  -3.577   1.388  0.00  0.00    +0.030 A 
ATOM     29  C   UNL     1     -10.014  -3.471   1.804  0.00  0.00    +0.003 A 
ATOM     30  C   UNL     1     -10.431  -2.361   2.509  0.00  0.00    +0.015 A 
ATOM     31  C   UNL     1      -9.522  -1.344   2.804  0.00  0.00    +0.065 A 
ATOM     32  C   UNL     1      -8.194  -1.459   2.386  0.00  0.00    +0.045 A 
BRANCH  31  33
ATOM     33  C   UNL     1      -9.961  -0.152   3.559  0.00  0.00    +0.387 C 
ATOM     34  O   UNL     1      -9.167   0.732   3.814  0.00  0.00    -0.241 OA
ATOM     35  O   UNL     1     -11.241  -0.046   3.966  0.00  0.00    -0.241 OA
ENDBRANCH  31  33
ENDBRANCH  24  27
ENDBRANCH  23  24
ENDBRANCH  10  23
TORSDOF 7
