REMARK  Name = ZINC16568918
REMARK  9 active torsions:
REMARK  status: ('A' for Active; 'I' for Inactive)
REMARK    1  A    between atoms: C_1  and  C_2
REMARK    2  A    between atoms: C_5  and  N_8
REMARK    3  A    between atoms: C_9  and  C_22
REMARK    4  A    between atoms: C_12  and  S_13
REMARK    5  A    between atoms: S_13  and  C_14
REMARK    6  A    between atoms: C_14  and  C_15
REMARK    7  A    between atoms: C_22  and  C_24
REMARK    8  A    between atoms: C_22  and  N_25
REMARK    9  A    between atoms: N_28  and  C_29
REMARK                            x       y       z     vdW  Elec       q    Type
REMARK                         _______ _______ _______ _____ _____    ______ ____
ROOT
ATOM      1  N   UNL     1       1.250  -5.498  -2.417  0.00  0.00    -0.273 N 
ATOM      2  C   UNL     1       1.278  -6.680  -1.725  0.00  0.00    +0.159 A 
ATOM      3  N   UNL     1       1.293  -6.385  -0.456  0.00  0.00    -0.131 NA
ATOM      4  N   UNL     1       1.282  -5.110  -0.297  0.00  0.00    -0.122 NA
ATOM      5  C   UNL     1       1.259  -4.514  -1.467  0.00  0.00    +0.196 A 
ENDROOT
BRANCH   1  10
ATOM      6  C   UNL     1       1.131  -4.822  -8.052  0.00  0.00    +0.044 C 
ATOM      7  C   UNL     1       1.163  -5.002  -6.556  0.00  0.00    -0.050 A 
ATOM      8  C   UNL     1       2.260  -4.572  -5.832  0.00  0.00    +0.005 A 
ATOM      9  C   UNL     1       2.292  -4.734  -4.461  0.00  0.00    +0.026 A 
ATOM     10  C   UNL     1       1.221  -5.331  -3.809  0.00  0.00    +0.050 A 
ATOM     11  C   UNL     1       0.124  -5.768  -4.539  0.00  0.00    +0.026 A 
ATOM     12  C   UNL     1       0.095  -5.597  -5.909  0.00  0.00    +0.005 A 
ENDBRANCH   1  10
BRANCH   2  13
ATOM     13  C   UNL     1       1.283  -8.064  -2.321  0.00  0.00    +0.140 C 
ATOM     14  C   UNL     1      -0.102  -8.694  -2.160  0.00  0.00    +0.036 C 
BRANCH  13  15
ATOM     15  N   UNL     1       2.279  -8.889  -1.632  0.00  0.00    -0.290 N 
ATOM     16  C   UNL     1       2.829  -9.947  -2.260  0.00  0.00    +0.304 C 
ATOM     17  O   UNL     1       2.499 -10.216  -3.399  0.00  0.00    -0.252 OA
ATOM     18  N   UNL     1       3.744 -10.705  -1.625  0.00  0.00    -0.269 N 
ATOM     19  H   UNL     1       2.541  -8.673  -0.723  0.00  0.00    +0.151 HD
ATOM     20  H   UNL     1       4.057 -10.452  -0.743  0.00  0.00    +0.156 HD
BRANCH  18  21
ATOM     21  C   UNL     1       4.244 -11.859  -2.240  0.00  0.00    +0.036 A 
ATOM     22  C   UNL     1       4.560 -12.974  -1.475  0.00  0.00    +0.023 A 
ATOM     23  C   UNL     1       5.049 -14.113  -2.084  0.00  0.00    +0.003 A 
ATOM     24  C   UNL     1       5.234 -14.140  -3.454  0.00  0.00    +0.020 A 
ATOM     25  C   UNL     1       4.926 -13.030  -4.220  0.00  0.00    +0.043 A 
ATOM     26  C   UNL     1       4.431 -11.889  -3.615  0.00  0.00    +0.043 A 
ATOM     27 CL   UNL     1       5.161 -13.068  -5.939  0.00  0.00    -0.083 Cl
ENDBRANCH  18  21
ENDBRANCH  13  15
ENDBRANCH   2  13
BRANCH   5  28
ATOM     28  S   UNL     1       1.237  -2.776  -1.757  0.00  0.00    -0.081 S 
BRANCH  28  29
ATOM     29  C   UNL     1       1.256  -2.172  -0.051  0.00  0.00    +0.112 C 
BRANCH  29  30
ATOM     30  C   UNL     1       1.241  -0.665  -0.051  0.00  0.00    -0.037 A 
ATOM     31  C   UNL     1       0.036   0.013  -0.034  0.00  0.00    +0.007 A 
ATOM     32  C   UNL     1       0.021   1.395  -0.033  0.00  0.00    +0.038 A 
ATOM     33  C   UNL     1       1.212   2.100  -0.050  0.00  0.00    +0.123 A 
ATOM     34  C   UNL     1       2.418   1.420  -0.068  0.00  0.00    +0.038 A 
ATOM     35  C   UNL     1       2.431   0.038  -0.068  0.00  0.00    +0.007 A 
ATOM     36  F   UNL     1       1.198   3.451  -0.050  0.00  0.00    -0.205 F 
ENDBRANCH  29  30
ENDBRANCH  28  29
ENDBRANCH   5  28
TORSDOF 7
