REMARK  Name = ZINC10585519
REMARK  3 active torsions:
REMARK  status: ('A' for Active; 'I' for Inactive)
REMARK    1  A    between atoms: C_6  and  N_7
REMARK    2  A    between atoms: C_9  and  N_14
REMARK    3  A    between atoms: N_17  and  C_18
REMARK                            x       y       z     vdW  Elec       q    Type
REMARK                         _______ _______ _______ _____ _____    ______ ____
ROOT
ATOM      1  N   UNL     1      -2.464   1.114   0.042  0.00  0.00    -0.269 N 
ATOM      2  C   UNL     1      -3.797   1.720   0.142  0.00  0.00    +0.136 C 
ATOM      3  C   UNL     1      -4.782   0.626  -0.332  0.00  0.00    +0.101 C 
ATOM      4  C   UNL     1      -3.990  -0.664  -0.021  0.00  0.00    +0.120 C 
ATOM      5  C   UNL     1      -2.542  -0.225  -0.042  0.00  0.00    +0.222 C 
ATOM      6  O   UNL     1      -1.591  -0.973  -0.122  0.00  0.00    -0.275 OA
ENDROOT
BRANCH   1  12
ATOM      7  C   UNL     1      -1.291   3.225   0.017  0.00  0.00    +0.027 A 
ATOM      8  C   UNL     1      -0.108   3.939   0.007  0.00  0.00    +0.051 A 
ATOM      9  C   UNL     1       1.108   3.273   0.026  0.00  0.00    +0.162 A 
ATOM     10  C   UNL     1       1.137   1.883   0.057  0.00  0.00    +0.164 A 
ATOM     11  C   UNL     1      -0.049   1.167   0.065  0.00  0.00    +0.073 A 
ATOM     12  C   UNL     1      -1.265   1.838   0.039  0.00  0.00    +0.040 A 
ATOM     13  O   UNL     1       2.321   1.212   0.085  0.00  0.00    -0.485 OA
ATOM     14  C   UNL     1       3.488   1.948  -0.300  0.00  0.00    +0.270 C 
ATOM     15  C   UNL     1       3.455   3.308   0.411  0.00  0.00    +0.270 C 
ATOM     16  O   UNL     1       2.264   3.994   0.011  0.00  0.00    -0.485 OA
ENDBRANCH   1  12
BRANCH   3  17
ATOM     17  N   UNL     1      -5.053   0.743  -1.767  0.00  0.00    -0.294 N 
ATOM     18  C   UNL     1      -6.143   0.154  -2.297  0.00  0.00    +0.304 C 
ATOM     19  O   UNL     1      -6.902  -0.474  -1.585  0.00  0.00    -0.252 OA
ATOM     20  N   UNL     1      -6.392   0.262  -3.618  0.00  0.00    -0.268 N 
ATOM     21  H   UNL     1      -4.447   1.244  -2.336  0.00  0.00    +0.151 HD
ATOM     22  H   UNL     1      -5.745   0.690  -4.200  0.00  0.00    +0.156 HD
BRANCH  20  23
ATOM     23  C   UNL     1      -7.585  -0.245  -4.149  0.00  0.00    +0.053 A 
ATOM     24  C   UNL     1      -8.752  -0.207  -3.398  0.00  0.00    +0.026 A 
ATOM     25  C   UNL     1      -9.928  -0.702  -3.926  0.00  0.00    +0.022 A 
ATOM     26  C   UNL     1      -9.943  -1.246  -5.198  0.00  0.00    +0.042 A 
ATOM     27  C   UNL     1      -8.780  -1.291  -5.947  0.00  0.00    +0.041 A 
ATOM     28  C   UNL     1      -7.601  -0.792  -5.426  0.00  0.00    +0.064 A 
ATOM     29 CL   UNL     1      -6.143  -0.849  -6.365  0.00  0.00    -0.082 Cl
ATOM     30 CL   UNL     1     -11.422  -1.874  -5.855  0.00  0.00    -0.083 Cl
ENDBRANCH  20  23
ENDBRANCH   3  17
TORSDOF 3
