REMARK  Name = ZINC40367700
REMARK  14 active torsions:
REMARK  status: ('A' for Active; 'I' for Inactive)
REMARK    1  A    between atoms: C_1  and  C_2
REMARK    2  A    between atoms: C_2  and  N_3
REMARK    3  A    between atoms: C_4  and  C_36
REMARK    4  A    between atoms: C_5  and  C_31
REMARK    5  A    between atoms: C_6  and  C_11
REMARK    6  A    between atoms: C_15  and  N_17
REMARK    7  A    between atoms: N_20  and  C_21
REMARK    8  A    between atoms: C_23  and  O_29
REMARK    9  A    between atoms: C_25  and  O_27
REMARK   10  A    between atoms: O_27  and  C_28
REMARK   11  A    between atoms: O_29  and  C_30
REMARK   12  A    between atoms: C_31  and  O_33
REMARK   13  A    between atoms: O_33  and  C_34
REMARK   14  A    between atoms: C_34  and  C_35
REMARK                            x       y       z     vdW  Elec       q    Type
REMARK                         _______ _______ _______ _____ _____    ______ ____
ROOT
ATOM      1  C   UNL     1       3.361  -0.727  -4.462  0.00  0.00    -0.021 A 
ATOM      2  C   UNL     1       3.842   0.563  -4.332  0.00  0.00    +0.006 A 
ATOM      3  C   UNL     1       4.674   1.095  -5.300  0.00  0.00    +0.002 A 
ATOM      4  C   UNL     1       5.027   0.339  -6.401  0.00  0.00    +0.023 A 
ATOM      5  C   UNL     1       4.545  -0.957  -6.534  0.00  0.00    +0.035 A 
ATOM      6  C   UNL     1       3.714  -1.490  -5.557  0.00  0.00    +0.029 A 
ENDROOT
BRANCH   1  10
ATOM      7  N   UNL     1       1.091   0.131  -1.472  0.00  0.00    -0.286 N 
ATOM      8  C   UNL     1       0.456  -0.087  -2.660  0.00  0.00    +0.021 C 
ATOM      9  C   UNL     1       1.054  -0.778  -3.654  0.00  0.00    +0.078 C 
ATOM     10  C   UNL     1       2.454  -1.302  -3.405  0.00  0.00    +0.141 C 
ATOM     11  N   UNL     1       3.050  -1.012  -2.090  0.00  0.00    -0.315 N 
ATOM     12  C   UNL     1       2.328  -0.303  -1.200  0.00  0.00    +0.138 C 
ATOM     13  S   UNL     1       3.010   0.046   0.331  0.00  0.00    -0.018 S 
ATOM     14  C   UNL     1      -0.937   0.452  -2.866  0.00  0.00    +0.061 C 
ATOM     15  H   UNL     1       3.943  -1.321  -1.870  0.00  0.00    +0.149 HD
BRANCH   7  17
ATOM     16  C   UNL     1      -0.513  -0.058   0.365  0.00  0.00    +0.025 C 
ATOM     17  C   UNL     1       0.381   0.889  -0.438  0.00  0.00    +0.109 C 
ENDBRANCH   7  17
BRANCH   9  18
ATOM     18  C   UNL     1       0.397  -1.005  -4.885  0.00  0.00    +0.339 C 
ATOM     19  O   UNL     1      -0.728  -0.576  -5.063  0.00  0.00    -0.245 OA
BRANCH  18  20
ATOM     20  O   UNL     1       1.017  -1.699  -5.863  0.00  0.00    -0.462 OA
BRANCH  20  21
ATOM     21  C   UNL     1       0.293  -1.891  -7.080  0.00  0.00    +0.229 C 
ATOM     22  C   UNL     1       1.151  -2.693  -8.062  0.00  0.00    +0.048 C 
ENDBRANCH  20  21
ENDBRANCH  18  20
ENDBRANCH   9  18
ENDBRANCH   1  10
BRANCH   5  23
ATOM     23  N   UNL     1       4.900  -1.725  -7.649  0.00  0.00    -0.269 N 
ATOM     24  C   UNL     1       5.080  -1.133  -8.846  0.00  0.00    +0.308 C 
ATOM     25  O   UNL     1       4.846   0.053  -8.979  0.00  0.00    -0.252 OA
ATOM     26  N   UNL     1       5.520  -1.855  -9.895  0.00  0.00    -0.269 N 
ATOM     27  H   UNL     1       5.016  -2.684  -7.560  0.00  0.00    +0.156 HD
ATOM     28  H   UNL     1       5.647  -2.812  -9.806  0.00  0.00    +0.156 HD
BRANCH  26  29
ATOM     29  C   UNL     1       5.794  -1.224 -11.114  0.00  0.00    +0.042 A 
ATOM     30  C   UNL     1       6.851  -1.660 -11.900  0.00  0.00    +0.069 A 
ATOM     31  C   UNL     1       7.121  -1.034 -13.107  0.00  0.00    +0.125 A 
ATOM     32  C   UNL     1       6.336   0.028 -13.529  0.00  0.00    +0.091 A 
ATOM     33  C   UNL     1       5.280   0.465 -12.744  0.00  0.00    +0.125 A 
ATOM     34  C   UNL     1       5.005  -0.164 -11.539  0.00  0.00    +0.069 A 
BRANCH  33  35
ATOM     35  O   UNL     1       4.511   1.506 -13.158  0.00  0.00    -0.495 OA
ATOM     36  C   UNL     1       4.847   2.103 -14.412  0.00  0.00    +0.277 C 
ENDBRANCH  33  35
BRANCH  31  37
ATOM     37  O   UNL     1       8.156  -1.462 -13.877  0.00  0.00    -0.495 OA
ATOM     38  C   UNL     1       8.377  -0.771 -15.109  0.00  0.00    +0.277 C 
ENDBRANCH  31  37
ENDBRANCH  26  29
ENDBRANCH   5  23
TORSDOF 9
