REMARK  Name = ZINC66164443
REMARK  9 active torsions:
REMARK  status: ('A' for Active; 'I' for Inactive)
REMARK    1  A    between atoms: C_1  and  C_2
REMARK    2  A    between atoms: C_4  and  O_27
REMARK    3  A    between atoms: C_7  and  N_8
REMARK    4  A    between atoms: N_11  and  C_12
REMARK    5  A    between atoms: C_12  and  C_14
REMARK    6  A    between atoms: C_12  and  C_15
REMARK    7  A    between atoms: C_18  and  N_21
REMARK    8  A    between atoms: C_22  and  C_24
REMARK    9  A    between atoms: O_27  and  C_28
REMARK                            x       y       z     vdW  Elec       q    Type
REMARK                         _______ _______ _______ _____ _____    ______ ____
ROOT
ATOM      1  N   UNL     1       0.087   0.011   2.435  0.00  0.00    -0.269 N 
ATOM      2  C   UNL     1      -0.004  -0.670   3.595  0.00  0.00    +0.304 C 
ATOM      3  O   UNL     1       0.013  -1.886   3.588  0.00  0.00    -0.252 OA
ATOM      4  N   UNL     1      -0.113  -0.004   4.761  0.00  0.00    -0.293 N 
ATOM      5  H   UNL     1       0.140   0.979   2.445  0.00  0.00    +0.156 HD
ATOM      6  H   UNL     1      -0.127   0.966   4.766  0.00  0.00    +0.151 HD
ENDROOT
BRANCH   1  13
ATOM      7  C   UNL     1      -1.189   1.210   0.194  0.00  0.00    +0.046 C 
ATOM      8  C   UNL     1      -0.506  -0.130   0.097  0.00  0.00    -0.026 A 
ATOM      9  C   UNL     1      -0.484  -0.809  -1.105  0.00  0.00    +0.050 A 
ATOM     10  C   UNL     1       0.144  -2.043  -1.194  0.00  0.00    +0.120 A 
ATOM     11  C   UNL     1       0.749  -2.596  -0.075  0.00  0.00    +0.047 A 
ATOM     12  C   UNL     1       0.727  -1.918   1.128  0.00  0.00    +0.027 A 
ATOM     13  C   UNL     1       0.104  -0.680   1.216  0.00  0.00    +0.038 A 
BRANCH  10  14
ATOM     14  O   UNL     1       0.166  -2.710  -2.378  0.00  0.00    -0.495 OA
ATOM     15  C   UNL     1       0.830  -3.976  -2.398  0.00  0.00    +0.277 C 
ENDBRANCH  10  14
ENDBRANCH   1  13
BRANCH   4  16
ATOM     16  C   UNL     1      -0.211  -0.745   6.021  0.00  0.00    +0.102 C 
ATOM     17  C   UNL     1       1.193  -1.092   6.520  0.00  0.00    +0.033 C 
BRANCH  16  18
ATOM     18  C   UNL     1      -0.914   0.104   7.049  0.00  0.00    -0.027 A 
ATOM     19  C   UNL     1      -0.648   1.459   7.123  0.00  0.00    +0.007 A 
ATOM     20  C   UNL     1      -1.291   2.240   8.064  0.00  0.00    +0.023 A 
ATOM     21  C   UNL     1      -2.205   1.663   8.936  0.00  0.00    +0.033 A 
ATOM     22  C   UNL     1      -2.470   0.302   8.858  0.00  0.00    +0.023 A 
ATOM     23  C   UNL     1      -1.828  -0.472   7.912  0.00  0.00    +0.007 A 
BRANCH  21  24
ATOM     24  N   UNL     1      -2.857   2.451   9.890  0.00  0.00    -0.285 N 
ATOM     25  C   UNL     1      -3.196   3.722   9.597  0.00  0.00    +0.220 C 
ATOM     26  O   UNL     1      -2.864   4.209   8.537  0.00  0.00    -0.275 OA
ATOM     27  H   UNL     1      -3.064   2.083  10.764  0.00  0.00    +0.155 HD
BRANCH  25  28
ATOM     28  C   UNL     1      -3.989   4.538  10.586  0.00  0.00    +0.075 C 
ATOM     29  C   UNL     1      -5.429   4.896  10.213  0.00  0.00    +0.013 C 
ATOM     30  C   UNL     1      -4.343   5.974  10.194  0.00  0.00    +0.013 C 
ENDBRANCH  25  28
ENDBRANCH  21  24
ENDBRANCH  16  18
ENDBRANCH   4  16
TORSDOF 6
