REMARK  Name = ZINC12329554
REMARK  10 active torsions:
REMARK  status: ('A' for Active; 'I' for Inactive)
REMARK    1  A    between atoms: C_1  and  C_2
REMARK    2  A    between atoms: C_2  and  O_3
REMARK    3  A    between atoms: O_3  and  C_4
REMARK    4  A    between atoms: C_7  and  C_10
REMARK    5  A    between atoms: C_10  and  C_12
REMARK    6  A    between atoms: C_10  and  O_31
REMARK    7  A    between atoms: C_12  and  N_61
REMARK    8  A    between atoms: C_19  and  O_30
REMARK    9  A    between atoms: C_24  and  O_28
REMARK   10  A    between atoms: O_28  and  C_29
REMARK                            x       y       z     vdW  Elec       q    Type
REMARK                         _______ _______ _______ _____ _____    ______ ____
ROOT
ATOM      1  C   UNL     1       3.955   5.940   0.707  0.00  0.00    -0.075 C 
ATOM      2  C   UNL     1       2.520   5.410   0.676  0.00  0.00    +0.029 C 
ATOM      3  C   UNL     1       2.543   3.882   0.757  0.00  0.00    +0.110 C 
ATOM      4  C   UNL     1       3.379   3.324  -0.396  0.00  0.00    +0.029 C 
ATOM      5  C   UNL     1       4.788   3.917  -0.334  0.00  0.00    -0.075 C 
ATOM      6  C   UNL     1       1.111   3.344   0.661  0.00  0.00    +0.084 C 
ATOM      7  C   UNL     1       1.171   1.815   0.639  0.00  0.00    +0.152 C 
ATOM      8  C   UNL     1       2.069   1.326   1.747  0.00  0.00    +0.023 A 
ATOM      9  C   UNL     1       1.968   0.004   2.151  0.00  0.00    +0.013 A 
ATOM     10  C   UNL     1       2.776  -0.481   3.159  0.00  0.00    +0.046 A 
ATOM     11  C   UNL     1       3.696   0.357   3.773  0.00  0.00    +0.124 A 
ATOM     12  C   UNL     1       3.799   1.678   3.373  0.00  0.00    +0.091 A 
ATOM     13  C   UNL     1       2.982   2.167   2.359  0.00  0.00    +0.130 A 
ATOM     14  O   UNL     1       3.102   3.473   2.004  0.00  0.00    -0.485 OA
ATOM     15  N   UNL     1       4.696   5.388  -0.447  0.00  0.00    +0.382 N 
ATOM     16  H   UNL     1       4.192   5.624  -1.310  0.00  0.00    -0.082 HD
ENDROOT
BRANCH  11  17
ATOM     17  O   UNL     1       4.496  -0.119   4.763  0.00  0.00    -0.495 OA
ATOM     18  C   UNL     1       4.335  -1.492   5.123  0.00  0.00    +0.277 C 
ENDBRANCH  11  17
BRANCH   7  19
ATOM     19  O   UNL     1      -0.143   1.285   0.823  0.00  0.00    -0.387 OA
ATOM     20  H   UNL     1      -0.182   0.319   0.817  0.00  0.00    +0.210 HD
ENDBRANCH   7  19
BRANCH  15  21
ATOM     21  C   UNL     1       6.050   5.976  -0.506  0.00  0.00    -0.042 C 
BRANCH  21  22
ATOM     22  C   UNL     1       5.945   7.388  -1.085  0.00  0.00    +0.128 C 
BRANCH  22  26
ATOM     23  C   UNL     1       9.816   9.198  -1.135  0.00  0.00    +0.121 A 
ATOM     24  C   UNL     1       8.956   9.426  -0.070  0.00  0.00    +0.046 A 
ATOM     25  C   UNL     1       7.705   8.840  -0.057  0.00  0.00    +0.009 A 
ATOM     26  C   UNL     1       7.310   8.026  -1.102  0.00  0.00    -0.021 A 
ATOM     27  C   UNL     1       8.167   7.793  -2.162  0.00  0.00    +0.009 A 
ATOM     28  C   UNL     1       9.417   8.381  -2.183  0.00  0.00    +0.046 A 
BRANCH  23  29
ATOM     29  O   UNL     1      11.047   9.774  -1.151  0.00  0.00    -0.492 OA
BRANCH  29  31
ATOM     30  C   UNL     1      13.214  10.225  -2.121  0.00  0.00    +0.048 C 
ATOM     31  C   UNL     1      11.879   9.495  -2.279  0.00  0.00    +0.225 C 
ENDBRANCH  29  31
ENDBRANCH  23  29
ENDBRANCH  22  26
BRANCH  22  32
ATOM     32  O   UNL     1       5.433   7.320  -2.417  0.00  0.00    -0.389 OA
ATOM     33  H   UNL     1       5.982   6.804  -3.023  0.00  0.00    +0.210 HD
ENDBRANCH  22  32
ENDBRANCH  21  22
ENDBRANCH  15  21
TORSDOF 8
