REMARK  Name = ZINC09241161
REMARK  9 active torsions:
REMARK  status: ('A' for Active; 'I' for Inactive)
REMARK    1  A    between atoms: C_1  and  C_2
REMARK    2  A    between atoms: C_2  and  O_3
REMARK    3  A    between atoms: O_3  and  C_4
REMARK    4  A    between atoms: C_4  and  C_6
REMARK    5  A    between atoms: C_11  and  N_12
REMARK    6  A    between atoms: C_13  and  C_15
REMARK    7  A    between atoms: C_15  and  S_16
REMARK    8  A    between atoms: S_16  and  C_17
REMARK    9  A    between atoms: C_23  and  C_26
REMARK                            x       y       z     vdW  Elec       q    Type
REMARK                         _______ _______ _______ _____ _____    ______ ____
ROOT
ATOM      1  S   UNL     1       2.930  -3.620  -0.083  0.00  0.00    -0.075 S 
ENDROOT
BRANCH   1   2
ATOM      2  C   UNL     1       4.056  -2.265  -0.110  0.00  0.00    +0.213 A 
ATOM      3  N   UNL     1       5.369  -2.344  -0.138  0.00  0.00    -0.120 NA
ATOM      4  N   UNL     1       5.886  -1.165  -0.151  0.00  0.00    -0.127 NA
ATOM      5  C   UNL     1       4.926  -0.260  -0.132  0.00  0.00    +0.179 A 
ATOM      6  N   UNL     1       3.728  -0.946  -0.104  0.00  0.00    -0.187 N 
ATOM      7  N   UNL     1       2.521  -0.245  -0.080  0.00  0.00    -0.163 NA
ATOM      8  C   UNL     1       2.513   1.068  -0.082  0.00  0.00    +0.092 A 
ATOM      9  C   UNL     1       3.721   1.800  -0.115  0.00  0.00    +0.034 A 
ATOM     10  C   UNL     1       4.913   1.149  -0.134  0.00  0.00    +0.052 A 
BRANCH   8  11
ATOM     11  C   UNL     1       1.219   1.793  -0.056  0.00  0.00    +0.002 A 
ATOM     12  C   UNL     1       0.020   1.082  -0.029  0.00  0.00    +0.011 A 
ATOM     13  C   UNL     1      -1.181   1.760  -0.011  0.00  0.00    +0.016 A 
ATOM     14  C   UNL     1      -1.197   3.145  -0.009  0.00  0.00    +0.018 A 
ATOM     15  C   UNL     1      -0.009   3.855  -0.035  0.00  0.00    +0.016 A 
ATOM     16  C   UNL     1       1.197   3.186  -0.059  0.00  0.00    +0.011 A 
ATOM     17 BR   UNL     1      -2.847   4.068   0.023  0.00  0.00    -0.050 Br
ENDBRANCH   8  11
ENDBRANCH   1   2
BRANCH   1  18
ATOM     18  C   UNL     1       4.003  -5.083  -0.104  0.00  0.00    +0.173 C 
BRANCH  18  20
ATOM     19  N   UNL     1       3.741  -7.542  -0.095  0.00  0.00    -0.284 N 
ATOM     20  C   UNL     1       3.155  -6.328  -0.084  0.00  0.00    +0.228 C 
ATOM     21  O   UNL     1       1.946  -6.238  -0.058  0.00  0.00    -0.275 OA
ATOM     22  H   UNL     1       4.704  -7.615  -0.181  0.00  0.00    +0.155 HD
BRANCH  19  28
ATOM     23  C   UNL     1       3.447  -9.805   0.720  0.00  0.00    +0.080 A 
ATOM     24  C   UNL     1       2.656 -10.952   0.826  0.00  0.00    +0.017 A 
ATOM     25  C   UNL     1       1.408 -10.983   0.241  0.00  0.00    +0.001 A 
ATOM     26  C   UNL     1       0.933  -9.881  -0.452  0.00  0.00    +0.002 A 
ATOM     27  C   UNL     1       1.700  -8.739  -0.560  0.00  0.00    +0.024 A 
ATOM     28  C   UNL     1       2.962  -8.691   0.018  0.00  0.00    +0.047 A 
BRANCH  23  29
ATOM     29  C   UNL     1       4.782  -9.765   1.344  0.00  0.00    +0.341 C 
ATOM     30  O   UNL     1       5.426  -8.735   1.335  0.00  0.00    -0.245 OA
BRANCH  29  31
ATOM     31  O   UNL     1       5.288 -10.871   1.924  0.00  0.00    -0.461 OA
BRANCH  31  33
ATOM     32  C   UNL     1       7.011 -12.105   3.123  0.00  0.00    +0.048 C 
ATOM     33  C   UNL     1       6.608 -10.759   2.518  0.00  0.00    +0.229 C 
ENDBRANCH  31  33
ENDBRANCH  29  31
ENDBRANCH  23  29
ENDBRANCH  19  28
ENDBRANCH  18  20
ENDBRANCH   1  18
TORSDOF 8
