REMARK  Name = ZINC02095752
REMARK  7 active torsions:
REMARK  status: ('A' for Active; 'I' for Inactive)
REMARK    1  A    between atoms: C_1  and  C_2
REMARK    2  A    between atoms: C_6  and  N_9
REMARK    3  A    between atoms: C_7  and  C_8
REMARK    4  A    between atoms: C_10  and  C_12
REMARK    5  A    between atoms: C_12  and  C_14
REMARK    6  A    between atoms: C_12  and  N_21
REMARK    7  A    between atoms: C_14  and  C_15
REMARK                            x       y       z     vdW  Elec       q    Type
REMARK                         _______ _______ _______ _____ _____    ______ ____
ROOT
ATOM      1  C   UNL     1      -0.232   1.024  -0.233  0.00  0.00    +0.165 C 
ENDROOT
BRANCH   1   2
ATOM      2  N   UNL     1      -0.615   1.424   1.123  0.00  0.00    -0.288 N 
ATOM      3  C   UNL     1      -1.640   0.807   1.744  0.00  0.00    +0.303 C 
ATOM      4  O   UNL     1      -2.193  -0.136   1.212  0.00  0.00    -0.253 OA
ATOM      5  N   UNL     1      -2.050   1.234   2.954  0.00  0.00    -0.285 N 
ATOM      6  C   UNL     1      -1.467   2.435   3.563  0.00  0.00    +0.114 C 
ATOM      7  C   UNL     1      -1.024   2.140   4.990  0.00  0.00    +0.027 C 
ATOM      8  C   UNL     1      -2.144   1.467   5.784  0.00  0.00    +0.018 C 
ATOM      9  C   UNL     1      -2.520   0.162   5.079  0.00  0.00    +0.054 C 
ATOM     10  C   UNL     1      -3.098   0.511   3.692  0.00  0.00    +0.119 C 
ATOM     11  C   UNL     1      -1.281  -0.677   4.866  0.00  0.00    +0.027 A 
ATOM     12  C   UNL     1      -1.450  -2.021   4.746  0.00  0.00    +0.022 A 
ATOM     13  C   UNL     1      -0.369  -2.846   4.417  0.00  0.00    +0.007 A 
ATOM     14  C   UNL     1       0.853  -2.279   4.205  0.00  0.00    +0.070 A 
ATOM     15  C   UNL     1       0.995  -0.892   4.349  0.00  0.00    +0.251 A 
ATOM     16  O   UNL     1       2.073  -0.368   4.118  0.00  0.00    -0.268 OA
ATOM     17  N   UNL     1      -0.052  -0.125   4.743  0.00  0.00    -0.312 N 
ATOM     18  C   UNL     1       0.226   1.282   5.032  0.00  0.00    +0.130 C 
ATOM     19  H   UNL     1      -0.132   2.134   1.574  0.00  0.00    +0.151 HD
ENDBRANCH   1   2
BRANCH   1  21
ATOM     20  N   UNL     1       1.833   0.909  -1.589  0.00  0.00    -0.284 N 
ATOM     21  C   UNL     1       1.252   1.214  -0.412  0.00  0.00    +0.238 C 
ATOM     22  O   UNL     1       1.924   1.643   0.502  0.00  0.00    -0.273 OA
ATOM     23  H   UNL     1       1.288   0.633  -2.343  0.00  0.00    +0.155 HD
BRANCH  20  29
ATOM     24  C   UNL     1       5.995  -0.780  -3.589  0.00  0.00    +0.044 C 
ATOM     25  C   UNL     1       5.267   0.183  -2.688  0.00  0.00    -0.046 A 
ATOM     26  C   UNL     1       5.973   1.147  -1.993  0.00  0.00    +0.004 A 
ATOM     27  C   UNL     1       5.309   2.033  -1.164  0.00  0.00    +0.002 A 
ATOM     28  C   UNL     1       3.936   1.956  -1.028  0.00  0.00    +0.023 A 
ATOM     29  C   UNL     1       3.224   0.989  -1.725  0.00  0.00    +0.037 A 
ATOM     30  C   UNL     1       3.895   0.097  -2.551  0.00  0.00    -0.026 A 
ATOM     31  C   UNL     1       3.127  -0.958  -3.304  0.00  0.00    +0.046 C 
ENDBRANCH  20  29
ENDBRANCH   1  21
BRANCH   1  32
ATOM     32  C   UNL     1      -0.983   1.884  -1.251  0.00  0.00    +0.067 C 
BRANCH  32  33
ATOM     33  C   UNL     1      -2.459   1.589  -1.165  0.00  0.00    -0.045 A 
ATOM     34  C   UNL     1      -2.989   0.512  -1.850  0.00  0.00    +0.004 A 
ATOM     35  C   UNL     1      -4.342   0.239  -1.768  0.00  0.00    +0.000 A 
ATOM     36  C   UNL     1      -5.166   1.049  -1.010  0.00  0.00    +0.000 A 
ATOM     37  C   UNL     1      -4.636   2.130  -0.329  0.00  0.00    +0.000 A 
ATOM     38  C   UNL     1      -3.283   2.400  -0.407  0.00  0.00    +0.004 A 
ENDBRANCH  32  33
ENDBRANCH   1  32
TORSDOF 5
