REMARK  Name = ZINC16613672
REMARK  7 active torsions:
REMARK  status: ('A' for Active; 'I' for Inactive)
REMARK    1  A    between atoms: C_1  and  C_2
REMARK    2  A    between atoms: C_5  and  C_8
REMARK    3  A    between atoms: N_10  and  C_11
REMARK    4  A    between atoms: C_15  and  C_17
REMARK    5  A    between atoms: C_19  and  C_29
REMARK    6  A    between atoms: C_20  and  C_28
REMARK    7  A    between atoms: N_31  and  C_32
REMARK                            x       y       z     vdW  Elec       q    Type
REMARK                         _______ _______ _______ _____ _____    ______ ____
ROOT
ATOM      1  C   UNL     1      -0.605  -0.967  -0.146  0.00  0.00    +0.143 C 
ATOM      2  C   UNL     1      -1.453  -1.509  -1.272  0.00  0.00    +0.060 C 
ATOM      3  C   UNL     1      -1.656  -2.853  -1.366  0.00  0.00    +0.051 C 
ATOM      4  N   UNL     1      -1.150  -3.686  -0.457  0.00  0.00    -0.230 NA
ATOM      5  C   UNL     1      -0.682  -3.245   0.698  0.00  0.00    +0.157 C 
ATOM      6  N   UNL     1      -0.694  -1.908   0.988  0.00  0.00    -0.299 N 
ATOM      7  C   UNL     1      -0.842  -1.375   2.328  0.00  0.00    +0.109 C 
ATOM      8  C   UNL     1      -0.194  -2.187   3.426  0.00  0.00    +0.030 C 
ATOM      9  C   UNL     1      -0.633  -3.650   3.385  0.00  0.00    +0.079 C 
ATOM     10  S   UNL     1       0.003  -4.389   1.855  0.00  0.00    -0.090 S 
ATOM     11  C   UNL     1      -2.463  -3.405  -2.513  0.00  0.00    +0.066 C 
ENDROOT
BRANCH   1  16
ATOM     12  C   UNL     1       2.653   0.487  -1.394  0.00  0.00    +0.034 A 
ATOM     13  C   UNL     1       3.462  -0.642  -1.428  0.00  0.00    +0.023 A 
ATOM     14  C   UNL     1       2.951  -1.867  -1.048  0.00  0.00    +0.002 A 
ATOM     15  C   UNL     1       1.635  -1.971  -0.633  0.00  0.00    +0.006 A 
ATOM     16  C   UNL     1       0.828  -0.849  -0.598  0.00  0.00    -0.021 A 
ATOM     17  C   UNL     1       1.333   0.380  -0.977  0.00  0.00    +0.029 A 
BRANCH  12  20
ATOM     18  C   UNL     1       4.447   2.046  -1.496  0.00  0.00    +0.248 C 
ATOM     19  O   UNL     1       5.178   1.222  -0.982  0.00  0.00    -0.270 OA
ATOM     20  N   UNL     1       3.168   1.730  -1.778  0.00  0.00    -0.281 N 
ATOM     21  H   UNL     1       2.604   2.364  -2.248  0.00  0.00    +0.155 HD
BRANCH  18  26
ATOM     22  C   UNL     1       6.451   7.298  -2.726  0.00  0.00    +0.044 C 
ATOM     23  C   UNL     1       5.926   5.922  -2.404  0.00  0.00    -0.050 A 
ATOM     24  C   UNL     1       6.761   4.987  -1.819  0.00  0.00    +0.004 A 
ATOM     25  C   UNL     1       6.287   3.726  -1.521  0.00  0.00    +0.013 A 
ATOM     26  C   UNL     1       4.962   3.395  -1.812  0.00  0.00    +0.037 A 
ATOM     27  C   UNL     1       4.127   4.342  -2.408  0.00  0.00    +0.013 A 
ATOM     28  C   UNL     1       4.612   5.601  -2.695  0.00  0.00    +0.004 A 
ENDBRANCH  18  26
ENDBRANCH  12  20
ENDBRANCH   1  16
BRANCH   2  29
ATOM     29  C   UNL     1      -2.027  -0.636  -2.214  0.00  0.00    +0.248 C 
ATOM     30  O   UNL     1      -2.607  -1.085  -3.187  0.00  0.00    -0.270 OA
ATOM     31  N   UNL     1      -1.936   0.697  -2.040  0.00  0.00    -0.282 N 
ATOM     32  H   UNL     1      -1.549   1.055  -1.225  0.00  0.00    +0.155 HD
BRANCH  31  33
ATOM     33  C   UNL     1      -2.399   1.566  -3.033  0.00  0.00    +0.034 A 
ATOM     34  C   UNL     1      -2.230   1.242  -4.373  0.00  0.00    +0.023 A 
ATOM     35  C   UNL     1      -2.693   2.100  -5.352  0.00  0.00    +0.002 A 
ATOM     36  C   UNL     1      -3.314   3.284  -4.999  0.00  0.00    +0.000 A 
ATOM     37  C   UNL     1      -3.478   3.611  -3.666  0.00  0.00    +0.002 A 
ATOM     38  C   UNL     1      -3.023   2.756  -2.682  0.00  0.00    +0.023 A 
ENDBRANCH  31  33
ENDBRANCH   2  29
TORSDOF 5
