REMARK  Name = ZINC39932647
REMARK  7 active torsions:
REMARK  status: ('A' for Active; 'I' for Inactive)
REMARK    1  A    between atoms: C_1  and  C_2
REMARK    2  A    between atoms: C_2  and  O_28
REMARK    3  A    between atoms: C_8  and  C_9
REMARK    4  A    between atoms: C_8  and  C_10
REMARK    5  A    between atoms: C_11  and  O_14
REMARK    6  A    between atoms: O_14  and  C_15
REMARK    7  A    between atoms: N_17  and  C_18
REMARK                            x       y       z     vdW  Elec       q    Type
REMARK                         _______ _______ _______ _____ _____    ______ ____
ROOT
ATOM      1  C   UNL     1       2.267   0.983   3.023  0.00  0.00    +0.405 C 
ATOM      2  O   UNL     1       2.851  -0.040   3.323  0.00  0.00    -0.226 OA
ATOM      3  N   UNL     1       2.871   2.176   3.187  0.00  0.00    -0.251 N 
ATOM      4  H   UNL     1       2.386   2.995   2.999  0.00  0.00    +0.158 HD
ENDROOT
BRANCH   3   5
ATOM      5  C   UNL     1       4.194   2.234   3.629  0.00  0.00    +0.044 A 
ATOM      6  C   UNL     1       4.721   1.209   4.384  0.00  0.00    +0.024 A 
ATOM      7  C   UNL     1       6.039   1.257   4.829  0.00  0.00    +0.002 A 
ATOM      8  C   UNL     1       6.843   2.315   4.532  0.00  0.00    +0.008 A 
ATOM      9  C   UNL     1       6.345   3.381   3.765  0.00  0.00    -0.016 A 
ATOM     10  C   UNL     1       5.006   3.341   3.301  0.00  0.00    +0.003 A 
ATOM     11  C   UNL     1       4.512   4.404   2.530  0.00  0.00    +0.010 A 
ATOM     12  C   UNL     1       5.324   5.456   2.233  0.00  0.00    +0.001 A 
ATOM     13  C   UNL     1       6.642   5.494   2.684  0.00  0.00    +0.001 A 
ATOM     14  C   UNL     1       7.151   4.486   3.444  0.00  0.00    +0.008 A 
ENDBRANCH   3   5
BRANCH   1  15
ATOM     15  O   UNL     1       1.017   0.923   2.526  0.00  0.00    -0.446 OA
BRANCH  15  24
ATOM     16  C   UNL     1       0.324   1.290  -0.086  0.00  0.00    +0.041 C 
ATOM     17  C   UNL     1       0.097  -0.222  -0.124  0.00  0.00    +0.067 C 
ATOM     18  C   UNL     1      -1.392  -0.494  -0.068  0.00  0.00    +0.039 C 
ATOM     19  C   UNL     1      -1.967  -0.269   1.322  0.00  0.00    +0.005 C 
ATOM     20  C   UNL     1      -1.063  -0.263   2.544  0.00  0.00    +0.040 C 
ATOM     21  C   UNL     1      -1.922  -1.469   2.281  0.00  0.00    -0.025 C 
ATOM     22  C   UNL     1      -1.218  -2.737   1.794  0.00  0.00    +0.011 C 
ATOM     23  C   UNL     1      -3.130  -1.692   3.193  0.00  0.00    +0.011 C 
ATOM     24  C   UNL     1       0.439  -0.375   2.379  0.00  0.00    +0.185 C 
ATOM     25  C   UNL     1       0.854  -0.858   1.021  0.00  0.00    +0.079 C 
BRANCH  17  26
ATOM     26  O   UNL     1       0.610  -0.733  -1.356  0.00  0.00    -0.389 OA
ATOM     27  H   UNL     1       1.556  -0.577  -1.483  0.00  0.00    +0.210 HD
ENDBRANCH  17  26
ENDBRANCH  15  24
ENDBRANCH   1  15
TORSDOF 4
