REMARK  Name = ZINC08800966
REMARK  8 active torsions:
REMARK  status: ('A' for Active; 'I' for Inactive)
REMARK    1  A    between atoms: C_1  and  C_2
REMARK    2  A    between atoms: C_2  and  C_3
REMARK    3  A    between atoms: C_4  and  C_9
REMARK    4  A    between atoms: N_11  and  N_12
REMARK    5  A    between atoms: C_13  and  C_14
REMARK    6  A    between atoms: C_17  and  N_20
REMARK    7  A    between atoms: C_21  and  C_31
REMARK    8  A    between atoms: C_23  and  C_25
REMARK                            x       y       z     vdW  Elec       q    Type
REMARK                         _______ _______ _______ _____ _____    ______ ____
ROOT
ATOM      1  C   UNL     1      -5.790  -1.936   0.048  0.00  0.00    -0.005 A 
ATOM      2  C   UNL     1      -5.538  -3.310   0.033  0.00  0.00    +0.011 A 
ATOM      3  C   UNL     1      -6.589  -4.202   0.045  0.00  0.00    +0.028 A 
ATOM      4  C   UNL     1      -7.898  -3.735   0.059  0.00  0.00    +0.066 A 
ATOM      5  C   UNL     1      -8.153  -2.368   0.069  0.00  0.00    +0.028 A 
ATOM      6  C   UNL     1      -7.108  -1.471   0.063  0.00  0.00    +0.011 A 
ENDROOT
BRANCH   4   7
ATOM      7  N   UNL     1      -8.963  -4.644   0.065  0.00  0.00    -0.236 N 
ATOM      8  C   UNL     1      -8.992  -5.844  -0.571  0.00  0.00    +0.053 A 
ATOM      9  C   UNL     1     -10.189  -6.417  -0.322  0.00  0.00    +0.054 A 
ATOM     10  C   UNL     1     -10.926  -5.539   0.498  0.00  0.00    +0.093 A 
ATOM     11  N   UNL     1     -10.183  -4.478   0.733  0.00  0.00    -0.166 NA
BRANCH  10  12
ATOM     12  C   UNL     1     -12.298  -5.773   1.012  0.00  0.00    +0.002 A 
ATOM     13  C   UNL     1     -12.977  -6.946   0.687  0.00  0.00    +0.010 A 
ATOM     14  C   UNL     1     -14.251  -7.160   1.173  0.00  0.00    +0.001 A 
ATOM     15  C   UNL     1     -14.858  -6.209   1.972  0.00  0.00    +0.000 A 
ATOM     16  C   UNL     1     -14.192  -5.041   2.294  0.00  0.00    +0.001 A 
ATOM     17  C   UNL     1     -12.915  -4.818   1.818  0.00  0.00    +0.010 A 
ENDBRANCH  10  12
BRANCH   8  18
ATOM     18  C   UNL     1      -7.884  -6.432  -1.407  0.00  0.00    +0.064 C 
ATOM     19  C   UNL     1      -8.488  -7.212  -2.575  0.00  0.00    +0.041 C 
ATOM     20  C   UNL     1      -9.149  -8.465  -2.067  0.00  0.00    -0.026 C 
ATOM     21  C   UNL     1      -8.632  -9.121  -1.033  0.00  0.00    -0.004 C 
ATOM     22  C   UNL     1      -7.411  -8.617  -0.385  0.00  0.00    -0.004 C 
ATOM     23  C   UNL     1      -7.048  -7.351  -0.555  0.00  0.00    -0.017 C 
ENDBRANCH   8  18
ENDBRANCH   4   7
BRANCH   1  25
ATOM     24  N   UNL     1      -3.446  -1.412   0.028  0.00  0.00    -0.187 NA
ATOM     25  C   UNL     1      -4.669  -0.979   0.042  0.00  0.00    +0.138 C 
BRANCH  24  28
ATOM     26  C   UNL     1      -1.110  -0.953   0.008  0.00  0.00    +0.272 C 
ATOM     27  O   UNL     1      -0.888  -2.151  -0.000  0.00  0.00    -0.268 OA
ATOM     28  N   UNL     1      -2.380  -0.503   0.022  0.00  0.00    -0.202 N 
ATOM     29  H   UNL     1      -2.556   0.451   0.029  0.00  0.00    +0.178 HD
BRANCH  26  31
ATOM     30  C   UNL     1       1.369  -0.241  -0.012  0.00  0.00    +0.062 A 
ATOM     31  C   UNL     1       0.002  -0.004   0.002  0.00  0.00    +0.100 A 
ATOM     32  S   UNL     1      -0.022   1.783   0.012  0.00  0.00    -0.048 S 
ATOM     33  C   UNL     1       1.696   2.034  -0.003  0.00  0.00    +0.156 A 
ATOM     34  N   UNL     1       2.167   0.796  -0.014  0.00  0.00    -0.229 NA
ATOM     35  N   UNL     1       2.394   3.222  -0.004  0.00  0.00    -0.337 N 
ATOM     36  H   UNL     1       1.915   4.066   0.005  0.00  0.00    +0.144 HD
ATOM     37  H   UNL     1       3.364   3.215  -0.014  0.00  0.00    +0.144 HD
BRANCH  30  39
ATOM     38  C   UNL     1       2.088  -2.111  -1.472  0.00  0.00    +0.010 C 
ATOM     39  C   UNL     1       1.917  -1.645  -0.026  0.00  0.00    +0.053 C 
ENDBRANCH  30  39
ENDBRANCH  26  31
ENDBRANCH  24  28
ENDBRANCH   1  25
TORSDOF 7
