REMARK  Name = ZINC39609212
REMARK  8 active torsions:
REMARK  status: ('A' for Active; 'I' for Inactive)
REMARK    1  A    between atoms: C_1  and  C_2
REMARK    2  A    between atoms: C_5  and  C_9
REMARK    3  A    between atoms: C_7  and  C_8
REMARK    4  A    between atoms: C_9  and  C_10
REMARK    5  A    between atoms: C_10  and  N_11
REMARK    6  A    between atoms: C_12  and  C_14
REMARK    7  A    between atoms: C_25  and  C_27
REMARK    8  A    between atoms: C_30  and  C_34
REMARK                            x       y       z     vdW  Elec       q    Type
REMARK                         _______ _______ _______ _____ _____    ______ ____
ROOT
ATOM      1  C   UNL     1       2.707  -8.793  -0.515  0.00  0.00    +0.100 C 
ATOM      2  C   UNL     1       2.153  -9.130   0.887  0.00  0.00    +0.121 C 
ATOM      3  N   UNL     1       3.018 -10.229   1.377  0.00  0.00    -0.296 N 
ATOM      4  C   UNL     1       4.379  -9.858   0.922  0.00  0.00    +0.115 C 
ATOM      5  C   UNL     1       4.168  -9.271  -0.488  0.00  0.00    -0.004 C 
ATOM      6  C   UNL     1       4.392 -10.347  -1.546  0.00  0.00    -0.010 C 
ATOM      7  C   UNL     1       5.864 -10.766  -1.538  0.00  0.00    -0.082 C 
ATOM      8  N   UNL     1       6.709  -9.598  -1.814  0.00  0.00    +0.379 N 
ATOM      9  C   UNL     1       6.558  -8.606  -0.742  0.00  0.00    -0.082 C 
ATOM     10  C   UNL     1       5.114  -8.096  -0.716  0.00  0.00    -0.010 C 
ATOM     11  C   UNL     1       2.650 -11.320   2.078  0.00  0.00    +0.249 C 
ATOM     12  O   UNL     1       3.495 -12.091   2.490  0.00  0.00    -0.270 OA
ATOM     13  H   UNL     1       7.674  -9.887  -1.868  0.00  0.00    -0.086 HD
ATOM     14  H   UNL     1       6.434  -9.185  -2.693  0.00  0.00    -0.086 HD
ENDROOT
BRANCH  11  15
ATOM     15  C   UNL     1       1.221 -11.580   2.344  0.00  0.00    +0.072 A 
ATOM     16  C   UNL     1       0.344 -10.516   2.567  0.00  0.00    +0.016 A 
ATOM     17  C   UNL     1      -0.989 -10.765   2.815  0.00  0.00    +0.013 A 
ATOM     18  C   UNL     1      -1.462 -12.066   2.843  0.00  0.00    +0.058 A 
ATOM     19  C   UNL     1      -0.602 -13.126   2.624  0.00  0.00    +0.051 A 
ATOM     20  C   UNL     1       0.737 -12.892   2.368  0.00  0.00    +0.136 A 
ATOM     21  F   UNL     1       1.576 -13.927   2.148  0.00  0.00    -0.205 F 
BRANCH  18  22
ATOM     22  C   UNL     1      -2.921 -12.328   3.115  0.00  0.00    +0.418 C 
ATOM     23  F   UNL     1      -3.624 -12.346   1.906  0.00  0.00    -0.166 F 
ATOM     24  F   UNL     1      -3.061 -13.565   3.754  0.00  0.00    -0.166 F 
ATOM     25  F   UNL     1      -3.430 -11.318   3.937  0.00  0.00    -0.166 F 
ENDBRANCH  18  22
ENDBRANCH  11  15
BRANCH   1  27
ATOM     26  N   UNL     1       2.509  -6.835  -2.015  0.00  0.00    -0.315 N 
ATOM     27  C   UNL     1       2.646  -7.307  -0.759  0.00  0.00    +0.218 C 
ATOM     28  O   UNL     1       2.720  -6.535   0.173  0.00  0.00    -0.275 OA
ATOM     29  H   UNL     1       2.449  -7.452  -2.761  0.00  0.00    +0.149 HD
BRANCH  26  30
ATOM     30  C   UNL     1       2.449  -5.391  -2.252  0.00  0.00    +0.109 C 
BRANCH  30  31
ATOM     31  C   UNL     1       2.293  -5.127  -3.751  0.00  0.00    +0.054 C 
BRANCH  31  36
ATOM     32  C   UNL     1       2.058   0.570  -4.691  0.00  0.00    +0.044 C 
ATOM     33  C   UNL     1       2.119  -0.916  -4.446  0.00  0.00    -0.048 A 
ATOM     34  C   UNL     1       3.338  -1.567  -4.452  0.00  0.00    +0.004 A 
ATOM     35  C   UNL     1       3.395  -2.930  -4.227  0.00  0.00    +0.004 A 
ATOM     36  C   UNL     1       2.232  -3.641  -3.995  0.00  0.00    -0.046 A 
ATOM     37  C   UNL     1       1.013  -2.989  -3.989  0.00  0.00    +0.007 A 
ATOM     38  C   UNL     1       0.957  -1.625  -4.210  0.00  0.00    -0.047 A 
ATOM     39  C   UNL     1      -0.371  -0.914  -4.198  0.00  0.00    +0.044 C 
ENDBRANCH  31  36
ENDBRANCH  30  31
ENDBRANCH  26  30
ENDBRANCH   1  27
TORSDOF 6
