REMARK  Name = ZINC13184333
REMARK  8 active torsions:
REMARK  status: ('A' for Active; 'I' for Inactive)
REMARK    1  A    between atoms: C_1  and  N_2
REMARK    2  A    between atoms: N_2  and  C_3
REMARK    3  A    between atoms: C_3  and  C_4
REMARK    4  A    between atoms: N_6  and  C_7
REMARK    5  A    between atoms: C_12  and  C_13
REMARK    6  A    between atoms: C_15  and  C_17
REMARK    7  A    between atoms: C_20  and  S_23
REMARK    8  A    between atoms: S_23  and  N_26
REMARK                            x       y       z     vdW  Elec       q    Type
REMARK                         _______ _______ _______ _____ _____    ______ ____
ROOT
ATOM      1  C   UNL     1       2.072  -3.671  -4.061  0.00  0.00    +0.133 C 
ATOM      2  N   UNL     1       2.500  -4.220  -2.772  0.00  0.00    -0.292 N 
ATOM      3  C   UNL     1       2.006  -3.710  -1.626  0.00  0.00    +0.247 C 
ATOM      4  O   UNL     1       2.427  -4.103  -0.555  0.00  0.00    -0.270 OA
ENDROOT
BRANCH   3   5
ATOM      5  C   UNL     1       0.954  -2.673  -1.671  0.00  0.00    +0.037 A 
ATOM      6  C   UNL     1      -0.115  -2.720  -0.774  0.00  0.00    +0.015 A 
ATOM      7  C   UNL     1      -1.094  -1.749  -0.822  0.00  0.00    +0.029 A 
ATOM      8  C   UNL     1      -1.018  -0.730  -1.755  0.00  0.00    +0.106 A 
ATOM      9  C   UNL     1       0.036  -0.681  -2.650  0.00  0.00    +0.029 A 
ATOM     10  C   UNL     1       1.024  -1.643  -2.610  0.00  0.00    +0.015 A 
BRANCH   8  11
ATOM     11  S   UNL     1      -2.272   0.506  -1.808  0.00  0.00    +0.061 S 
ATOM     12  O   UNL     1      -3.436  -0.071  -1.232  0.00  0.00    -0.153 OA
ATOM     13  O   UNL     1      -2.260   1.040  -3.125  0.00  0.00    -0.153 OA
BRANCH  11  14
ATOM     14  N   UNL     1      -1.799   1.728  -0.797  0.00  0.00    -0.177 NA
ATOM     15  C   UNL     1      -1.007   2.818  -1.291  0.00  0.00    +0.109 C 
ATOM     16  C   UNL     1       0.528   2.615  -1.254  0.00  0.00    +0.017 C 
ATOM     17  C   UNL     1       0.944   1.933   0.073  0.00  0.00    +0.001 C 
ATOM     18  C   UNL     1       0.135   2.464   1.221  0.00  0.00    +0.001 C 
ATOM     19  C   UNL     1      -0.983   1.449   1.433  0.00  0.00    +0.017 C 
ATOM     20  C   UNL     1      -2.191   1.714   0.652  0.00  0.00    +0.109 C 
ENDBRANCH  11  14
ENDBRANCH   8  11
ENDBRANCH   3   5
BRANCH   2  21
ATOM     21  C   UNL     1       3.463  -5.322  -2.728  0.00  0.00    +0.203 C 
BRANCH  21  22
ATOM     22  C   UNL     1       2.725  -6.636  -2.757  0.00  0.00    +0.235 C 
ATOM     23  O   UNL     1       1.514  -6.650  -2.809  0.00  0.00    -0.274 OA
ATOM     24  N   UNL     1       3.412  -7.795  -2.725  0.00  0.00    -0.283 N 
ATOM     25  H   UNL     1       4.381  -7.786  -2.755  0.00  0.00    +0.155 HD
BRANCH  24  26
ATOM     26  C   UNL     1       2.729  -9.007  -2.649  0.00  0.00    +0.048 A 
ATOM     27  C   UNL     1       1.520  -9.169  -3.312  0.00  0.00    +0.024 A 
ATOM     28  C   UNL     1       0.848 -10.372  -3.240  0.00  0.00    +0.002 A 
ATOM     29  C   UNL     1       1.367 -11.423  -2.499  0.00  0.00    +0.001 A 
ATOM     30  C   UNL     1       2.563 -11.279  -1.831  0.00  0.00    +0.017 A 
ATOM     31  C   UNL     1       3.258 -10.068  -1.899  0.00  0.00    +0.084 A 
BRANCH  31  32
ATOM     32  C   UNL     1       4.537  -9.907  -1.185  0.00  0.00    +0.388 C 
ATOM     33  O   UNL     1       5.088  -8.824  -1.163  0.00  0.00    -0.241 OA
ATOM     34  O   UNL     1       5.097 -10.961  -0.558  0.00  0.00    -0.241 OA
ENDBRANCH  31  32
ENDBRANCH  24  26
ENDBRANCH  21  22
ENDBRANCH   2  21
TORSDOF 7
