REMARK  Name = ZINC32722323
REMARK  6 active torsions:
REMARK  status: ('A' for Active; 'I' for Inactive)
REMARK    1  A    between atoms: C_8  and  C_10
REMARK    2  A    between atoms: C_13  and  C_15
REMARK    3  A    between atoms: C_15  and  N_16
REMARK    4  A    between atoms: C_17  and  C_19
REMARK    5  A    between atoms: C_19  and  N_20
REMARK    6  A    between atoms: C_21  and  C_26
REMARK                            x       y       z     vdW  Elec       q    Type
REMARK                         _______ _______ _______ _____ _____    ______ ____
ROOT
ATOM      1  N   UNL     1       1.920  -8.021   1.249  0.00  0.00    -0.307 N 
ATOM      2  C   UNL     1       1.415  -9.244   1.506  0.00  0.00    +0.233 C 
ATOM      3  O   UNL     1       1.038  -9.948   0.594  0.00  0.00    -0.274 OA
ATOM      4  H   UNL     1       2.221  -7.457   1.979  0.00  0.00    +0.149 HD
ENDROOT
BRANCH   1   5
ATOM      5  C   UNL     1       2.014  -7.543  -0.132  0.00  0.00    +0.178 C 
BRANCH   5   9
ATOM      6  C   UNL     1       2.773  -3.969  -0.112  0.00  0.00    +0.160 A 
ATOM      7  C   UNL     1       4.039  -4.466  -0.213  0.00  0.00    +0.052 A 
ATOM      8  C   UNL     1       3.922  -5.868  -0.234  0.00  0.00    +0.047 A 
ATOM      9  C   UNL     1       2.608  -6.158  -0.145  0.00  0.00    +0.123 A 
ATOM     10  O   UNL     1       1.918  -5.010  -0.066  0.00  0.00    -0.456 OA
BRANCH   6  18
ATOM     11  C   UNL     1      -0.222   1.394   0.221  0.00  0.00    +0.002 A 
ATOM     12  C   UNL     1       0.946   2.141   0.145  0.00  0.00    +0.001 A 
ATOM     13  C   UNL     1       2.161   1.490   0.040  0.00  0.00    +0.017 A 
ATOM     14  C   UNL     1       2.192   0.117   0.012  0.00  0.00    +0.040 A 
ATOM     15  C   UNL     1       1.019  -0.672   0.086  0.00  0.00    +0.079 A 
ATOM     16  C   UNL     1      -0.203   0.034   0.193  0.00  0.00    +0.029 A 
ATOM     17  N   UNL     1       1.209  -2.005   0.046  0.00  0.00    -0.236 NA
ATOM     18  C   UNL     1       2.406  -2.547  -0.056  0.00  0.00    +0.144 A 
ATOM     19  S   UNL     1       3.469  -1.111  -0.110  0.00  0.00    -0.064 S 
ENDBRANCH   6  18
ENDBRANCH   5   9
ENDBRANCH   1   5
BRANCH   2  20
ATOM     20  C   UNL     1       1.318  -9.736   2.928  0.00  0.00    +0.221 C 
BRANCH  20  21
ATOM     21  N   UNL     1       0.740 -11.082   2.940  0.00  0.00    -0.293 N 
ATOM     22  C   UNL     1      -0.590 -11.414   3.050  0.00  0.00    +0.165 A 
ATOM     23  N   UNL     1      -0.664 -12.724   3.018  0.00  0.00    -0.128 NA
ATOM     24  N   UNL     1       0.512 -13.227   2.897  0.00  0.00    -0.121 NA
ATOM     25  C   UNL     1       1.409 -12.268   2.840  0.00  0.00    +0.203 A 
ATOM     26  S   UNL     1       3.151 -12.475   2.668  0.00  0.00    -0.009 SA
BRANCH  22  27
ATOM     27  C   UNL     1      -1.723 -10.473   3.180  0.00  0.00    +0.019 A 
ATOM     28  C   UNL     1      -1.572  -9.138   2.802  0.00  0.00    +0.013 A 
ATOM     29  C   UNL     1      -2.633  -8.265   2.926  0.00  0.00    +0.021 A 
ATOM     30  C   UNL     1      -3.846  -8.711   3.423  0.00  0.00    +0.041 A 
ATOM     31  C   UNL     1      -4.002 -10.034   3.800  0.00  0.00    +0.021 A 
ATOM     32  C   UNL     1      -2.950 -10.918   3.675  0.00  0.00    +0.013 A 
ATOM     33 CL   UNL     1      -5.176  -7.606   3.576  0.00  0.00    -0.084 Cl
ENDBRANCH  22  27
ENDBRANCH  20  21
ENDBRANCH   2  20
TORSDOF 6
