REMARK  Name = ZINC01326712
REMARK  6 active torsions:
REMARK  status: ('A' for Active; 'I' for Inactive)
REMARK    1  A    between atoms: C_1  and  C_2
REMARK    2  A    between atoms: N_4  and  C_5
REMARK    3  A    between atoms: C_8  and  N_11
REMARK    4  A    between atoms: C_12  and  C_14
REMARK    5  A    between atoms: C_19  and  C_34
REMARK    6  A    between atoms: C_22  and  C_25
REMARK                            x       y       z     vdW  Elec       q    Type
REMARK                         _______ _______ _______ _____ _____    ______ ____
ROOT
ATOM      1  C   UNL     1      -2.709  -8.321  -0.565  0.00  0.00    +0.149 A 
ATOM      2  C   UNL     1      -3.885  -9.081  -0.759  0.00  0.00    +0.078 A 
ATOM      3  C   UNL     1      -3.521 -10.373  -0.873  0.00  0.00    +0.119 A 
ATOM      4  N   UNL     1      -2.162 -10.444  -0.754  0.00  0.00    -0.238 N 
ATOM      5  N   UNL     1      -1.679  -9.149  -0.569  0.00  0.00    -0.164 NA
ATOM      6  C   UNL     1      -1.404 -11.697  -0.822  0.00  0.00    +0.215 C 
ATOM      7  C   UNL     1      -2.356 -12.868  -0.556  0.00  0.00    +0.063 C 
ATOM      8  C   UNL     1      -3.599 -12.743  -1.445  0.00  0.00    +0.104 C 
ATOM      9  N   UNL     1      -4.315 -11.505  -1.078  0.00  0.00    -0.322 N 
ATOM     10  H   UNL     1      -5.280 -11.479  -0.985  0.00  0.00    +0.148 HD
ENDROOT
BRANCH   8  11
ATOM     11  C   UNL     1      -3.182 -12.681  -2.892  0.00  0.00    -0.024 A 
ATOM     12  C   UNL     1      -2.717 -11.494  -3.426  0.00  0.00    +0.009 A 
ATOM     13  C   UNL     1      -2.333 -11.432  -4.752  0.00  0.00    +0.050 A 
ATOM     14  C   UNL     1      -2.414 -12.562  -5.550  0.00  0.00    +0.166 A 
ATOM     15  C   UNL     1      -2.882 -13.758  -5.012  0.00  0.00    +0.167 A 
ATOM     16  C   UNL     1      -3.259 -13.814  -3.680  0.00  0.00    +0.055 A 
ATOM     17  O   UNL     1      -2.866 -14.712  -5.989  0.00  0.00    -0.453 OA
ATOM     18  C   UNL     1      -2.771 -13.989  -7.230  0.00  0.00    +0.466 C 
ATOM     19  O   UNL     1      -2.104 -12.766  -6.864  0.00  0.00    -0.453 OA
ENDBRANCH   8  11
BRANCH   1  21
ATOM     20  N   UNL     1      -1.451  -6.251  -0.220  0.00  0.00    -0.280 N 
ATOM     21  C   UNL     1      -2.643  -6.856  -0.393  0.00  0.00    +0.268 C 
ATOM     22  O   UNL     1      -3.664  -6.195  -0.407  0.00  0.00    -0.268 OA
ATOM     23  H   UNL     1      -0.644  -6.783  -0.142  0.00  0.00    +0.155 HD
BRANCH  20  27
ATOM     24  C   UNL     1      -1.233  -2.092  -0.023  0.00  0.00    +0.033 A 
ATOM     25  C   UNL     1      -2.329  -2.756   0.511  0.00  0.00    +0.025 A 
ATOM     26  C   UNL     1      -2.402  -4.133   0.446  0.00  0.00    +0.025 A 
ATOM     27  C   UNL     1      -1.378  -4.854  -0.154  0.00  0.00    +0.034 A 
ATOM     28  C   UNL     1      -0.281  -4.191  -0.688  0.00  0.00    +0.025 A 
ATOM     29  C   UNL     1      -0.211  -2.813  -0.627  0.00  0.00    +0.025 A 
BRANCH  24  33
ATOM     30  C   UNL     1      -0.616   1.506  -0.945  0.00  0.00    +0.109 C 
ATOM     31  C   UNL     1      -0.602  -0.001  -0.968  0.00  0.00    +0.214 C 
ATOM     32  O   UNL     1      -0.088  -0.588  -1.896  0.00  0.00    -0.276 OA
ATOM     33  N   UNL     1      -1.159  -0.695   0.044  0.00  0.00    -0.286 N 
ATOM     34  H   UNL     1      -1.510  -0.227   0.818  0.00  0.00    +0.155 HD
ENDBRANCH  24  33
ENDBRANCH  20  27
ENDBRANCH   1  21
BRANCH   6  35
ATOM     35  C   UNL     1      -0.296 -11.684   0.234  0.00  0.00    +0.412 C 
ATOM     36  F   UNL     1      -0.866 -11.552   1.505  0.00  0.00    -0.168 F 
ATOM     37  F   UNL     1       0.426 -12.880   0.167  0.00  0.00    -0.168 F 
ATOM     38  F   UNL     1       0.563 -10.606  -0.006  0.00  0.00    -0.168 F 
ENDBRANCH   6  35
TORSDOF 5
