REMARK  Name = ZINC35646798
REMARK  16 active torsions:
REMARK  status: ('A' for Active; 'I' for Inactive)
REMARK    1  A    between atoms: C_1  and  C_2
REMARK    2  A    between atoms: C_2  and  O_3
REMARK    3  A    between atoms: O_3  and  C_4
REMARK    4  A    between atoms: C_4  and  C_6
REMARK    5  A    between atoms: C_7  and  C_25
REMARK    6  A    between atoms: N_8  and  C_24
REMARK    7  A    between atoms: C_12  and  C_14
REMARK    8  A    between atoms: C_17  and  O_22
REMARK    9  A    between atoms: C_19  and  O_20
REMARK   10  A    between atoms: O_20  and  C_21
REMARK   11  A    between atoms: O_22  and  C_23
REMARK   12  A    between atoms: C_25  and  N_26
REMARK   13  A    between atoms: N_35  and  C_36
REMARK   14  A    between atoms: C_36  and  C_37
REMARK   15  A    between atoms: C_36  and  C_38
REMARK   16  A    between atoms: C_36  and  C_39
REMARK                            x       y       z     vdW  Elec       q    Type
REMARK                         _______ _______ _______ _____ _____    ______ ____
ROOT
ATOM      1  C   UNL     1       1.588  -2.571   3.603  0.00  0.00    +0.077 C 
ATOM      2  C   UNL     1       1.587  -3.901   3.837  0.00  0.00    +0.010 C 
ATOM      3  N   UNL     1       2.047  -4.409   5.018  0.00  0.00    -0.264 N 
ATOM      4  C   UNL     1       2.524  -3.654   6.015  0.00  0.00    +0.307 C 
ATOM      5  O   UNL     1       2.912  -4.198   7.031  0.00  0.00    -0.252 OA
ATOM      6  N   UNL     1       2.589  -2.310   5.930  0.00  0.00    -0.288 N 
ATOM      7  C   UNL     1       2.122  -1.664   4.692  0.00  0.00    +0.147 C 
ATOM      8  C   UNL     1       2.016  -5.862   5.205  0.00  0.00    +0.139 C 
ATOM      9  H   UNL     1       2.938  -1.782   6.665  0.00  0.00    +0.151 HD
ENDROOT
BRANCH   7  10
ATOM     10  C   UNL     1       1.031  -0.692   5.064  0.00  0.00    +0.019 A 
ATOM     11  C   UNL     1       0.194  -0.969   6.127  0.00  0.00    +0.013 A 
ATOM     12  C   UNL     1      -0.807  -0.081   6.470  0.00  0.00    +0.046 A 
ATOM     13  C   UNL     1      -0.973   1.093   5.747  0.00  0.00    +0.124 A 
ATOM     14  C   UNL     1      -0.134   1.372   4.680  0.00  0.00    +0.091 A 
ATOM     15  C   UNL     1       0.873   0.482   4.341  0.00  0.00    +0.129 A 
BRANCH  15  16
ATOM     16  O   UNL     1       1.701   0.756   3.299  0.00  0.00    -0.495 OA
ATOM     17  C   UNL     1       1.550   2.029   2.668  0.00  0.00    +0.277 C 
ENDBRANCH  15  16
BRANCH  13  18
ATOM     18  O   UNL     1      -1.958   1.966   6.085  0.00  0.00    -0.495 OA
ATOM     19  C   UNL     1      -2.786   1.613   7.196  0.00  0.00    +0.277 C 
ENDBRANCH  13  18
ENDBRANCH   7  10
BRANCH   1  20
ATOM     20  C   UNL     1       1.112  -2.044   2.379  0.00  0.00    +0.339 C 
ATOM     21  O   UNL     1       1.899  -1.652   1.539  0.00  0.00    -0.245 OA
BRANCH  20  22
ATOM     22  O   UNL     1      -0.215  -1.976   2.145  0.00  0.00    -0.462 OA
BRANCH  22  24
ATOM     23  C   UNL     1      -2.147  -1.409   0.808  0.00  0.00    +0.048 C 
ATOM     24  C   UNL     1      -0.623  -1.538   0.847  0.00  0.00    +0.229 C 
ENDBRANCH  22  24
ENDBRANCH  20  22
ENDBRANCH   1  20
BRANCH   2  25
ATOM     25  C   UNL     1       1.069  -4.840   2.778  0.00  0.00    -0.026 C 
BRANCH  25  26
ATOM     26  N   UNL     1       2.135  -5.119   1.807  0.00  0.00    +0.384 N 
ATOM     27  C   UNL     1       1.554  -5.845   0.680  0.00  0.00    -0.077 C 
ATOM     28  C   UNL     1       2.338  -5.531  -0.575  0.00  0.00    +0.000 C 
ATOM     29  C   UNL     1       3.430  -6.597  -0.777  0.00  0.00    +0.107 C 
ATOM     30  N   UNL     1       4.053  -6.970   0.508  0.00  0.00    -0.287 N 
ATOM     31  C   UNL     1       4.383  -5.991   1.523  0.00  0.00    +0.091 C 
ATOM     32  C   UNL     1       3.181  -5.794   2.474  0.00  0.00    -0.059 C 
ATOM     33  C   UNL     1       4.323  -8.269   0.747  0.00  0.00    +0.303 C 
ATOM     34  O   UNL     1       4.129  -9.099  -0.120  0.00  0.00    -0.253 OA
ATOM     35  N   UNL     1       4.807  -8.648   1.946  0.00  0.00    -0.294 N 
ATOM     36  H   UNL     1       5.030  -7.979   2.612  0.00  0.00    +0.151 HD
ATOM     37  H   UNL     1       2.491  -4.239   1.466  0.00  0.00    -0.081 HD
BRANCH  35  38
ATOM     38  C   UNL     1       4.996 -10.069   2.244  0.00  0.00    +0.028 C 
ATOM     39  C   UNL     1       5.979 -10.675   1.241  0.00  0.00    +0.031 C 
ATOM     40  C   UNL     1       5.553 -10.224   3.661  0.00  0.00    +0.031 C 
ATOM     41  C   UNL     1       3.652 -10.794   2.143  0.00  0.00    +0.031 C 
ENDBRANCH  35  38
ENDBRANCH  25  26
ENDBRANCH   2  25
TORSDOF 9
