REMARK  Name = ZINC45866103
REMARK  8 active torsions:
REMARK  status: ('A' for Active; 'I' for Inactive)
REMARK    1  A    between atoms: C_1  and  C_2
REMARK    2  A    between atoms: C_5  and  N_8
REMARK    3  A    between atoms: C_9  and  C_11
REMARK    4  A    between atoms: C_11  and  C_12
REMARK    5  A    between atoms: C_24  and  C_26
REMARK    6  A    between atoms: C_26  and  N_27
REMARK    7  A    between atoms: N_27  and  C_28
REMARK    8  A    between atoms: N_27  and  C_29
REMARK                            x       y       z     vdW  Elec       q    Type
REMARK                         _______ _______ _______ _____ _____    ______ ____
ROOT
ATOM      1  C   UNL     1       0.554  -6.976   2.779  0.00  0.00    +0.176 C 
ATOM      2  C   UNL     1       1.022  -8.382   3.052  0.00  0.00    +0.239 C 
ATOM      3  O   UNL     1       2.208  -8.634   3.028  0.00  0.00    -0.273 OA
ATOM      4  N   UNL     1       0.139  -9.362   3.322  0.00  0.00    -0.282 N 
ATOM      5  C   UNL     1      -1.230  -9.088   3.405  0.00  0.00    +0.055 A 
ATOM      6  C   UNL     1      -2.160 -10.115   3.390  0.00  0.00    +0.025 A 
ATOM      7  C   UNL     1      -3.509  -9.823   3.478  0.00  0.00    +0.002 A 
ATOM      8  C   UNL     1      -3.935  -8.511   3.581  0.00  0.00    +0.002 A 
ATOM      9  C   UNL     1      -3.014  -7.480   3.594  0.00  0.00    +0.025 A 
ATOM     10  C   UNL     1      -1.663  -7.765   3.504  0.00  0.00    +0.058 A 
ATOM     11  N   UNL     1      -0.704  -6.738   3.504  0.00  0.00    -0.259 N 
ATOM     12  C   UNL     1      -0.926  -5.574   4.147  0.00  0.00    +0.204 C 
ATOM     13  O   UNL     1      -0.114  -4.676   4.074  0.00  0.00    -0.277 OA
ATOM     14  H   UNL     1       0.457 -10.268   3.461  0.00  0.00    +0.155 HD
ENDROOT
BRANCH   1  15
ATOM     15  C   UNL     1       0.321  -6.796   1.277  0.00  0.00    +0.128 C 
BRANCH  15  17
ATOM     16  N   UNL     1      -0.283  -4.965  -0.272  0.00  0.00    -0.285 N 
ATOM     17  C   UNL     1      -0.033  -5.359   0.992  0.00  0.00    +0.219 C 
ATOM     18  O   UNL     1      -0.093  -4.558   1.900  0.00  0.00    -0.275 OA
ATOM     19  H   UNL     1      -0.312  -5.619  -0.987  0.00  0.00    +0.155 HD
BRANCH  16  24
ATOM     20  C   UNL     1      -1.162   0.523  -1.412  0.00  0.00    +0.044 C 
ATOM     21  C   UNL     1      -0.928  -0.935  -1.109  0.00  0.00    -0.050 A 
ATOM     22  C   UNL     1      -0.048  -1.299  -0.107  0.00  0.00    +0.005 A 
ATOM     23  C   UNL     1       0.168  -2.634   0.173  0.00  0.00    +0.023 A 
ATOM     24  C   UNL     1      -0.500  -3.611  -0.553  0.00  0.00    +0.033 A 
ATOM     25  C   UNL     1      -1.384  -3.243  -1.558  0.00  0.00    +0.023 A 
ATOM     26  C   UNL     1      -1.600  -1.906  -1.830  0.00  0.00    +0.005 A 
ENDBRANCH  16  24
ENDBRANCH  15  17
ENDBRANCH   1  15
BRANCH  12  27
ATOM     27  C   UNL     1      -2.183  -5.390   4.957  0.00  0.00    +0.019 C 
BRANCH  27  28
ATOM     28  N   UNL     1      -1.996  -4.285   5.907  0.00  0.00    +0.385 N 
ATOM     29  C   UNL     1      -0.956  -4.646   6.880  0.00  0.00    -0.095 C 
ATOM     30  H   UNL     1      -1.715  -3.455   5.406  0.00  0.00    -0.081 HD
BRANCH  28  31
ATOM     31  C   UNL     1      -3.258  -4.026   6.612  0.00  0.00    -0.068 C 
ATOM     32  C   UNL     1      -4.341  -3.650   5.599  0.00  0.00    -0.015 C 
ATOM     33  C   UNL     1      -5.656  -3.381   6.334  0.00  0.00    -0.002 C 
ATOM     34  C   UNL     1      -5.461  -2.230   7.323  0.00  0.00    -0.000 C 
ATOM     35  C   UNL     1      -4.378  -2.606   8.336  0.00  0.00    -0.002 C 
ATOM     36  C   UNL     1      -3.063  -2.875   7.601  0.00  0.00    -0.015 C 
ENDBRANCH  28  31
ENDBRANCH  27  28
ENDBRANCH  12  27
TORSDOF 6
