REMARK  Name = ZINC36329125
REMARK  8 active torsions:
REMARK  status: ('A' for Active; 'I' for Inactive)
REMARK    1  A    between atoms: C_1  and  C_2
REMARK    2  A    between atoms: C_5  and  S_22
REMARK    3  A    between atoms: C_7  and  C_8
REMARK    4  A    between atoms: N_10  and  C_11
REMARK    5  A    between atoms: C_14  and  O_17
REMARK    6  A    between atoms: O_17  and  C_18
REMARK    7  A    between atoms: S_22  and  N_25
REMARK    8  A    between atoms: N_25  and  C_26
REMARK                            x       y       z     vdW  Elec       q    Type
REMARK                         _______ _______ _______ _____ _____    ______ ____
ROOT
ATOM      1  C   UNL     1       0.058   1.546   0.030  0.00  0.00    +0.044 C 
ATOM      2  C   UNL     1       0.128   0.041  -0.002  0.00  0.00    -0.038 A 
ATOM      3  C   UNL     1       0.023  -0.631  -1.202  0.00  0.00    +0.006 A 
ATOM      4  C   UNL     1       0.086  -2.012  -1.234  0.00  0.00    +0.029 A 
ATOM      5  C   UNL     1       0.255  -2.730  -0.062  0.00  0.00    +0.111 A 
ATOM      6  C   UNL     1       0.362  -2.071   1.145  0.00  0.00    +0.042 A 
ATOM      7  C   UNL     1       0.304  -0.676   1.182  0.00  0.00    +0.042 A 
ENDROOT
BRANCH   7   8
ATOM      8  C   UNL     1       0.424   0.037   2.471  0.00  0.00    +0.249 C 
ATOM      9  O   UNL     1       0.490   1.251   2.491  0.00  0.00    -0.270 OA
ATOM     10  N   UNL     1       0.460  -0.658   3.625  0.00  0.00    -0.281 N 
ATOM     11  H   UNL     1       0.483  -1.628   3.607  0.00  0.00    +0.155 HD
BRANCH  10  12
ATOM     12  C   UNL     1       0.463   0.019   4.851  0.00  0.00    +0.034 A 
ATOM     13  C   UNL     1       1.171  -0.498   5.928  0.00  0.00    +0.027 A 
ATOM     14  C   UNL     1       1.174   0.171   7.137  0.00  0.00    +0.048 A 
ATOM     15  C   UNL     1       0.471   1.359   7.274  0.00  0.00    +0.130 A 
ATOM     16  C   UNL     1      -0.236   1.876   6.199  0.00  0.00    +0.048 A 
ATOM     17  C   UNL     1      -0.235   1.212   4.988  0.00  0.00    +0.027 A 
BRANCH  15  18
ATOM     18  O   UNL     1       0.474   2.016   8.465  0.00  0.00    -0.406 OA
BRANCH  18  19
ATOM     19  C   UNL     1      -0.271   3.233   8.535  0.00  0.00    +0.575 C 
ATOM     20  F   UNL     1      -1.616   2.974   8.253  0.00  0.00    -0.133 F 
ATOM     21  F   UNL     1      -0.160   3.774   9.821  0.00  0.00    -0.133 F 
ATOM     22  F   UNL     1       0.234   4.144   7.601  0.00  0.00    -0.133 F 
ENDBRANCH  18  19
ENDBRANCH  15  18
ENDBRANCH  10  12
ENDBRANCH   7   8
BRANCH   5  23
ATOM     23  S   UNL     1       0.333  -4.489  -0.113  0.00  0.00    +0.092 S 
ATOM     24  O   UNL     1      -0.052  -4.950   1.175  0.00  0.00    -0.148 OA
ATOM     25  O   UNL     1      -0.340  -4.892  -1.298  0.00  0.00    -0.148 OA
BRANCH  23  26
ATOM     26  N   UNL     1       1.924  -4.903  -0.308  0.00  0.00    -0.095 NA
BRANCH  26  27
ATOM     27  C   UNL     1       2.292  -6.250  -0.382  0.00  0.00    +0.109 A 
ATOM     28  C   UNL     1       1.324  -7.242  -0.299  0.00  0.00    +0.029 A 
ATOM     29  C   UNL     1       1.691  -8.572  -0.373  0.00  0.00    +0.002 A 
ATOM     30  C   UNL     1       3.021  -8.917  -0.530  0.00  0.00    +0.003 A 
ATOM     31  C   UNL     1       3.989  -7.933  -0.613  0.00  0.00    +0.040 A 
ATOM     32  C   UNL     1       3.629  -6.600  -0.546  0.00  0.00    +0.148 A 
ATOM     33  F   UNL     1       4.574  -5.638  -0.633  0.00  0.00    -0.203 F 
ENDBRANCH  26  27
ENDBRANCH  23  26
ENDBRANCH   5  23
TORSDOF 7
