REMARK  Name = ZINC14975631
REMARK  9 active torsions:
REMARK  status: ('A' for Active; 'I' for Inactive)
REMARK    1  A    between atoms: C_4  and  C_7
REMARK    2  A    between atoms: C_7  and  N_8
REMARK    3  A    between atoms: C_9  and  C_11
REMARK    4  A    between atoms: C_11  and  C_12
REMARK    5  A    between atoms: C_15  and  N_18
REMARK    6  A    between atoms: C_21  and  N_68
REMARK    7  A    between atoms: C_24  and  C_25
REMARK    8  A    between atoms: C_24  and  N_68
REMARK    9  A    between atoms: N_28  and  C_30
REMARK                            x       y       z     vdW  Elec       q    Type
REMARK                         _______ _______ _______ _____ _____    ______ ____
ROOT
ATOM      1  N   UNL     1       1.238  -2.077  -0.021  0.00  0.00    -0.330 N 
ATOM      2  C   UNL     1       0.487  -2.622   1.118  0.00  0.00    +0.103 C 
ATOM      3  C   UNL     1       0.410  -4.145   0.998  0.00  0.00    +0.003 C 
ATOM      4  C   UNL     1       1.827  -4.723   0.975  0.00  0.00    -0.068 C 
ATOM      5  C   UNL     1       2.603  -4.104  -0.191  0.00  0.00    +0.003 C 
ATOM      6  C   UNL     1       2.617  -2.581  -0.036  0.00  0.00    +0.103 C 
ENDROOT
BRANCH   1  10
ATOM      7  C   UNL     1       1.171   2.086   0.002  0.00  0.00    -0.039 A 
ATOM      8  C   UNL     1      -0.017   1.377   0.010  0.00  0.00    +0.006 A 
ATOM      9  C   UNL     1       0.002  -0.004   0.002  0.00  0.00    +0.023 A 
ATOM     10  C   UNL     1       1.215  -0.681  -0.013  0.00  0.00    +0.030 A 
ATOM     11  C   UNL     1       2.406   0.035  -0.021  0.00  0.00    +0.023 A 
ATOM     12  C   UNL     1       2.380   1.416  -0.013  0.00  0.00    +0.006 A 
BRANCH   7  13
ATOM     13  C   UNL     1       1.146   3.593   0.010  0.00  0.00    +0.130 C 
BRANCH  13  15
ATOM     14  N   UNL     1       1.132   5.412   1.687  0.00  0.00    -0.311 N 
ATOM     15  C   UNL     1       1.151   4.088   1.433  0.00  0.00    +0.218 C 
ATOM     16  O   UNL     1       1.173   3.295   2.351  0.00  0.00    -0.275 OA
ATOM     17  H   UNL     1       1.115   6.045   0.953  0.00  0.00    +0.149 HD
BRANCH  14  18
ATOM     18  C   UNL     1       1.137   5.893   3.070  0.00  0.00    +0.139 C 
BRANCH  18  22
ATOM     19  C   UNL     1       1.068  10.164   3.093  0.00  0.00    +0.000 A 
ATOM     20  C   UNL     1      -0.118   9.453   3.100  0.00  0.00    +0.000 A 
ATOM     21  C   UNL     1      -0.095   8.071   3.093  0.00  0.00    +0.005 A 
ATOM     22  C   UNL     1       1.113   7.399   3.078  0.00  0.00    -0.030 A 
ATOM     23  C   UNL     1       2.299   8.110   3.076  0.00  0.00    +0.005 A 
ATOM     24  C   UNL     1       2.276   9.492   3.079  0.00  0.00    +0.000 A 
ENDBRANCH  18  22
ENDBRANCH  14  18
ENDBRANCH  13  15
ENDBRANCH   7  13
ENDBRANCH   1  10
BRANCH   4  25
ATOM     25  N   UNL     1       1.762  -6.185   0.792  0.00  0.00    +0.384 N 
ATOM     26  H   UNL     1       2.634  -6.512   0.359  0.00  0.00    -0.085 HD
ATOM     27  H   UNL     1       0.970  -6.415   0.180  0.00  0.00    -0.085 HD
BRANCH  25  28
ATOM     28  C   UNL     1       1.583  -6.857   2.093  0.00  0.00    -0.043 C 
BRANCH  28  29
ATOM     29  C   UNL     1       1.519  -8.346   1.875  0.00  0.00    -0.027 A 
ATOM     30  C   UNL     1       0.361  -9.095   1.641  0.00  0.00    +0.136 A 
ATOM     31  N   UNL     1       0.706 -10.350   1.498  0.00  0.00    -0.175 NA
ATOM     32  N   UNL     1       2.096 -10.441   1.646  0.00  0.00    -0.240 N 
ATOM     33  C   UNL     1       2.572  -9.197   1.877  0.00  0.00    +0.116 A 
BRANCH  32  34
ATOM     34  C   UNL     1       2.859 -11.616   1.569  0.00  0.00    +0.066 A 
ATOM     35  C   UNL     1       4.236 -11.561   1.730  0.00  0.00    +0.030 A 
ATOM     36  C   UNL     1       4.985 -12.719   1.658  0.00  0.00    +0.040 A 
ATOM     37  C   UNL     1       4.364 -13.933   1.415  0.00  0.00    +0.124 A 
ATOM     38  C   UNL     1       2.990 -13.988   1.248  0.00  0.00    +0.040 A 
ATOM     39  C   UNL     1       2.237 -12.833   1.325  0.00  0.00    +0.030 A 
ATOM     40  F   UNL     1       5.099 -15.064   1.339  0.00  0.00    -0.205 F 
ENDBRANCH  32  34
ENDBRANCH  28  29
ENDBRANCH  25  28
ENDBRANCH   4  25
TORSDOF 9
