REMARK  Name = ZINC09346803
REMARK  5 active torsions:
REMARK  status: ('A' for Active; 'I' for Inactive)
REMARK    1  A    between atoms: C_6  and  N_7
REMARK    2  A    between atoms: C_10  and  C_16
REMARK    3  A    between atoms: N_18  and  C_19
REMARK    4  A    between atoms: C_21  and  C_29
REMARK    5  A    between atoms: C_23  and  C_25
REMARK                            x       y       z     vdW  Elec       q    Type
REMARK                         _______ _______ _______ _____ _____    ______ ____
ROOT
ATOM      1  C   UNL     1       0.792   1.863   0.163  0.00  0.00    +0.255 C 
ATOM      2  O   UNL     1      -0.065   2.718   0.037  0.00  0.00    -0.270 OA
ATOM      3  N   UNL     1       2.057   2.217   0.464  0.00  0.00    -0.281 N 
ATOM      4  H   UNL     1       2.755   1.544   0.490  0.00  0.00    +0.155 HD
ENDROOT
BRANCH   1   8
ATOM      5  N   UNL     1       1.117  -1.883  -0.155  0.00  0.00    -0.229 N 
ATOM      6  C   UNL     1       1.487  -0.596   0.019  0.00  0.00    +0.273 A 
ATOM      7  O   UNL     1       2.654  -0.304   0.204  0.00  0.00    -0.266 OA
ATOM      8  C   UNL     1       0.448   0.445  -0.021  0.00  0.00    +0.118 A 
ATOM      9  C   UNL     1      -0.860   0.052  -0.229  0.00  0.00    +0.106 A 
ATOM     10  N   UNL     1      -1.139  -1.266  -0.400  0.00  0.00    -0.313 N 
ATOM     11  H   UNL     1      -2.057  -1.541  -0.550  0.00  0.00    +0.170 HD
ATOM     12  C   UNL     1      -0.174  -2.198  -0.360  0.00  0.00    +0.334 A 
ATOM     13  O   UNL     1      -0.476  -3.365  -0.513  0.00  0.00    -0.246 OA
BRANCH   5  19
ATOM     14  C   UNL     1       2.026  -3.883   0.852  0.00  0.00    +0.028 A 
ATOM     15  C   UNL     1       2.978  -4.883   0.878  0.00  0.00    +0.022 A 
ATOM     16  C   UNL     1       3.995  -4.896  -0.059  0.00  0.00    +0.041 A 
ATOM     17  C   UNL     1       4.059  -3.911  -1.028  0.00  0.00    +0.022 A 
ATOM     18  C   UNL     1       3.107  -2.911  -1.062  0.00  0.00    +0.028 A 
ATOM     19  C   UNL     1       2.085  -2.896  -0.123  0.00  0.00    +0.054 A 
ATOM     20 CL   UNL     1       5.194  -6.152  -0.019  0.00  0.00    -0.084 Cl
ENDBRANCH   5  19
ENDBRANCH   1   8
BRANCH   3  21
ATOM     21  C   UNL     1       2.363   3.553   0.741  0.00  0.00    +0.035 A 
ATOM     22  C   UNL     1       3.592   4.078   0.363  0.00  0.00    +0.035 A 
ATOM     23  C   UNL     1       3.889   5.400   0.633  0.00  0.00    +0.057 A 
ATOM     24  C   UNL     1       2.968   6.197   1.288  0.00  0.00    +0.024 A 
ATOM     25  C   UNL     1       1.745   5.676   1.670  0.00  0.00    +0.057 A 
ATOM     26  C   UNL     1       1.440   4.357   1.398  0.00  0.00    +0.035 A 
BRANCH  25  27
ATOM     27  C   UNL     1       0.745   6.549   2.383  0.00  0.00    +0.417 C 
ATOM     28  F   UNL     1      -0.406   5.804   2.664  0.00  0.00    -0.166 F 
ATOM     29  F   UNL     1       1.302   7.015   3.579  0.00  0.00    -0.166 F 
ATOM     30  F   UNL     1       0.410   7.636   1.569  0.00  0.00    -0.166 F 
ENDBRANCH  25  27
BRANCH  23  31
ATOM     31  C   UNL     1       5.220   5.972   0.218  0.00  0.00    +0.417 C 
ATOM     32  F   UNL     1       6.147   5.792   1.250  0.00  0.00    -0.166 F 
ATOM     33  F   UNL     1       5.670   5.318  -0.934  0.00  0.00    -0.166 F 
ATOM     34  F   UNL     1       5.077   7.338  -0.048  0.00  0.00    -0.166 F 
ENDBRANCH  23  31
ENDBRANCH   3  21
TORSDOF 5
