REMARK  Name = ZINC66856545
REMARK  6 active torsions:
REMARK  status: ('A' for Active; 'I' for Inactive)
REMARK    1  A    between atoms: C_1  and  C_2
REMARK    2  A    between atoms: C_2  and  C_4
REMARK    3  A    between atoms: C_2  and  N_22
REMARK    4  A    between atoms: N_6  and  C_7
REMARK    5  A    between atoms: C_10  and  C_13
REMARK    6  A    between atoms: C_23  and  C_25
REMARK                            x       y       z     vdW  Elec       q    Type
REMARK                         _______ _______ _______ _____ _____    ______ ____
ROOT
ATOM      1  C   UNL     1      -1.399  -0.571   0.038  0.00  0.00    +0.237 C 
ATOM      2  O   UNL     1      -1.787  -1.302  -0.849  0.00  0.00    -0.273 OA
ATOM      3  N   UNL     1      -2.236  -0.217   1.033  0.00  0.00    -0.284 N 
ATOM      4  H   UNL     1      -1.909   0.312   1.777  0.00  0.00    +0.155 HD
ENDROOT
BRANCH   3   5
ATOM      5  C   UNL     1      -3.576  -0.612   0.993  0.00  0.00    +0.033 A 
ATOM      6  C   UNL     1      -3.918  -1.853   0.469  0.00  0.00    +0.024 A 
ATOM      7  C   UNL     1      -5.238  -2.246   0.428  0.00  0.00    +0.013 A 
ATOM      8  C   UNL     1      -6.233  -1.396   0.914  0.00  0.00    +0.019 A 
ATOM      9  C   UNL     1      -5.887  -0.150   1.440  0.00  0.00    +0.013 A 
ATOM     10  C   UNL     1      -4.564   0.234   1.483  0.00  0.00    +0.024 A 
BRANCH   8  11
ATOM     11  C   UNL     1      -7.651  -1.814   0.871  0.00  0.00    +0.164 A 
ATOM     12  N   UNL     1      -8.705  -1.032   0.985  0.00  0.00    -0.129 NA
ATOM     13  N   UNL     1      -9.782  -1.735   0.900  0.00  0.00    -0.134 NA
ATOM     14  C   UNL     1      -9.479  -2.987   0.729  0.00  0.00    +0.134 A 
ATOM     15  N   UNL     1      -8.119  -3.080   0.700  0.00  0.00    -0.311 N 
ATOM     16  C   UNL     1      -7.370  -4.322   0.522  0.00  0.00    +0.125 C 
ATOM     17  C   UNL     1      -8.307  -5.505   0.797  0.00  0.00    +0.022 C 
ATOM     18  C   UNL     1      -9.598  -5.335  -0.009  0.00  0.00    +0.009 C 
ATOM     19  C   UNL     1     -10.407  -4.166   0.576  0.00  0.00    +0.076 C 
ENDBRANCH   8  11
ENDBRANCH   3   5
BRANCH   1  21
ATOM     20  C   UNL     1       0.008   1.470  -0.024  0.00  0.00    +0.038 C 
ATOM     21  C   UNL     1       0.018  -0.059   0.028  0.00  0.00    +0.156 C 
BRANCH  21  22
ATOM     22  N   UNL     1       0.718  -0.584  -1.148  0.00  0.00    -0.304 N 
ATOM     23  C   UNL     1       2.061  -0.703  -1.135  0.00  0.00    +0.217 C 
ATOM     24  O   UNL     1       2.689  -0.377  -0.150  0.00  0.00    -0.275 OA
ATOM     25  H   UNL     1       0.215  -0.845  -1.935  0.00  0.00    +0.149 HD
BRANCH  23  26
ATOM     26  C   UNL     1       2.781  -1.242  -2.344  0.00  0.00    +0.079 C 
ATOM     27  C   UNL     1       2.295  -2.665  -2.638  0.00  0.00    +0.041 C 
ATOM     28  C   UNL     1       3.087  -3.233  -3.818  0.00  0.00    +0.160 C 
ATOM     29  O   UNL     1       4.482  -3.207  -3.511  0.00  0.00    -0.380 OA
ATOM     30  C   UNL     1       5.003  -1.897  -3.273  0.00  0.00    +0.160 C 
ATOM     31  C   UNL     1       4.287  -1.275  -2.071  0.00  0.00    +0.041 C 
ENDBRANCH  23  26
ENDBRANCH  21  22
ENDBRANCH   1  21
TORSDOF 5
