REMARK  Name = ZINC13637999
REMARK  8 active torsions:
REMARK  status: ('A' for Active; 'I' for Inactive)
REMARK    1  A    between atoms: C_1  and  C_2
REMARK    2  A    between atoms: C_2  and  C_3
REMARK    3  A    between atoms: C_3  and  C_5
REMARK    4  A    between atoms: C_3  and  N_6
REMARK    5  A    between atoms: N_6  and  S_7
REMARK    6  A    between atoms: S_7  and  C_10
REMARK    7  A    between atoms: C_23  and  C_26
REMARK    8  A    between atoms: C_29  and  O_32
REMARK                            x       y       z     vdW  Elec       q    Type
REMARK                         _______ _______ _______ _____ _____    ______ ____
ROOT
ATOM      1  C   UNL     1      -5.910   4.697   0.908  0.00  0.00    +0.106 A 
ATOM      2  C   UNL     1      -6.041   4.364  -0.428  0.00  0.00    +0.030 A 
ATOM      3  C   UNL     1      -5.251   3.375  -0.976  0.00  0.00    +0.025 A 
ATOM      4  C   UNL     1      -4.317   2.707  -0.193  0.00  0.00    +0.031 A 
ATOM      5  C   UNL     1      -4.180   3.059   1.154  0.00  0.00    -0.018 A 
ATOM      6  C   UNL     1      -4.979   4.043   1.694  0.00  0.00    +0.034 A 
ATOM      7  C   UNL     1      -3.143   2.357   1.941  0.00  0.00    +0.049 C 
ATOM      8  C   UNL     1      -3.247   2.199   3.414  0.00  0.00    -0.023 C 
ATOM      9  C   UNL     1      -2.656   1.062   3.761  0.00  0.00    -0.030 C 
ATOM     10  C   UNL     1      -2.132   0.344   2.516  0.00  0.00    +0.033 C 
ATOM     11  C   UNL     1      -3.069   0.887   1.429  0.00  0.00    +0.029 C 
ATOM     12  C   UNL     1      -2.513   0.977   0.019  0.00  0.00    +0.105 C 
ATOM     13  N   UNL     1      -3.539   1.696  -0.769  0.00  0.00    -0.336 N 
ATOM     14  H   UNL     1      -3.674   1.462  -1.700  0.00  0.00    +0.147 HD
ENDROOT
BRANCH  12  15
ATOM     15  C   UNL     1      -1.220   1.750   0.017  0.00  0.00    -0.027 A 
ATOM     16  C   UNL     1      -1.234   3.120  -0.171  0.00  0.00    +0.009 A 
ATOM     17  C   UNL     1      -0.050   3.832  -0.167  0.00  0.00    +0.046 A 
ATOM     18  C   UNL     1       1.155   3.170   0.021  0.00  0.00    +0.117 A 
ATOM     19  C   UNL     1       1.167   1.795   0.204  0.00  0.00    +0.046 A 
ATOM     20  C   UNL     1      -0.019   1.088   0.199  0.00  0.00    +0.009 A 
BRANCH  18  21
ATOM     21  O   UNL     1       2.321   3.868   0.026  0.00  0.00    -0.507 OA
ATOM     22  H   UNL     1       2.585   4.185   0.901  0.00  0.00    +0.292 HD
ENDBRANCH  18  21
ENDBRANCH  12  15
BRANCH   1  23
ATOM     23  S   UNL     1      -6.926   5.955   1.607  0.00  0.00    +0.059 S 
ATOM     24  O   UNL     1      -6.231   6.457   2.740  0.00  0.00    -0.153 OA
ATOM     25  O   UNL     1      -7.335   6.790   0.533  0.00  0.00    -0.153 OA
BRANCH  23  26
ATOM     26  N   UNL     1      -8.294   5.217   2.180  0.00  0.00    -0.187 NA
ATOM     27  H   UNL     1      -9.156   5.417   1.783  0.00  0.00    +0.148 HD
BRANCH  26  28
ATOM     28  C   UNL     1      -8.202   4.262   3.287  0.00  0.00    +0.073 C 
ATOM     29  C   UNL     1      -8.479   4.983   4.608  0.00  0.00    +0.025 C 
BRANCH  28  31
ATOM     30  C   UNL     1      -8.883   2.348   1.832  0.00  0.00    +0.005 C 
ATOM     31  C   UNL     1      -9.233   3.149   3.088  0.00  0.00    +0.017 C 
ENDBRANCH  28  31
ENDBRANCH  26  28
ENDBRANCH  23  26
ENDBRANCH   1  23
TORSDOF 6
