REMARK  Name = ZINC39637234
REMARK  6 active torsions:
REMARK  status: ('A' for Active; 'I' for Inactive)
REMARK    1  A    between atoms: C_1  and  C_2
REMARK    2  A    between atoms: C_7  and  N_12
REMARK    3  A    between atoms: C_9  and  C_11
REMARK    4  A    between atoms: C_13  and  C_15
REMARK    5  A    between atoms: C_26  and  C_28
REMARK    6  A    between atoms: C_30  and  C_35
REMARK                            x       y       z     vdW  Elec       q    Type
REMARK                         _______ _______ _______ _____ _____    ______ ____
ROOT
ATOM      1  C   UNL     1      -2.015  -4.102   2.289  0.00  0.00    +0.100 C 
ATOM      2  C   UNL     1      -3.117  -3.324   3.042  0.00  0.00    +0.121 C 
ATOM      3  N   UNL     1      -4.007  -4.374   3.591  0.00  0.00    -0.296 N 
ATOM      4  C   UNL     1      -3.083  -5.445   4.035  0.00  0.00    +0.115 C 
ATOM      5  C   UNL     1      -1.995  -5.493   2.945  0.00  0.00    -0.004 C 
ATOM      6  C   UNL     1      -0.631  -5.761   3.573  0.00  0.00    -0.010 C 
ATOM      7  C   UNL     1      -0.616  -7.173   4.167  0.00  0.00    -0.082 C 
ATOM      8  N   UNL     1      -0.893  -8.153   3.111  0.00  0.00    +0.379 N 
ATOM      9  C   UNL     1      -2.244  -7.946   2.576  0.00  0.00    -0.082 C 
ATOM     10  C   UNL     1      -2.327  -6.568   1.914  0.00  0.00    -0.010 C 
ATOM     11  C   UNL     1      -5.353  -4.359   3.670  0.00  0.00    +0.247 C 
ATOM     12  O   UNL     1      -5.981  -3.451   3.160  0.00  0.00    -0.270 OA
ATOM     13  H   UNL     1      -0.218  -8.045   2.368  0.00  0.00    -0.086 HD
ATOM     14  H   UNL     1      -0.823  -9.085   3.492  0.00  0.00    -0.086 HD
ENDROOT
BRANCH  11  15
ATOM     15  C   UNL     1      -6.064  -5.445   4.376  0.00  0.00    +0.040 A 
ATOM     16  C   UNL     1      -7.407  -5.702   4.095  0.00  0.00    +0.025 A 
ATOM     17  C   UNL     1      -8.067  -6.717   4.756  0.00  0.00    +0.058 A 
ATOM     18  C   UNL     1      -7.401  -7.481   5.698  0.00  0.00    +0.050 A 
ATOM     19  C   UNL     1      -6.068  -7.232   5.983  0.00  0.00    +0.125 A 
ATOM     20  C   UNL     1      -5.395  -6.221   5.322  0.00  0.00    +0.051 A 
ATOM     21  F   UNL     1      -5.424  -7.982   6.904  0.00  0.00    -0.205 F 
BRANCH  17  22
ATOM     22  C   UNL     1      -9.517  -6.994   4.453  0.00  0.00    +0.418 C 
ATOM     23  F   UNL     1      -9.606  -7.928   3.415  0.00  0.00    -0.166 F 
ATOM     24  F   UNL     1     -10.143  -7.505   5.595  0.00  0.00    -0.166 F 
ATOM     25  F   UNL     1     -10.147  -5.807   4.067  0.00  0.00    -0.166 F 
ENDBRANCH  17  22
ENDBRANCH  11  15
BRANCH   1  27
ATOM     26  N   UNL     1       0.245  -3.496   1.485  0.00  0.00    -0.312 N 
ATOM     27  C   UNL     1      -0.681  -3.421   2.462  0.00  0.00    +0.218 C 
ATOM     28  O   UNL     1      -0.442  -2.806   3.479  0.00  0.00    -0.275 OA
ATOM     29  H   UNL     1       0.053  -3.988   0.672  0.00  0.00    +0.149 HD
BRANCH  26  35
ATOM     30  C   UNL     1       2.921  -3.511  -1.877  0.00  0.00    +0.008 C 
ATOM     31  C   UNL     1       2.325  -3.824  -0.503  0.00  0.00    -0.009 C 
ATOM     32  C   UNL     1       3.273  -4.747   0.266  0.00  0.00    +0.003 C 
ATOM     33  C   UNL     1       2.678  -5.059   1.640  0.00  0.00    +0.002 C 
ATOM     34  C   UNL     1       2.489  -3.757   2.422  0.00  0.00    +0.022 C 
ATOM     35  C   UNL     1       1.541  -2.834   1.653  0.00  0.00    +0.076 C 
ATOM     36  C   UNL     1       2.136  -2.522   0.279  0.00  0.00    +0.009 C 
ATOM     37  C   UNL     1       1.188  -1.599  -0.490  0.00  0.00    +0.009 C 
ENDBRANCH  26  35
ENDBRANCH   1  27
TORSDOF 4
