REMARK  Name = ZINC30982584
REMARK  9 active torsions:
REMARK  status: ('A' for Active; 'I' for Inactive)
REMARK    1  A    between atoms: C_1  and  C_2
REMARK    2  A    between atoms: C_2  and  C_4
REMARK    3  A    between atoms: C_2  and  N_10
REMARK    4  A    between atoms: C_11  and  C_13
REMARK    5  A    between atoms: C_18  and  N_19
REMARK    6  A    between atoms: C_20  and  C_22
REMARK    7  A    between atoms: N_25  and  C_28
REMARK    8  A    between atoms: C_28  and  C_29
REMARK    9  A    between atoms: C_31  and  C_34
REMARK                            x       y       z     vdW  Elec       q    Type
REMARK                         _______ _______ _______ _____ _____    ______ ____
ROOT
ATOM      1  N   UNL     1       1.154   3.462   0.006  0.00  0.00    -0.285 N 
ATOM      2  C   UNL     1      -0.021   4.114   0.116  0.00  0.00    +0.220 C 
ATOM      3  O   UNL     1      -1.045   3.491   0.300  0.00  0.00    -0.275 OA
ATOM      4  H   UNL     1       2.092   4.030  -0.075  0.00  0.00    +0.155 HD
ENDROOT
BRANCH   2   5
ATOM      5  C   UNL     1      -0.062   5.616   0.009  0.00  0.00    +0.072 C 
ATOM      6  C   UNL     1       0.800   6.231   1.116  0.00  0.00    -0.006 C 
ATOM      7  C   UNL     1       0.706   7.757   1.040  0.00  0.00    -0.077 C 
ATOM      8  N   UNL     1      -0.694   8.171   1.198  0.00  0.00    +0.386 N 
ATOM      9  C   UNL     1      -1.532   7.631   0.120  0.00  0.00    -0.077 C 
ATOM     10  C   UNL     1      -1.505   6.101   0.168  0.00  0.00    -0.006 C 
ATOM     11  H   UNL     1      -1.062   7.755   2.148  0.00  0.00    -0.081 HD
BRANCH   8  12
ATOM     12  C   UNL     1      -0.806   9.634   1.269  0.00  0.00    +0.022 C 
BRANCH  12  13
ATOM     13  C   UNL     1      -0.137  10.128   2.526  0.00  0.00    +0.211 A 
ATOM     14  N   UNL     1       1.119  10.478   2.652  0.00  0.00    -0.193 NA
ATOM     15  C   UNL     1       1.264  10.850   3.944  0.00  0.00    +0.202 A 
ATOM     16  N   UNL     1       0.099  10.705   4.521  0.00  0.00    -0.056 NA
ATOM     17  O   UNL     1      -0.714  10.297   3.719  0.00  0.00    -0.340 OA
BRANCH  15  18
ATOM     18  C   UNL     1       2.512  11.331   4.587  0.00  0.00    +0.023 A 
ATOM     19  C   UNL     1       3.688  11.429   3.845  0.00  0.00    +0.014 A 
ATOM     20  C   UNL     1       4.844  11.882   4.446  0.00  0.00    +0.039 A 
ATOM     21  C   UNL     1       4.840  12.229   5.788  0.00  0.00    +0.123 A 
ATOM     22  C   UNL     1       3.675  12.128   6.530  0.00  0.00    +0.039 A 
ATOM     23  C   UNL     1       2.512  11.681   5.936  0.00  0.00    +0.014 A 
ATOM     24  F   UNL     1       5.976  12.667   6.373  0.00  0.00    -0.205 F 
ENDBRANCH  15  18
ENDBRANCH  12  13
ENDBRANCH   8  12
ENDBRANCH   2   5
BRANCH   1  30
ATOM     25  C   UNL     1       2.244   1.379   0.590  0.00  0.00    +0.058 A 
ATOM     26  C   UNL     1       2.259  -0.018   0.571  0.00  0.00    +0.015 A 
ATOM     27  C   UNL     1       1.229  -0.707  -0.032  0.00  0.00    +0.001 A 
ATOM     28  C   UNL     1       0.178  -0.022  -0.620  0.00  0.00    +0.002 A 
ATOM     29  C   UNL     1       0.150   1.358  -0.609  0.00  0.00    +0.024 A 
ATOM     30  C   UNL     1       1.179   2.069  -0.006  0.00  0.00    +0.046 A 
BRANCH  25  32
ATOM     31  N   UNL     1       4.313   1.458   1.893  0.00  0.00    -0.305 N 
ATOM     32  C   UNL     1       3.344   2.123   1.234  0.00  0.00    +0.246 C 
ATOM     33  O   UNL     1       3.375   3.337   1.171  0.00  0.00    -0.270 OA
ATOM     34  H   UNL     1       4.284   0.359   1.951  0.00  0.00    +0.150 HD
BRANCH  31  36
ATOM     35  C   UNL     1       6.501   2.479   1.504  0.00  0.00    +0.033 C 
ATOM     36  C   UNL     1       5.404   2.197   2.533  0.00  0.00    +0.100 C 
BRANCH  36  37
ATOM     37  C   UNL     1       5.973   1.376   3.661  0.00  0.00    -0.027 A 
ATOM     38  C   UNL     1       6.129   0.010   3.512  0.00  0.00    +0.005 A 
ATOM     39  C   UNL     1       6.656  -0.742   4.545  0.00  0.00    +0.000 A 
ATOM     40  C   UNL     1       7.017  -0.131   5.731  0.00  0.00    +0.000 A 
ATOM     41  C   UNL     1       6.856   1.234   5.882  0.00  0.00    +0.000 A 
ATOM     42  C   UNL     1       6.334   1.987   4.847  0.00  0.00    +0.005 A 
ENDBRANCH  36  37
ENDBRANCH  31  36
ENDBRANCH  25  32
ENDBRANCH   1  30
TORSDOF 8
