REMARK  Name = ZINC12376102
REMARK  6 active torsions:
REMARK  status: ('A' for Active; 'I' for Inactive)
REMARK    1  A    between atoms: C_4  and  C_7
REMARK    2  A    between atoms: C_9  and  C_34
REMARK    3  A    between atoms: C_10  and  N_33
REMARK    4  A    between atoms: C_22  and  S_24
REMARK    5  A    between atoms: S_24  and  C_25
REMARK    6  A    between atoms: C_25  and  C_26
REMARK                            x       y       z     vdW  Elec       q    Type
REMARK                         _______ _______ _______ _____ _____    ______ ____
ROOT
ATOM      1  C   UNL     1       3.808   1.845  -0.497  0.00  0.00    +0.097 C 
ATOM      2  C   UNL     1       4.742   1.158  -1.448  0.00  0.00    +0.077 C 
ATOM      3  C   UNL     1       4.412  -0.028  -2.022  0.00  0.00    +0.108 C 
ATOM      4  N   UNL     1       3.199  -0.617  -1.744  0.00  0.00    -0.237 N 
ATOM      5  C   UNL     1       2.167   0.126  -1.232  0.00  0.00    +0.026 C 
ATOM      6  C   UNL     1       2.404   1.310  -0.629  0.00  0.00    +0.025 C 
ATOM      7  C   UNL     1       1.351   2.078  -0.101  0.00  0.00    +0.162 C 
ATOM      8  O   UNL     1       1.597   3.148   0.419  0.00  0.00    -0.292 OA
ATOM      9  C   UNL     1      -0.073   1.599  -0.169  0.00  0.00    +0.080 C 
ATOM     10  C   UNL     1      -0.084   0.067  -0.184  0.00  0.00    +0.014 C 
ATOM     11  C   UNL     1       0.763  -0.411  -1.365  0.00  0.00    +0.052 C 
ATOM     12  C   UNL     1       3.020  -1.977  -1.982  0.00  0.00    +0.194 A 
ATOM     13  N   UNL     1       2.633  -2.604  -3.082  0.00  0.00    -0.124 NA
ATOM     14  N   UNL     1       2.520  -3.859  -3.131  0.00  0.00    -0.133 NA
ATOM     15  C   UNL     1       2.784  -4.628  -2.084  0.00  0.00    +0.160 A 
ATOM     16  S   UNL     1       3.256  -3.378  -0.892  0.00  0.00    -0.024 S 
ENDROOT
BRANCH   1  20
ATOM     17  C   UNL     1       5.173   1.220   3.502  0.00  0.00    +0.000 A 
ATOM     18  C   UNL     1       5.098   2.502   2.990  0.00  0.00    +0.000 A 
ATOM     19  C   UNL     1       4.655   2.704   1.696  0.00  0.00    +0.004 A 
ATOM     20  C   UNL     1       4.290   1.625   0.914  0.00  0.00    -0.035 A 
ATOM     21  C   UNL     1       4.361   0.343   1.428  0.00  0.00    +0.004 A 
ATOM     22  C   UNL     1       4.807   0.140   2.720  0.00  0.00    +0.000 A 
ENDBRANCH   1  20
BRANCH   3  23
ATOM     23  N   UNL     1       5.291  -0.641  -2.884  0.00  0.00    -0.345 N 
ATOM     24  H   UNL     1       6.106  -0.187  -3.149  0.00  0.00    +0.144 HD
ATOM     25  H   UNL     1       5.096  -1.527  -3.226  0.00  0.00    +0.144 HD
ENDBRANCH   3  23
BRANCH   2  26
ATOM     26  C   UNL     1       6.004   1.762  -1.754  0.00  0.00    +0.099 C 
ATOM     27  N   UNL     1       7.005   2.240  -1.998  0.00  0.00    -0.191 NA
ENDBRANCH   2  26
BRANCH  15  28
ATOM     28  S   UNL     1       2.701  -6.380  -1.916  0.00  0.00    -0.092 S 
BRANCH  28  29
ATOM     29  C   UNL     1       2.153  -6.952  -3.547  0.00  0.00    +0.113 C 
BRANCH  29  30
ATOM     30  C   UNL     1       2.040  -8.455  -3.541  0.00  0.00    -0.019 A 
ATOM     31  C   UNL     1       3.127  -9.232  -3.895  0.00  0.00    +0.006 A 
ATOM     32  C   UNL     1       3.024 -10.610  -3.885  0.00  0.00    +0.000 A 
ATOM     33  C   UNL     1       1.831 -11.213  -3.529  0.00  0.00    +0.001 A 
ATOM     34  C   UNL     1       0.743 -10.437  -3.180  0.00  0.00    +0.020 A 
ATOM     35  C   UNL     1       0.846  -9.057  -3.185  0.00  0.00    +0.045 A 
ATOM     36 CL   UNL     1      -0.521  -8.082  -2.747  0.00  0.00    -0.083 Cl
ENDBRANCH  29  30
ENDBRANCH  28  29
ENDBRANCH  15  28
TORSDOF 6
