REMARK  Name = ZINC33009313
REMARK  8 active torsions:
REMARK  status: ('A' for Active; 'I' for Inactive)
REMARK    1  A    between atoms: C_1  and  C_2
REMARK    2  A    between atoms: C_2  and  C_3
REMARK    3  A    between atoms: C_6  and  N_9
REMARK    4  A    between atoms: N_12  and  C_13
REMARK    5  A    between atoms: C_15  and  N_24
REMARK    6  A    between atoms: C_18  and  N_19
REMARK    7  A    between atoms: C_25  and  C_27
REMARK    8  A    between atoms: C_30  and  C_33
REMARK                            x       y       z     vdW  Elec       q    Type
REMARK                         _______ _______ _______ _____ _____    ______ ____
ROOT
ATOM      1  C   UNL     1       1.327   2.983   0.408  0.00  0.00    +0.058 A 
ATOM      2  C   UNL     1       0.261   3.787   0.780  0.00  0.00    +0.048 A 
ATOM      3  C   UNL     1      -0.967   3.215   1.083  0.00  0.00    +0.036 A 
ATOM      4  C   UNL     1      -1.129   1.837   1.009  0.00  0.00    +0.025 A 
ATOM      5  C   UNL     1      -0.067   1.033   0.644  0.00  0.00    +0.027 A 
ATOM      6  C   UNL     1       1.162   1.600   0.340  0.00  0.00    +0.051 A 
ENDROOT
BRANCH   1  10
ATOM      7  N   UNL     1       3.810   5.334  -0.764  0.00  0.00    -0.269 N 
ATOM      8  C   UNL     1       2.627   4.813  -0.385  0.00  0.00    +0.308 C 
ATOM      9  O   UNL     1       1.612   5.476  -0.481  0.00  0.00    -0.252 OA
ATOM     10  N   UNL     1       2.568   3.558   0.102  0.00  0.00    -0.267 N 
ATOM     11  H   UNL     1       4.717   4.711  -0.745  0.00  0.00    +0.156 HD
ATOM     12  H   UNL     1       3.493   2.985   0.259  0.00  0.00    +0.156 HD
BRANCH   7  16
ATOM     13  C   UNL     1       4.036   9.303  -2.012  0.00  0.00    -0.048 A 
ATOM     14  C   UNL     1       5.078   8.745  -1.293  0.00  0.00    +0.005 A 
ATOM     15  C   UNL     1       5.006   7.430  -0.878  0.00  0.00    +0.023 A 
ATOM     16  C   UNL     1       3.886   6.667  -1.183  0.00  0.00    +0.035 A 
ATOM     17  C   UNL     1       2.845   7.228  -1.911  0.00  0.00    +0.023 A 
ATOM     18  C   UNL     1       2.920   8.546  -2.318  0.00  0.00    +0.005 A 
BRANCH  13  20
ATOM     19  C   UNL     1       4.769  10.803  -3.846  0.00  0.00    +0.009 C 
ATOM     20  C   UNL     1       4.118  10.738  -2.463  0.00  0.00    +0.032 C 
ENDBRANCH  13  20
ENDBRANCH   7  16
ENDBRANCH   1  10
BRANCH   6  21
ATOM     21  N   UNL     1       2.237   0.783  -0.036  0.00  0.00    -0.328 N 
ATOM     22  C   UNL     1       1.840  -0.648  -0.047  0.00  0.00    +0.105 C 
ATOM     23  C   UNL     1       2.911  -1.306  -0.954  0.00  0.00    +0.020 C 
ATOM     24  C   UNL     1       3.146  -0.235  -2.044  0.00  0.00    +0.020 C 
ATOM     25  C   UNL     1       2.679   1.090  -1.413  0.00  0.00    +0.105 C 
ENDBRANCH   6  21
BRANCH   3  26
ATOM     26  N   UNL     1      -2.044   4.027   1.459  0.00  0.00    -0.281 N 
ATOM     27  C   UNL     1      -2.926   3.593   2.381  0.00  0.00    +0.248 C 
ATOM     28  O   UNL     1      -2.836   2.465   2.825  0.00  0.00    -0.270 OA
ATOM     29  H   UNL     1      -2.171   5.019   1.001  0.00  0.00    +0.155 HD
BRANCH  27  30
ATOM     30  C   UNL     1      -4.002   4.489   2.854  0.00  0.00    +0.037 A 
ATOM     31  C   UNL     1      -4.104   5.788   2.352  0.00  0.00    +0.013 A 
ATOM     32  C   UNL     1      -5.114   6.617   2.794  0.00  0.00    +0.004 A 
ATOM     33  C   UNL     1      -6.017   6.169   3.741  0.00  0.00    -0.050 A 
ATOM     34  C   UNL     1      -5.918   4.885   4.247  0.00  0.00    +0.004 A 
ATOM     35  C   UNL     1      -4.917   4.043   3.810  0.00  0.00    +0.013 A 
ATOM     36  C   UNL     1      -7.114   7.083   4.223  0.00  0.00    +0.044 C 
ENDBRANCH  27  30
ENDBRANCH   3  26
TORSDOF 6
