REMARK  Name = ZINC09236853
REMARK  7 active torsions:
REMARK  status: ('A' for Active; 'I' for Inactive)
REMARK    1  A    between atoms: C_1  and  C_2
REMARK    2  A    between atoms: C_4  and  N_9
REMARK    3  A    between atoms: C_10  and  C_12
REMARK    4  A    between atoms: C_14  and  C_24
REMARK    5  A    between atoms: C_18  and  C_23
REMARK    6  A    between atoms: C_27  and  O_30
REMARK    7  A    between atoms: O_30  and  C_31
REMARK                            x       y       z     vdW  Elec       q    Type
REMARK                         _______ _______ _______ _____ _____    ______ ____
ROOT
ATOM      1  C   UNL     1       2.448   1.219  -0.078  0.00  0.00    +0.166 C 
ATOM      2  C   UNL     1       3.397   2.037  -0.964  0.00  0.00    +0.140 C 
ATOM      3  N   UNL     1       4.682   1.353  -1.106  0.00  0.00    -0.272 N 
ATOM      4  N   UNL     1       5.321   1.140   0.073  0.00  0.00    -0.225 N 
ATOM      5  C   UNL     1       6.653   0.913   0.270  0.00  0.00    +0.148 A 
ATOM      6  N   UNL     1       6.833   0.742   1.551  0.00  0.00    -0.132 NA
ATOM      7  N   UNL     1       5.710   0.849   2.175  0.00  0.00    -0.121 NA
ATOM      8  C   UNL     1       4.759   1.097   1.318  0.00  0.00    +0.209 A 
ATOM      9  S   UNL     1       3.041   1.343   1.636  0.00  0.00    -0.069 S 
ATOM     10  C   UNL     1       7.719   0.869  -0.795  0.00  0.00    +0.090 C 
ATOM     11  H   UNL     1       5.280   1.837  -1.759  0.00  0.00    +0.167 HD
ENDROOT
BRANCH   2  12
ATOM     12  C   UNL     1       2.775   2.218  -2.325  0.00  0.00    -0.024 A 
ATOM     13  C   UNL     1       2.845   1.199  -3.256  0.00  0.00    +0.009 A 
ATOM     14  C   UNL     1       2.271   1.360  -4.503  0.00  0.00    +0.046 A 
ATOM     15  C   UNL     1       1.635   2.550  -4.824  0.00  0.00    +0.120 A 
ATOM     16  C   UNL     1       1.571   3.574  -3.889  0.00  0.00    +0.046 A 
ATOM     17  C   UNL     1       2.141   3.405  -2.642  0.00  0.00    +0.009 A 
BRANCH  15  18
ATOM     18  O   UNL     1       1.075   2.714  -6.051  0.00  0.00    -0.495 OA
ATOM     19  C   UNL     1       1.179   1.618  -6.963  0.00  0.00    +0.277 C 
ENDBRANCH  15  18
ENDBRANCH   2  12
BRANCH   1  21
ATOM     20  N   UNL     1      -0.011   0.966   0.007  0.00  0.00    -0.285 N 
ATOM     21  C   UNL     1       1.051   1.775  -0.176  0.00  0.00    +0.233 C 
ATOM     22  O   UNL     1       0.882   2.951  -0.421  0.00  0.00    -0.274 OA
ATOM     23  H   UNL     1       0.121   0.012   0.126  0.00  0.00    +0.155 HD
BRANCH  20  27
ATOM     24  C   UNL     1      -4.801   0.486  -0.992  0.00  0.00    +0.045 C 
ATOM     25  C   UNL     1      -3.645   1.290  -0.457  0.00  0.00    -0.035 A 
ATOM     26  C   UNL     1      -2.368   0.762  -0.477  0.00  0.00    +0.027 A 
ATOM     27  C   UNL     1      -1.304   1.501   0.022  0.00  0.00    +0.034 A 
ATOM     28  C   UNL     1      -1.525   2.774   0.531  0.00  0.00    +0.024 A 
ATOM     29  C   UNL     1      -2.802   3.300   0.544  0.00  0.00    +0.017 A 
ATOM     30  C   UNL     1      -3.861   2.559   0.051  0.00  0.00    +0.021 A 
ATOM     31 BR   UNL     1      -5.608   3.282   0.070  0.00  0.00    -0.050 Br
ENDBRANCH  20  27
ENDBRANCH   1  21
TORSDOF 4
