REMARK  Name = ZINC02962134
REMARK  8 active torsions:
REMARK  status: ('A' for Active; 'I' for Inactive)
REMARK    1  A    between atoms: C_1  and  C_2
REMARK    2  A    between atoms: C_2  and  O_3
REMARK    3  A    between atoms: O_3  and  C_4
REMARK    4  A    between atoms: C_16  and  C_28
REMARK    5  A    between atoms: C_16  and  C_29
REMARK    6  A    between atoms: C_18  and  C_20
REMARK    7  A    between atoms: C_20  and  S_21
REMARK    8  A    between atoms: S_21  and  C_22
REMARK                            x       y       z     vdW  Elec       q    Type
REMARK                         _______ _______ _______ _____ _____    ______ ____
ROOT
ATOM      1  C   UNL     1      -5.076  -3.808  -0.086  0.00  0.00    +0.121 A 
ATOM      2  C   UNL     1      -4.003  -3.045   0.354  0.00  0.00    +0.047 A 
ATOM      3  C   UNL     1      -2.724  -3.571   0.376  0.00  0.00    +0.028 A 
ATOM      4  C   UNL     1      -2.509  -4.875  -0.045  0.00  0.00    +0.045 A 
ATOM      5  C   UNL     1      -3.591  -5.644  -0.472  0.00  0.00    +0.009 A 
ATOM      6  C   UNL     1      -4.872  -5.117  -0.503  0.00  0.00    +0.056 A 
ATOM      7  C   UNL     1      -3.351  -7.082  -0.880  0.00  0.00    +0.018 A 
ATOM      8  C   UNL     1      -2.112  -7.606  -0.555  0.00  0.00    +0.029 A 
ATOM      9  S   UNL     1      -1.976  -9.245  -1.101  0.00  0.00    -0.053 S 
ATOM     10  S   UNL     1      -3.895  -9.391  -1.918  0.00  0.00    -0.044 S 
ATOM     11  C   UNL     1      -4.399  -7.776  -1.530  0.00  0.00    +0.071 A 
ATOM     12  S   UNL     1      -5.940  -7.118  -1.883  0.00  0.00    -0.043 S 
ATOM     13  C   UNL     1      -1.036  -6.856   0.184  0.00  0.00    +0.069 C 
ATOM     14  N   UNL     1      -1.216  -5.416  -0.045  0.00  0.00    -0.260 N 
ATOM     15  C   UNL     1      -0.147  -4.623  -0.260  0.00  0.00    +0.231 C 
ATOM     16  O   UNL     1       0.964  -5.106  -0.319  0.00  0.00    -0.274 OA
ATOM     17  C   UNL     1       0.338  -7.290  -0.330  0.00  0.00    +0.037 C 
ATOM     18  C   UNL     1      -1.145  -7.154   1.681  0.00  0.00    +0.037 C 
ENDROOT
BRANCH   1  19
ATOM     19  O   UNL     1      -6.326  -3.274  -0.109  0.00  0.00    -0.492 OA
BRANCH  19  21
ATOM     20  C   UNL     1      -7.929  -1.499   0.237  0.00  0.00    +0.048 C 
ATOM     21  C   UNL     1      -6.462  -1.923   0.334  0.00  0.00    +0.225 C 
ENDBRANCH  19  21
ENDBRANCH   1  19
BRANCH  15  22
ATOM     22  C   UNL     1      -0.333  -3.137  -0.428  0.00  0.00    +0.172 C 
BRANCH  22  23
ATOM     23  S   UNL     1       1.129  -2.433  -1.239  0.00  0.00    -0.088 S 
BRANCH  23  24
ATOM     24  C   UNL     1       0.762  -0.714  -1.360  0.00  0.00    +0.160 A 
ATOM     25  N   UNL     1      -0.312  -0.058  -0.965  0.00  0.00    -0.133 NA
ATOM     26  N   UNL     1      -0.394   1.301  -1.159  0.00  0.00    -0.125 NA
ATOM     27  C   UNL     1       0.601   1.943  -1.739  0.00  0.00    +0.180 A 
ATOM     28  S   UNL     1       1.746   0.608  -2.051  0.00  0.00    -0.025 S 
ATOM     29  N   UNL     1       0.726   3.296  -2.030  0.00  0.00    -0.336 N 
ATOM     30  H   UNL     1       0.012   3.910  -1.799  0.00  0.00    +0.144 HD
ATOM     31  H   UNL     1       1.527   3.627  -2.466  0.00  0.00    +0.144 HD
ENDBRANCH  23  24
ENDBRANCH  22  23
ENDBRANCH  15  22
TORSDOF 5
