REMARK  Name = ZINC62214258
REMARK  7 active torsions:
REMARK  status: ('A' for Active; 'I' for Inactive)
REMARK    1  A    between atoms: C_1  and  N_2
REMARK    2  A    between atoms: N_5  and  C_8
REMARK    3  A    between atoms: C_11  and  N_14
REMARK    4  A    between atoms: C_15  and  C_17
REMARK    5  A    between atoms: C_17  and  N_18
REMARK    6  A    between atoms: C_19  and  C_21
REMARK    7  A    between atoms: C_24  and  C_26
REMARK                            x       y       z     vdW  Elec       q    Type
REMARK                         _______ _______ _______ _____ _____    ______ ____
ROOT
ATOM      1  N   UNL     1       5.019  -6.555  -0.101  0.00  0.00    -0.284 N 
ATOM      2  C   UNL     1       5.499  -7.050   1.058  0.00  0.00    +0.234 C 
ATOM      3  O   UNL     1       5.024  -6.690   2.114  0.00  0.00    -0.274 OA
ATOM      4  H   UNL     1       5.343  -6.901  -0.947  0.00  0.00    +0.155 HD
ENDROOT
BRANCH   1   8
ATOM      5  C   UNL     1       2.137  -3.541  -0.046  0.00  0.00    +0.030 A 
ATOM      6  C   UNL     1       3.124  -3.575   0.930  0.00  0.00    +0.025 A 
ATOM      7  C   UNL     1       4.078  -4.574   0.912  0.00  0.00    +0.025 A 
ATOM      8  C   UNL     1       4.050  -5.542  -0.082  0.00  0.00    +0.034 A 
ATOM      9  C   UNL     1       3.063  -5.508  -1.058  0.00  0.00    +0.025 A 
ATOM     10  C   UNL     1       2.106  -4.513  -1.036  0.00  0.00    +0.025 A 
BRANCH   5  15
ATOM     11  C   UNL     1      -0.162   1.326  -0.960  0.00  0.00    -0.096 C 
ATOM     12  N   UNL     1      -0.050  -0.054  -0.470  0.00  0.00    +0.380 N 
ATOM     13  C   UNL     1       0.180  -0.957  -1.605  0.00  0.00    -0.060 C 
ATOM     14  C   UNL     1       0.183  -2.407  -1.111  0.00  0.00    +0.086 C 
ATOM     15  N   UNL     1       1.171  -2.529  -0.028  0.00  0.00    -0.333 N 
ATOM     16  C   UNL     1       1.114  -1.557   1.075  0.00  0.00    +0.086 C 
ATOM     17  C   UNL     1       1.067  -0.147   0.478  0.00  0.00    -0.060 C 
ATOM     18  H   UNL     1      -0.907  -0.315  -0.005  0.00  0.00    -0.082 HD
ENDBRANCH   5  15
ENDBRANCH   1   8
BRANCH   2  19
ATOM     19  C   UNL     1       6.625  -8.050   1.040  0.00  0.00    +0.200 C 
BRANCH  19  20
ATOM     20  N   UNL     1       6.963  -8.430   2.414  0.00  0.00    -0.306 N 
ATOM     21  C   UNL     1       7.948  -9.320   2.645  0.00  0.00    +0.217 C 
ATOM     22  O   UNL     1       8.556  -9.806   1.715  0.00  0.00    -0.275 OA
ATOM     23  H   UNL     1       6.476  -8.042   3.158  0.00  0.00    +0.149 HD
BRANCH  21  24
ATOM     24  C   UNL     1       8.295  -9.711   4.059  0.00  0.00    +0.083 C 
ATOM     25  C   UNL     1       7.968 -11.140   4.497  0.00  0.00    +0.022 C 
ATOM     26  C   UNL     1       9.422 -10.727   4.254  0.00  0.00    +0.032 C 
BRANCH  26  27
ATOM     27  C   UNL     1      10.101 -11.260   3.019  0.00  0.00    -0.044 A 
ATOM     28  C   UNL     1       9.365 -11.935   2.063  0.00  0.00    +0.004 A 
ATOM     29  C   UNL     1       9.987 -12.424   0.930  0.00  0.00    +0.000 A 
ATOM     30  C   UNL     1      11.345 -12.238   0.752  0.00  0.00    +0.000 A 
ATOM     31  C   UNL     1      12.081 -11.562   1.708  0.00  0.00    +0.000 A 
ATOM     32  C   UNL     1      11.458 -11.069   2.839  0.00  0.00    +0.004 A 
ENDBRANCH  26  27
ENDBRANCH  21  24
ENDBRANCH  19  20
ENDBRANCH   2  19
TORSDOF 6
