REMARK  Name = ZINC02520403
REMARK  7 active torsions:
REMARK  status: ('A' for Active; 'I' for Inactive)
REMARK    1  A    between atoms: C_1  and  C_2
REMARK    2  A    between atoms: C_6  and  N_8
REMARK    3  A    between atoms: C_9  and  C_11
REMARK    4  A    between atoms: C_16  and  N_17
REMARK    5  A    between atoms: C_18  and  C_20
REMARK    6  A    between atoms: N_22  and  N_23
REMARK    7  A    between atoms: C_24  and  C_25
REMARK                            x       y       z     vdW  Elec       q    Type
REMARK                         _______ _______ _______ _____ _____    ______ ____
ROOT
ATOM      1  N   UNL     1       0.590  -0.328   0.170  0.00  0.00    -0.277 N 
ATOM      2  C   UNL     1       1.724  -1.046   0.042  0.00  0.00    +0.305 C 
ATOM      3  O   UNL     1       2.799  -0.483   0.025  0.00  0.00    -0.265 OA
ATOM      4  H   UNL     1      -0.264  -0.781   0.251  0.00  0.00    +0.155 HD
ENDROOT
BRANCH   1  10
ATOM      5  C   UNL     1      -0.381   1.815  -0.402  0.00  0.00    +0.058 A 
ATOM      6  C   UNL     1      -0.317   3.211  -0.372  0.00  0.00    +0.015 A 
ATOM      7  C   UNL     1       0.756   3.837   0.224  0.00  0.00    +0.001 A 
ATOM      8  C   UNL     1       1.771   3.090   0.800  0.00  0.00    +0.002 A 
ATOM      9  C   UNL     1       1.718   1.711   0.784  0.00  0.00    +0.024 A 
ATOM     10  C   UNL     1       0.645   1.062   0.188  0.00  0.00    +0.046 A 
BRANCH   5  12
ATOM     11  N   UNL     1      -2.558   1.863  -1.514  0.00  0.00    -0.281 N 
ATOM     12  C   UNL     1      -1.524   1.139  -1.044  0.00  0.00    +0.250 C 
ATOM     13  O   UNL     1      -1.532  -0.072  -1.150  0.00  0.00    -0.270 OA
ATOM     14  H   UNL     1      -2.518   2.832  -1.502  0.00  0.00    +0.155 HD
BRANCH  11  20
ATOM     15  C   UNL     1      -6.264   1.727  -4.742  0.00  0.00    +0.044 C 
ATOM     16  C   UNL     1      -5.507   1.130  -3.584  0.00  0.00    -0.049 A 
ATOM     17  C   UNL     1      -5.933  -0.059  -3.020  0.00  0.00    +0.003 A 
ATOM     18  C   UNL     1      -5.242  -0.611  -1.957  0.00  0.00    +0.002 A 
ATOM     19  C   UNL     1      -4.122   0.024  -1.456  0.00  0.00    +0.023 A 
ATOM     20  C   UNL     1      -3.691   1.218  -2.020  0.00  0.00    +0.034 A 
ATOM     21  C   UNL     1      -4.391   1.772  -3.084  0.00  0.00    +0.026 A 
ENDBRANCH  11  20
ENDBRANCH   5  12
ENDBRANCH   1  10
BRANCH   2  22
ATOM     22  C   UNL     1       1.657  -2.529  -0.079  0.00  0.00    +0.318 C 
ATOM     23  O   UNL     1       0.580  -3.092  -0.062  0.00  0.00    -0.263 OA
ATOM     24  N   UNL     1       2.790  -3.247  -0.207  0.00  0.00    -0.199 N 
ATOM     25  H   UNL     1       3.650  -2.797  -0.221  0.00  0.00    +0.178 HD
BRANCH  24  26
ATOM     26  N   UNL     1       2.727  -4.642  -0.321  0.00  0.00    -0.187 NA
ATOM     27  C   UNL     1       3.824  -5.336  -0.445  0.00  0.00    +0.139 C 
BRANCH  27  28
ATOM     28  C   UNL     1       3.758  -6.794  -0.564  0.00  0.00    +0.010 A 
ATOM     29  C   UNL     1       4.941  -7.562  -0.583  0.00  0.00    -0.009 A 
ATOM     30  C   UNL     1       6.203  -6.954  -0.478  0.00  0.00    +0.009 A 
ATOM     31  C   UNL     1       7.324  -7.725  -0.493  0.00  0.00    +0.001 A 
ATOM     32  C   UNL     1       7.256  -9.112  -0.606  0.00  0.00    +0.001 A 
ATOM     33  C   UNL     1       6.067  -9.762  -0.706  0.00  0.00    +0.008 A 
ATOM     34  C   UNL     1       4.866  -9.020  -0.697  0.00  0.00    -0.017 A 
ATOM     35  C   UNL     1       3.628  -9.657  -0.798  0.00  0.00    +0.017 A 
ATOM     36  C   UNL     1       2.454  -8.904  -0.785  0.00  0.00    -0.017 A 
ATOM     37  C   UNL     1       2.511  -7.446  -0.667  0.00  0.00    -0.009 A 
ATOM     38  C   UNL     1       1.308  -6.718  -0.657  0.00  0.00    +0.009 A 
ATOM     39  C   UNL     1       0.123  -7.378  -0.757  0.00  0.00    +0.001 A 
ATOM     40  C   UNL     1       0.066  -8.766  -0.871  0.00  0.00    +0.001 A 
ATOM     41  C   UNL     1       1.191  -9.527  -0.886  0.00  0.00    +0.008 A 
ENDBRANCH  27  28
ENDBRANCH  24  26
ENDBRANCH   2  22
TORSDOF 6
