REMARK  Name = ZINC46777310
REMARK  12 active torsions:
REMARK  status: ('A' for Active; 'I' for Inactive)
REMARK    1  A    between atoms: C_1  and  C_2
REMARK    2  A    between atoms: C_2  and  C_4
REMARK    3  A    between atoms: C_2  and  N_19
REMARK    4  A    between atoms: C_8  and  N_10
REMARK    5  A    between atoms: C_11  and  C_13
REMARK    6  A    between atoms: C_20  and  C_22
REMARK    7  A    between atoms: C_26  and  S_28
REMARK    8  A    between atoms: S_28  and  N_31
REMARK    9  A    between atoms: N_31  and  C_32
REMARK   10  A    between atoms: C_32  and  C_33
REMARK   11  A    between atoms: C_32  and  C_34
REMARK   12  A    between atoms: C_32  and  C_35
REMARK                            x       y       z     vdW  Elec       q    Type
REMARK                         _______ _______ _______ _____ _____    ______ ____
ROOT
ATOM      1  N   UNL     1       0.681  -0.080   0.257  0.00  0.00    -0.305 N 
ATOM      2  C   UNL     1       2.014  -0.058   0.062  0.00  0.00    +0.245 C 
ATOM      3  O   UNL     1       2.475   0.473  -0.929  0.00  0.00    -0.270 OA
ATOM      4  H   UNL     1       0.313  -0.504   1.048  0.00  0.00    +0.150 HD
ENDROOT
BRANCH   2   5
ATOM      5  C   UNL     1       2.916  -0.680   1.054  0.00  0.00    +0.039 A 
ATOM      6  C   UNL     1       2.388  -1.296   2.191  0.00  0.00    +0.016 A 
ATOM      7  C   UNL     1       3.234  -1.875   3.112  0.00  0.00    +0.041 A 
ATOM      8  C   UNL     1       4.606  -1.846   2.912  0.00  0.00    +0.150 A 
ATOM      9  C   UNL     1       5.134  -1.236   1.785  0.00  0.00    +0.141 A 
ATOM     10  C   UNL     1       4.297  -0.659   0.854  0.00  0.00    +0.044 A 
ATOM     11  F   UNL     1       5.430  -2.415   3.819  0.00  0.00    -0.203 F 
BRANCH   9  12
ATOM     12  S   UNL     1       6.879  -1.203   1.539  0.00  0.00    +0.062 S 
ATOM     13  O   UNL     1       7.340  -2.535   1.724  0.00  0.00    -0.153 OA
ATOM     14  O   UNL     1       7.106  -0.478   0.339  0.00  0.00    -0.153 OA
BRANCH  12  15
ATOM     15  N   UNL     1       7.530  -0.303   2.767  0.00  0.00    -0.185 NA
ATOM     16  H   UNL     1       8.101  -0.725   3.428  0.00  0.00    +0.149 HD
BRANCH  15  17
ATOM     17  C   UNL     1       7.243   1.131   2.856  0.00  0.00    +0.032 C 
ATOM     18  C   UNL     1       5.750   1.337   3.122  0.00  0.00    +0.029 C 
ATOM     19  C   UNL     1       8.054   1.744   3.999  0.00  0.00    +0.029 C 
ATOM     20  C   UNL     1       7.625   1.810   1.539  0.00  0.00    +0.029 C 
ENDBRANCH  15  17
ENDBRANCH  12  15
ENDBRANCH   9  12
ENDBRANCH   2   5
BRANCH   1  22
ATOM     21  C   UNL     1      -0.342   2.033  -0.431  0.00  0.00    +0.033 C 
ATOM     22  C   UNL     1      -0.213   0.537  -0.726  0.00  0.00    +0.100 C 
BRANCH  22  23
ATOM     23  C   UNL     1      -1.572  -0.110  -0.645  0.00  0.00    -0.026 A 
ATOM     24  C   UNL     1      -2.113  -0.429   0.587  0.00  0.00    +0.005 A 
ATOM     25  C   UNL     1      -3.359  -1.023   0.666  0.00  0.00    +0.002 A 
ATOM     26  C   UNL     1      -4.069  -1.298  -0.487  0.00  0.00    +0.023 A 
ATOM     27  C   UNL     1      -3.529  -0.979  -1.726  0.00  0.00    +0.034 A 
ATOM     28  C   UNL     1      -2.278  -0.378  -1.801  0.00  0.00    +0.028 A 
BRANCH  27  29
ATOM     29  N   UNL     1      -4.244  -1.256  -2.894  0.00  0.00    -0.281 N 
ATOM     30  C   UNL     1      -5.590  -1.187  -2.893  0.00  0.00    +0.248 C 
ATOM     31  O   UNL     1      -6.178  -0.793  -1.904  0.00  0.00    -0.270 OA
ATOM     32  H   UNL     1      -3.772  -1.498  -3.706  0.00  0.00    +0.155 HD
BRANCH  30  33
ATOM     33  C   UNL     1      -6.353  -1.591  -4.093  0.00  0.00    +0.037 A 
ATOM     34  C   UNL     1      -5.681  -2.050  -5.228  0.00  0.00    +0.013 A 
ATOM     35  C   UNL     1      -6.399  -2.425  -6.345  0.00  0.00    +0.001 A 
ATOM     36  C   UNL     1      -7.780  -2.347  -6.342  0.00  0.00    +0.000 A 
ATOM     37  C   UNL     1      -8.451  -1.893  -5.221  0.00  0.00    +0.001 A 
ATOM     38  C   UNL     1      -7.747  -1.521  -4.095  0.00  0.00    +0.013 A 
ENDBRANCH  30  33
ENDBRANCH  27  29
ENDBRANCH  22  23
ENDBRANCH   1  22
TORSDOF 8
