REMARK  Name = ZINC43640132
REMARK  6 active torsions:
REMARK  status: ('A' for Active; 'I' for Inactive)
REMARK    1  A    between atoms: C_1  and  C_2
REMARK    2  A    between atoms: C_2  and  C_3
REMARK    3  A    between atoms: C_6  and  C_8
REMARK    4  A    between atoms: C_9  and  C_15
REMARK    5  A    between atoms: C_10  and  N_14
REMARK    6  A    between atoms: N_11  and  C_13
REMARK                            x       y       z     vdW  Elec       q    Type
REMARK                         _______ _______ _______ _____ _____    ______ ____
ROOT
ATOM      1  C   UNL     1      -5.197  -1.927   1.024  0.00  0.00    +0.109 A 
ATOM      2  C   UNL     1      -5.390  -2.700   2.198  0.00  0.00    +0.049 A 
ATOM      3  C   UNL     1      -6.748  -2.932   2.316  0.00  0.00    +0.122 A 
ATOM      4  N   UNL     1      -7.356  -2.328   1.262  0.00  0.00    -0.253 N 
ATOM      5  N   UNL     1      -6.375  -1.708   0.480  0.00  0.00    -0.169 NA
ATOM      6  C   UNL     1      -8.796  -2.323   0.993  0.00  0.00    +0.174 C 
ENDROOT
BRANCH   2   7
ATOM      7  C   UNL     1      -4.335  -3.171   3.124  0.00  0.00    -0.012 A 
ATOM      8  C   UNL     1      -3.373  -4.081   2.685  0.00  0.00    +0.010 A 
ATOM      9  C   UNL     1      -2.392  -4.516   3.552  0.00  0.00    +0.020 A 
ATOM     10  C   UNL     1      -2.360  -4.051   4.856  0.00  0.00    +0.041 A 
ATOM     11  C   UNL     1      -3.313  -3.148   5.297  0.00  0.00    +0.020 A 
ATOM     12  C   UNL     1      -4.295  -2.702   4.437  0.00  0.00    +0.010 A 
ATOM     13 CL   UNL     1      -1.123  -4.603   5.941  0.00  0.00    -0.084 Cl
ENDBRANCH   2   7
BRANCH   1  17
ATOM     14  C   UNL     1      -1.412  -0.526   0.013  0.00  0.00    -0.010 A 
ATOM     15  C   UNL     1      -2.220  -0.821  -1.037  0.00  0.00    +0.012 A 
ATOM     16  C   UNL     1      -3.493  -1.291  -0.793  0.00  0.00    +0.018 A 
ATOM     17  C   UNL     1      -3.899  -1.446   0.505  0.00  0.00    +0.040 A 
ATOM     18  S   UNL     1      -2.451  -0.922   1.409  0.00  0.00    -0.092 S 
BRANCH  14  20
ATOM     19  C   UNL     1      -0.019   1.526   0.010  0.00  0.00    +0.009 C 
ATOM     20  C   UNL     1       0.002  -0.004   0.002  0.00  0.00    +0.039 C 
ENDBRANCH  14  20
ENDBRANCH   1  17
BRANCH   3  21
ATOM     21  N   UNL     1      -7.374  -3.650   3.325  0.00  0.00    -0.343 N 
ATOM     22  H   UNL     1      -6.848  -4.045   4.038  0.00  0.00    +0.144 HD
ATOM     23  H   UNL     1      -8.338  -3.756   3.318  0.00  0.00    +0.144 HD
ENDBRANCH   3  21
TORSDOF 4
