REMARK  Name = ZINC54621984
REMARK  13 active torsions:
REMARK  status: ('A' for Active; 'I' for Inactive)
REMARK    1  A    between atoms: C_1  and  C_2
REMARK    2  A    between atoms: C_5  and  C_41
REMARK    3  A    between atoms: C_6  and  N_8
REMARK    4  A    between atoms: N_8  and  C_9
REMARK    5  A    between atoms: C_12  and  C_33
REMARK    6  A    between atoms: C_14  and  C_22
REMARK    7  A    between atoms: C_16  and  C_20
REMARK    8  A    between atoms: C_16  and  O_21
REMARK    9  A    between atoms: N_24  and  C_25
REMARK   10  A    between atoms: C_27  and  C_32
REMARK   11  A    between atoms: C_30  and  C_31
REMARK   12  A    between atoms: C_36  and  O_39
REMARK   13  A    between atoms: O_39  and  C_40
REMARK                            x       y       z     vdW  Elec       q    Type
REMARK                         _______ _______ _______ _____ _____    ______ ____
ROOT
ATOM      1  C   UNL     1       0.814  -4.052   4.115  0.00  0.00    +0.248 C 
ATOM      2  O   UNL     1       0.913  -2.845   3.521  0.00  0.00    -0.270 OA
ATOM      3  C   UNL     1       0.451  -4.140   5.442  0.00  0.00    +0.065 C 
ATOM      4  C   UNL     1       0.111  -2.876   6.178  0.00  0.00    +0.072 C 
ATOM      5  C   UNL     1       0.163  -3.117   7.688  0.00  0.00    +0.119 C 
ATOM      6  C   UNL     1      -0.675  -4.358   8.017  0.00  0.00    +0.082 C 
ATOM      7  C   UNL     1       0.046  -5.594   7.476  0.00  0.00    +0.114 C 
ATOM      8  C   UNL     1       0.411  -5.387   6.034  0.00  0.00    +0.168 C 
ATOM      9  O   UNL     1       0.688  -6.360   5.359  0.00  0.00    -0.292 OA
ATOM     10  C   UNL     1      -0.837  -4.480   9.533  0.00  0.00    +0.042 C 
ENDROOT
BRANCH   4  11
ATOM     11  C   UNL     1       1.104  -1.802   5.812  0.00  0.00    -0.039 A 
ATOM     12  C   UNL     1       2.450  -2.106   5.730  0.00  0.00    +0.008 A 
ATOM     13  C   UNL     1       3.362  -1.123   5.396  0.00  0.00    +0.046 A 
ATOM     14  C   UNL     1       2.925   0.169   5.141  0.00  0.00    +0.120 A 
ATOM     15  C   UNL     1       1.574   0.471   5.223  0.00  0.00    +0.046 A 
ATOM     16  C   UNL     1       0.665  -0.516   5.553  0.00  0.00    +0.008 A 
BRANCH  14  17
ATOM     17  O   UNL     1       3.820   1.137   4.811  0.00  0.00    -0.495 OA
ATOM     18  C   UNL     1       3.299   2.444   4.563  0.00  0.00    +0.277 C 
ENDBRANCH  14  17
ENDBRANCH   4  11
BRANCH   5  19
ATOM     19  C   UNL     1       1.591  -3.340   8.115  0.00  0.00    +0.224 C 
ATOM     20  O   UNL     1       2.269  -4.175   7.555  0.00  0.00    -0.275 OA
ATOM     21  N   UNL     1       2.114  -2.611   9.121  0.00  0.00    -0.285 N 
ATOM     22  H   UNL     1       1.550  -2.002   9.624  0.00  0.00    +0.155 HD
BRANCH  21  23
ATOM     23  C   UNL     1       3.471  -2.732   9.440  0.00  0.00    +0.037 A 
ATOM     24  C   UNL     1       4.358  -3.272   8.517  0.00  0.00    +0.027 A 
ATOM     25  C   UNL     1       5.696  -3.390   8.835  0.00  0.00    -0.049 A 
ATOM     26  C   UNL     1       6.154  -2.972  10.071  0.00  0.00    +0.004 A 
ATOM     27  C   UNL     1       5.274  -2.435  10.992  0.00  0.00    +0.005 A 
ATOM     28  C   UNL     1       3.935  -2.308  10.678  0.00  0.00    -0.029 A 
ATOM     29  C   UNL     1       2.978  -1.716  11.680  0.00  0.00    +0.045 C 
ATOM     30  C   UNL     1       6.659  -3.976   7.834  0.00  0.00    +0.044 C 
ENDBRANCH  21  23
ENDBRANCH   5  19
BRANCH   1  31
ATOM     31  N   UNL     1       1.072  -5.189   3.400  0.00  0.00    -0.281 N 
ATOM     32  H   UNL     1       0.387  -5.870   3.307  0.00  0.00    +0.155 HD
BRANCH  31  38
ATOM     33  C   UNL     1       5.590  -3.502   2.448  0.00  0.00    +0.044 C 
ATOM     34  C   UNL     1       4.533  -4.568   2.326  0.00  0.00    -0.049 A 
ATOM     35  C   UNL     1       4.800  -5.729   1.623  0.00  0.00    +0.004 A 
ATOM     36  C   UNL     1       3.833  -6.710   1.508  0.00  0.00    +0.005 A 
ATOM     37  C   UNL     1       2.595  -6.534   2.096  0.00  0.00    -0.029 A 
ATOM     38  C   UNL     1       2.324  -5.370   2.803  0.00  0.00    +0.037 A 
ATOM     39  C   UNL     1       3.300  -4.389   2.921  0.00  0.00    +0.027 A 
ATOM     40  C   UNL     1       1.541  -7.604   1.970  0.00  0.00    +0.045 C 
ENDBRANCH  31  38
ENDBRANCH   1  31
BRANCH   6  41
ATOM     41  O   UNL     1      -1.960  -4.245   7.402  0.00  0.00    -0.388 OA
ATOM     42  H   UNL     1      -2.543  -4.998   7.569  0.00  0.00    +0.210 HD
ENDBRANCH   6  41
TORSDOF 7
