REMARK  Name = ZINC09124401
REMARK  6 active torsions:
REMARK  status: ('A' for Active; 'I' for Inactive)
REMARK    1  A    between atoms: C_1  and  C_2
REMARK    2  A    between atoms: C_7  and  C_12
REMARK    3  A    between atoms: C_12  and  C_13
REMARK    4  A    between atoms: C_14  and  C_31
REMARK    5  A    between atoms: C_34  and  O_37
REMARK    6  A    between atoms: O_37  and  C_38
REMARK                            x       y       z     vdW  Elec       q    Type
REMARK                         _______ _______ _______ _____ _____    ______ ____
ROOT
ATOM      1  C   UNL     1      -1.865  -6.116   3.152  0.00  0.00    +0.077 C 
ATOM      2  C   UNL     1      -0.537  -6.066   3.871  0.00  0.00    +0.152 C 
ATOM      3  N   UNL     1      -0.418  -7.335   4.598  0.00  0.00    -0.232 N 
ATOM      4  C   UNL     1      -1.525  -8.058   4.353  0.00  0.00    +0.293 C 
ATOM      5  O   UNL     1      -1.749  -9.164   4.803  0.00  0.00    -0.266 OA
ATOM      6  C   UNL     1      -2.431  -7.307   3.460  0.00  0.00    +0.250 C 
ATOM      7  O   UNL     1      -3.634  -7.740   3.019  0.00  0.00    -0.282 OA
ATOM      8  C   UNL     1       0.646  -7.720   5.395  0.00  0.00    +0.169 A 
ATOM      9  N   UNL     1       1.746  -7.060   5.675  0.00  0.00    -0.224 NA
ATOM     10  C   UNL     1       2.710  -7.563   6.477  0.00  0.00    +0.080 A 
ATOM     11  C   UNL     1       3.933  -6.960   6.855  0.00  0.00    +0.032 A 
ATOM     12  C   UNL     1       4.809  -7.612   7.683  0.00  0.00    +0.040 A 
ATOM     13  C   UNL     1       4.532  -8.881   8.178  0.00  0.00    +0.125 A 
ATOM     14  C   UNL     1       3.344  -9.500   7.827  0.00  0.00    +0.055 A 
ATOM     15  C   UNL     1       2.461  -8.852   6.999  0.00  0.00    +0.043 A 
ATOM     16  S   UNL     1       0.869  -9.238   6.311  0.00  0.00    -0.052 S 
ATOM     17  F   UNL     1       5.412  -9.503   8.992  0.00  0.00    -0.205 F 
ENDROOT
BRANCH   2  18
ATOM     18  C   UNL     1       0.586  -5.931   2.875  0.00  0.00    -0.022 A 
ATOM     19  C   UNL     1       0.957  -7.016   2.103  0.00  0.00    +0.009 A 
ATOM     20  C   UNL     1       1.987  -6.895   1.190  0.00  0.00    +0.046 A 
ATOM     21  C   UNL     1       2.649  -5.684   1.048  0.00  0.00    +0.120 A 
ATOM     22  C   UNL     1       2.274  -4.597   1.825  0.00  0.00    +0.046 A 
ATOM     23  C   UNL     1       1.241  -4.721   2.732  0.00  0.00    +0.009 A 
BRANCH  21  24
ATOM     24  O   UNL     1       3.663  -5.563   0.151  0.00  0.00    -0.495 OA
ATOM     25  C   UNL     1       4.299  -4.287   0.059  0.00  0.00    +0.277 C 
ENDBRANCH  21  24
ENDBRANCH   2  18
BRANCH   1  26
ATOM     26  C   UNL     1      -2.434  -5.074   2.292  0.00  0.00    +0.195 C 
ATOM     27  O   UNL     1      -2.593  -5.286   1.104  0.00  0.00    -0.287 OA
BRANCH  26  33
ATOM     28  C   UNL     1      -5.080   1.790   3.137  0.00  0.00    +0.052 C 
ATOM     29  C   UNL     1      -3.942   0.769   3.098  0.00  0.00    +0.175 C 
ATOM     30  C   UNL     1      -4.163  -0.255   1.959  0.00  0.00    +0.083 C 
ATOM     31  C   UNL     1      -3.637  -1.534   2.582  0.00  0.00    -0.002 A 
ATOM     32  C   UNL     1      -3.286  -2.744   2.038  0.00  0.00    +0.019 A 
ATOM     33  C   UNL     1      -2.814  -3.768   2.866  0.00  0.00    +0.023 A 
ATOM     34  C   UNL     1      -2.704  -3.545   4.242  0.00  0.00    +0.015 A 
ATOM     35  C   UNL     1      -3.062  -2.330   4.776  0.00  0.00    +0.046 A 
ATOM     36  C   UNL     1      -3.537  -1.308   3.952  0.00  0.00    +0.124 A 
ATOM     37  O   UNL     1      -3.954  -0.052   4.277  0.00  0.00    -0.488 OA
ENDBRANCH  26  33
ENDBRANCH   1  26
TORSDOF 4
