REMARK  Name = ZINC02151697
REMARK  6 active torsions:
REMARK  status: ('A' for Active; 'I' for Inactive)
REMARK    1  A    between atoms: C_1  and  C_2
REMARK    2  A    between atoms: C_2  and  C_3
REMARK    3  A    between atoms: C_2  and  C_4
REMARK    4  A    between atoms: C_4  and  C_6
REMARK    5  A    between atoms: C_4  and  N_16
REMARK    6  A    between atoms: N_8  and  C_9
REMARK                            x       y       z     vdW  Elec       q    Type
REMARK                         _______ _______ _______ _____ _____    ______ ____
ROOT
ATOM      1  N   UNL     1      -0.146   0.380  -2.708  0.00  0.00    -0.288 N 
ATOM      2  C   UNL     1       0.067   1.582  -3.280  0.00  0.00    +0.303 C 
ATOM      3  O   UNL     1       0.956   2.301  -2.867  0.00  0.00    -0.253 OA
ATOM      4  N   UNL     1      -0.704   1.986  -4.308  0.00  0.00    -0.285 N 
ATOM      5  C   UNL     1      -1.709   1.088  -4.890  0.00  0.00    +0.114 C 
ATOM      6  C   UNL     1      -1.557   1.038  -6.404  0.00  0.00    +0.027 C 
ATOM      7  C   UNL     1      -1.497   2.447  -6.997  0.00  0.00    +0.018 C 
ATOM      8  C   UNL     1      -0.303   3.180  -6.380  0.00  0.00    +0.054 C 
ATOM      9  C   UNL     1      -0.563   3.339  -4.868  0.00  0.00    +0.119 C 
ATOM     10  C   UNL     1       0.951   2.359  -6.569  0.00  0.00    +0.027 A 
ATOM     11  C   UNL     1       2.135   3.026  -6.620  0.00  0.00    +0.022 A 
ATOM     12  C   UNL     1       3.342   2.327  -6.726  0.00  0.00    +0.007 A 
ATOM     13  C   UNL     1       3.314   0.963  -6.750  0.00  0.00    +0.070 A 
ATOM     14  C   UNL     1       2.077   0.306  -6.691  0.00  0.00    +0.251 A 
ATOM     15  O   UNL     1       2.042  -0.914  -6.647  0.00  0.00    -0.268 OA
ATOM     16  N   UNL     1       0.919   1.011  -6.683  0.00  0.00    -0.312 N 
ATOM     17  C   UNL     1      -0.323   0.262  -6.828  0.00  0.00    +0.130 C 
ATOM     18  H   UNL     1      -0.803  -0.227  -3.086  0.00  0.00    +0.151 HD
ENDROOT
BRANCH   1  19
ATOM     19  C   UNL     1       0.613  -0.011  -1.518  0.00  0.00    +0.163 C 
BRANCH  19  20
ATOM     20  C   UNL     1       0.677  -1.514  -1.434  0.00  0.00    +0.238 C 
ATOM     21  O   UNL     1       0.140  -2.193  -2.285  0.00  0.00    -0.273 OA
ATOM     22  N   UNL     1       1.329  -2.105  -0.413  0.00  0.00    -0.282 N 
ATOM     23  H   UNL     1       1.815  -1.565   0.230  0.00  0.00    +0.155 HD
BRANCH  22  24
ATOM     24  C   UNL     1       1.307  -3.499  -0.281  0.00  0.00    +0.069 A 
ATOM     25  C   UNL     1       1.298  -4.305  -1.412  0.00  0.00    +0.026 A 
ATOM     26  C   UNL     1       1.276  -5.680  -1.278  0.00  0.00    +0.002 A 
ATOM     27  C   UNL     1       1.263  -6.255  -0.021  0.00  0.00    +0.003 A 
ATOM     28  C   UNL     1       1.272  -5.457   1.108  0.00  0.00    +0.040 A 
ATOM     29  C   UNL     1       1.300  -4.080   0.982  0.00  0.00    +0.144 A 
ATOM     30  F   UNL     1       1.314  -3.299   2.085  0.00  0.00    -0.204 F 
ENDBRANCH  22  24
ENDBRANCH  19  20
BRANCH  19  32
ATOM     31  C   UNL     1      -0.141   2.067  -0.355  0.00  0.00    +0.009 C 
ATOM     32  C   UNL     1      -0.077   0.541  -0.269  0.00  0.00    +0.012 C 
ATOM     33  C   UNL     1      -1.495  -0.025  -0.178  0.00  0.00    +0.009 C 
ENDBRANCH  19  32
ENDBRANCH   1  19
TORSDOF 4
