REMARK  Name = ZINC14971492
REMARK  9 active torsions:
REMARK  status: ('A' for Active; 'I' for Inactive)
REMARK    1  A    between atoms: C_4  and  C_7
REMARK    2  A    between atoms: C_7  and  N_8
REMARK    3  A    between atoms: C_9  and  C_11
REMARK    4  A    between atoms: C_11  and  C_12
REMARK    5  A    between atoms: C_15  and  N_18
REMARK    6  A    between atoms: C_21  and  N_70
REMARK    7  A    between atoms: C_24  and  C_25
REMARK    8  A    between atoms: C_24  and  N_70
REMARK    9  A    between atoms: C_25  and  C_26
REMARK                            x       y       z     vdW  Elec       q    Type
REMARK                         _______ _______ _______ _____ _____    ______ ____
ROOT
ATOM      1  N   UNL     1       2.128  -4.370  -1.958  0.00  0.00    -0.330 N 
ATOM      2  C   UNL     1       0.959  -3.939  -2.734  0.00  0.00    +0.103 C 
ATOM      3  C   UNL     1       0.857  -2.413  -2.701  0.00  0.00    +0.003 C 
ATOM      4  C   UNL     1       0.729  -1.946  -1.249  0.00  0.00    -0.069 C 
ATOM      5  C   UNL     1       1.934  -2.449  -0.450  0.00  0.00    +0.003 C 
ATOM      6  C   UNL     1       2.006  -3.974  -0.549  0.00  0.00    +0.103 C 
ENDROOT
BRANCH   1  10
ATOM      7  C   UNL     1       2.720  -8.477  -2.307  0.00  0.00    -0.039 A 
ATOM      8  C   UNL     1       3.579  -7.719  -1.532  0.00  0.00    +0.006 A 
ATOM      9  C   UNL     1       3.386  -6.357  -1.414  0.00  0.00    +0.023 A 
ATOM     10  C   UNL     1       2.327  -5.748  -2.075  0.00  0.00    +0.030 A 
ATOM     11  C   UNL     1       1.463  -6.512  -2.849  0.00  0.00    +0.023 A 
ATOM     12  C   UNL     1       1.665  -7.873  -2.966  0.00  0.00    +0.006 A 
BRANCH   7  13
ATOM     13  C   UNL     1       2.935  -9.963  -2.433  0.00  0.00    +0.130 C 
BRANCH  13  15
ATOM     14  N   UNL     1       2.220 -12.019  -1.258  0.00  0.00    -0.311 N 
ATOM     15  C   UNL     1       2.176 -10.675  -1.343  0.00  0.00    +0.218 C 
ATOM     16  O   UNL     1       1.525 -10.038  -0.542  0.00  0.00    -0.275 OA
ATOM     17  H   UNL     1       2.741 -12.528  -1.899  0.00  0.00    +0.149 HD
BRANCH  14  18
ATOM     18  C   UNL     1       1.482 -12.711  -0.198  0.00  0.00    +0.139 C 
BRANCH  18  22
ATOM     19  C   UNL     1       2.090 -16.924  -0.557  0.00  0.00    +0.000 A 
ATOM     20  C   UNL     1       2.948 -16.165   0.218  0.00  0.00    +0.000 A 
ATOM     21  C   UNL     1       2.751 -14.802   0.333  0.00  0.00    +0.005 A 
ATOM     22  C   UNL     1       1.697 -14.197  -0.325  0.00  0.00    -0.030 A 
ATOM     23  C   UNL     1       0.836 -14.957  -1.095  0.00  0.00    +0.005 A 
ATOM     24  C   UNL     1       1.035 -16.319  -1.214  0.00  0.00    +0.000 A 
ENDBRANCH  18  22
ENDBRANCH  14  18
ENDBRANCH  13  15
ENDBRANCH   7  13
ENDBRANCH   1  10
BRANCH   4  25
ATOM     25  N   UNL     1       0.694  -0.471  -1.214  0.00  0.00    +0.381 N 
ATOM     26  H   UNL     1       0.195  -0.125  -2.042  0.00  0.00    -0.086 HD
ATOM     27  H   UNL     1       1.655  -0.110  -1.217  0.00  0.00    -0.086 HD
BRANCH  25  28
ATOM     28  C   UNL     1       0.002  -0.004   0.002  0.00  0.00    -0.079 C 
BRANCH  28  29
ATOM     29  C   UNL     1      -0.019   1.526   0.010  0.00  0.00    +0.029 C 
BRANCH  29  30
ATOM     30  C   UNL     1      -0.735   2.019   1.269  0.00  0.00    +0.209 C 
ATOM     31  C   UNL     1      -0.676   3.551   1.331  0.00  0.00    +0.273 C 
ATOM     32  O   UNL     1      -1.365   3.979   2.511  0.00  0.00    -0.485 OA
ATOM     33  C   UNL     1      -2.576   3.408   2.752  0.00  0.00    +0.162 A 
ATOM     34  C   UNL     1      -3.447   4.011   3.648  0.00  0.00    +0.049 A 
ATOM     35  C   UNL     1      -4.679   3.441   3.906  0.00  0.00    +0.004 A 
ATOM     36  C   UNL     1      -5.048   2.268   3.273  0.00  0.00    +0.004 A 
ATOM     37  C   UNL     1      -4.185   1.663   2.378  0.00  0.00    +0.049 A 
ATOM     38  C   UNL     1      -2.948   2.230   2.114  0.00  0.00    +0.162 A 
ATOM     39  O   UNL     1      -2.111   1.625   1.228  0.00  0.00    -0.482 OA
ENDBRANCH  29  30
ENDBRANCH  28  29
ENDBRANCH  25  28
ENDBRANCH   4  25
TORSDOF 9
