REMARK  Name = ZINC40604129
REMARK  4 active torsions:
REMARK  status: ('A' for Active; 'I' for Inactive)
REMARK    1  A    between atoms: C_1  and  C_2
REMARK    2  A    between atoms: N_10  and  C_11
REMARK    3  A    between atoms: C_11  and  C_15
REMARK    4  A    between atoms: CA_19  and  C_21
REMARK                            x       y       z     vdW  Elec       q    Type
REMARK                         _______ _______ _______ _____ _____    ______ ____
ROOT
ATOM      1  C   UNL     1       0.649  -0.498   4.829  0.00  0.00    +0.094 C 
ATOM      2  C   UNL     1       0.974   1.000   4.958  0.00  0.00    +0.034 C 
ATOM      3  C   UNL     1       2.244   0.579   5.716  0.00  0.00    +0.005 C 
ATOM      4  C   UNL     1       1.495  -0.710   6.096  0.00  0.00    +0.034 C 
ENDROOT
BRANCH   1  13
ATOM      5  C   UNL     1       0.528  -5.182   2.378  0.00  0.00    +0.028 C 
ATOM      6  C   UNL     1       1.876  -4.487   2.181  0.00  0.00    +0.074 C 
ATOM      7  C   UNL     1       2.360  -4.680   0.728  0.00  0.00    +0.024 C 
ATOM      8  C   UNL     1       1.917  -3.364   0.036  0.00  0.00    +0.021 C 
ATOM      9  C   UNL     1       2.123  -2.331   1.172  0.00  0.00    +0.109 C 
ATOM     10  N   UNL     1       1.731  -3.041   2.407  0.00  0.00    -0.283 N 
ATOM     11  C   UNL     1       1.310  -2.463   3.549  0.00  0.00    +0.303 C 
ATOM     12  O   UNL     1       1.011  -3.153   4.505  0.00  0.00    -0.253 OA
ATOM     13  N   UNL     1       1.219  -1.121   3.632  0.00  0.00    -0.287 N 
ATOM     14  H   UNL     1       1.530  -0.568   2.899  0.00  0.00    +0.151 HD
ENDBRANCH   1  13
BRANCH   1  15
ATOM     15  C   UNL     1      -0.811  -0.819   5.018  0.00  0.00    +0.132 A 
ATOM     16  N   UNL     1      -1.796  -0.571   4.114  0.00  0.00    -0.346 N 
ATOM     17  H   UNL     1      -1.683  -0.160   3.243  0.00  0.00    +0.167 HD
ATOM     18  C   UNL     1      -2.962  -1.000   4.647  0.00  0.00    +0.119 A 
ATOM     19  CA  UNL     1      -2.671  -1.509   5.882  0.00  0.00    +0.170 A 
ATOM     20  N   UNL     1      -1.331  -1.383   6.069  0.00  0.00    -0.224 NA
BRANCH  19  21
ATOM     21  C   UNL     1      -3.630  -2.091   6.830  0.00  0.00    +0.406 C 
ATOM     22  O   UNL     1      -4.817  -2.152   6.540  0.00  0.00    -0.239 OA
ATOM     23  OXT UNL     1      -3.241  -2.515   7.911  0.00  0.00    -0.239 OA
ENDBRANCH  19  21
ENDBRANCH   1  15
TORSDOF 3
