REMARK  Name = ZINC08231517
REMARK  5 active torsions:
REMARK  status: ('A' for Active; 'I' for Inactive)
REMARK    1  A    between atoms: C_3  and  C_15
REMARK    2  A    between atoms: C_5  and  N_7
REMARK    3  A    between atoms: C_8  and  C_10
REMARK    4  A    between atoms: N_17  and  C_18
REMARK    5  A    between atoms: C_21  and  N_24
REMARK                            x       y       z     vdW  Elec       q    Type
REMARK                         _______ _______ _______ _____ _____    ______ ____
ROOT
ATOM      1  C   UNL     1      -3.521  -1.014   0.367  0.00  0.00    +0.003 A 
ATOM      2  C   UNL     1      -2.331  -0.322   0.274  0.00  0.00    +0.013 A 
ATOM      3  C   UNL     1      -1.127  -1.018   0.153  0.00  0.00    +0.039 A 
ATOM      4  C   UNL     1      -1.131  -2.413   0.138  0.00  0.00    +0.036 A 
ATOM      5  C   UNL     1      -2.332  -3.099   0.238  0.00  0.00    +0.034 A 
ATOM      6  C   UNL     1      -3.526  -2.396   0.352  0.00  0.00    +0.023 A 
ENDROOT
BRANCH   5   7
ATOM      7  N   UNL     1      -2.342  -4.497   0.225  0.00  0.00    -0.281 N 
ATOM      8  C   UNL     1      -1.336  -5.184   0.802  0.00  0.00    +0.255 C 
ATOM      9  O   UNL     1      -0.379  -4.590   1.261  0.00  0.00    -0.269 OA
ATOM     10  H   UNL     1      -3.073  -4.973  -0.200  0.00  0.00    +0.155 HD
BRANCH   8  11
ATOM     11  C   UNL     1      -1.396  -6.646   0.877  0.00  0.00    +0.074 A 
ATOM     12  C   UNL     1      -0.479  -7.532   1.422  0.00  0.00    +0.021 A 
ATOM     13  C   UNL     1      -0.786  -8.868   1.358  0.00  0.00    +0.008 A 
ATOM     14  C   UNL     1      -1.952  -9.254   0.775  0.00  0.00    +0.046 A 
ATOM     15  S   UNL     1      -2.672  -7.751   0.297  0.00  0.00    -0.092 S 
ENDBRANCH   8  11
ENDBRANCH   5   7
BRANCH   3  16
ATOM     16  C   UNL     1       0.149  -0.280   0.047  0.00  0.00    +0.248 C 
ATOM     17  O   UNL     1       1.197  -0.888  -0.053  0.00  0.00    -0.270 OA
ATOM     18  N   UNL     1       0.151   1.068   0.061  0.00  0.00    -0.282 N 
ATOM     19  H   UNL     1      -0.688   1.554   0.069  0.00  0.00    +0.155 HD
BRANCH  18  20
ATOM     20  C   UNL     1       1.364   1.766   0.059  0.00  0.00    +0.034 A 
ATOM     21  C   UNL     1       1.479   2.961   0.758  0.00  0.00    +0.025 A 
ATOM     22  C   UNL     1       2.677   3.646   0.760  0.00  0.00    +0.030 A 
ATOM     23  C   UNL     1       3.764   3.147   0.054  0.00  0.00    +0.069 A 
ATOM     24  C   UNL     1       3.647   1.956  -0.650  0.00  0.00    +0.030 A 
ATOM     25  C   UNL     1       2.451   1.267  -0.647  0.00  0.00    +0.025 A 
BRANCH  23  26
ATOM     26  N   UNL     1       4.980   3.847   0.052  0.00  0.00    -0.200 N 
ATOM     27  C   UNL     1       5.258   5.010   0.679  0.00  0.00    +0.250 A 
ATOM     28  N   UNL     1       6.504   5.306   0.414  0.00  0.00    -0.116 NA
ATOM     29  N   UNL     1       7.032   4.409  -0.338  0.00  0.00    -0.023 NA
ATOM     30  N   UNL     1       6.172   3.484  -0.599  0.00  0.00    -0.039 NA
ENDBRANCH  23  26
ENDBRANCH  18  20
ENDBRANCH   3  16
TORSDOF 5
