REMARK  Name = ZINC21263705
REMARK  17 active torsions:
REMARK  status: ('A' for Active; 'I' for Inactive)
REMARK    1  A    between atoms: C_1  and  C_2
REMARK    2  A    between atoms: C_2  and  C_34
REMARK    3  A    between atoms: C_4  and  N_10
REMARK    4  A    between atoms: C_6  and  C_8
REMARK    5  A    between atoms: C_6  and  C_9
REMARK    6  A    between atoms: N_10  and  C_11
REMARK    7  A    between atoms: C_11  and  N_13
REMARK    8  A    between atoms: N_13  and  C_14
REMARK    9  A    between atoms: N_13  and  C_21
REMARK   10  A    between atoms: C_14  and  C_15
REMARK   11  A    between atoms: C_21  and  C_22
REMARK   12  A    between atoms: C_24  and  O_32
REMARK   13  A    between atoms: C_25  and  O_30
REMARK   14  A    between atoms: C_27  and  O_28
REMARK   15  A    between atoms: O_28  and  C_29
REMARK   16  A    between atoms: O_30  and  C_31
REMARK   17  A    between atoms: O_32  and  C_33
REMARK                            x       y       z     vdW  Elec       q    Type
REMARK                         _______ _______ _______ _____ _____    ______ ____
ROOT
ATOM      1  N   UNL     1      -0.927   1.903   4.298  0.00  0.00    -0.304 N 
ENDROOT
BRANCH   1   2
ATOM      2  C   UNL     1      -0.272   0.808   3.865  0.00  0.00    +0.134 C 
ATOM      3  S   UNL     1      -0.615   0.161   2.318  0.00  0.00    -0.019 S 
BRANCH   2   4
ATOM      4  N   UNL     1       0.654   0.222   4.650  0.00  0.00    -0.324 N 
ATOM      5  H   UNL     1       0.875   0.638   5.645  0.00  0.00    +0.148 HD
BRANCH   4   9
ATOM      6  C   UNL     1       4.048  -2.079   3.038  0.00  0.00    -0.010 C 
ATOM      7  C   UNL     1       3.472  -2.312   4.440  0.00  0.00    -0.072 C 
ATOM      8  C   UNL     1       2.716  -1.067   4.895  0.00  0.00    +0.009 C 
ATOM      9  C   UNL     1       1.369  -0.970   4.178  0.00  0.00    +0.069 C 
ATOM     10  C   UNL     1       0.549  -2.215   4.516  0.00  0.00    +0.009 C 
ATOM     11  C   UNL     1       1.279  -3.474   4.054  0.00  0.00    -0.072 C 
ATOM     12  N   UNL     1       2.663  -3.512   4.480  0.00  0.00    +0.386 N 
ATOM     13  C   UNL     1       1.165  -3.603   2.531  0.00  0.00    -0.010 C 
ATOM     14  C   UNL     1       0.550  -4.688   4.673  0.00  0.00    -0.010 C 
ATOM     15  C   UNL     1       4.669  -2.506   5.398  0.00  0.00    -0.010 C 
ATOM     16  H   UNL     1       3.115  -4.281   3.837  0.00  0.00    -0.084 HD
ATOM     17  H   UNL     1       2.610  -3.884   5.514  0.00  0.00    -0.084 HD
ENDBRANCH   4   9
ENDBRANCH   2   4
ENDBRANCH   1   2
BRANCH   1  18
ATOM     18  C   UNL     1      -0.566   2.514   5.580  0.00  0.00    +0.143 C 
BRANCH  18  19
ATOM     19  C   UNL     1      -1.388   1.895   6.681  0.00  0.00    -0.012 A 
ATOM     20  C   UNL     1      -2.610   2.443   7.038  0.00  0.00    +0.008 A 
ATOM     21  C   UNL     1      -3.334   1.838   8.054  0.00  0.00    +0.020 A 
ATOM     22  C   UNL     1      -2.812   0.721   8.679  0.00  0.00    +0.111 A 
ATOM     23  N   UNL     1      -1.643   0.230   8.317  0.00  0.00    -0.263 NA
ATOM     24  C   UNL     1      -0.930   0.777   7.352  0.00  0.00    +0.115 A 
ENDBRANCH  18  19
ENDBRANCH   1  18
BRANCH   1  25
ATOM     25  C   UNL     1      -2.002   2.481   3.488  0.00  0.00    +0.146 C 
BRANCH  25  26
ATOM     26  C   UNL     1      -1.411   3.419   2.467  0.00  0.00    +0.015 A 
ATOM     27  C   UNL     1      -1.238   2.998   1.161  0.00  0.00    +0.058 A 
ATOM     28  C   UNL     1      -0.691   3.857   0.223  0.00  0.00    +0.162 A 
ATOM     29  C   UNL     1      -0.319   5.146   0.593  0.00  0.00    +0.165 A 
ATOM     30  C   UNL     1      -0.498   5.568   1.900  0.00  0.00    +0.095 A 
ATOM     31  C   UNL     1      -1.047   4.705   2.837  0.00  0.00    +0.128 A 
BRANCH  31  32
ATOM     32  O   UNL     1      -1.222   5.118   4.121  0.00  0.00    -0.495 OA
ATOM     33  C   UNL     1      -0.819   6.453   4.433  0.00  0.00    +0.277 C 
ENDBRANCH  31  32
BRANCH  29  34
ATOM     34  O   UNL     1       0.219   5.990  -0.328  0.00  0.00    -0.491 OA
ATOM     35  C   UNL     1       0.577   7.298   0.123  0.00  0.00    +0.277 C 
ENDBRANCH  29  34
BRANCH  28  36
ATOM     36  O   UNL     1      -0.516   3.440  -1.061  0.00  0.00    -0.491 OA
ATOM     37  C   UNL     1      -0.920   2.105  -1.370  0.00  0.00    +0.277 C 
ENDBRANCH  28  36
ENDBRANCH  25  26
ENDBRANCH   1  25
TORSDOF 10
