REMARK  Name = ZINC33063261
REMARK  5 active torsions:
REMARK  status: ('A' for Active; 'I' for Inactive)
REMARK    1  A    between atoms: C_1  and  C_2
REMARK    2  A    between atoms: C_5  and  C_35
REMARK    3  A    between atoms: C_6  and  N_8
REMARK    4  A    between atoms: C_14  and  C_16
REMARK    5  A    between atoms: C_19  and  C_22
REMARK                            x       y       z     vdW  Elec       q    Type
REMARK                         _______ _______ _______ _____ _____    ______ ____
ROOT
ATOM      1  C   UNL     1       2.449   4.038  -4.783  0.00  0.00    +0.037 A 
ATOM      2  C   UNL     1       1.549   3.158  -4.180  0.00  0.00    +0.013 A 
ATOM      3  C   UNL     1       1.390   3.169  -2.809  0.00  0.00    +0.007 A 
ATOM      4  C   UNL     1       2.121   4.051  -2.033  0.00  0.00    -0.011 A 
ATOM      5  C   UNL     1       3.010   4.931  -2.625  0.00  0.00    +0.007 A 
ATOM      6  C   UNL     1       3.183   4.925  -3.994  0.00  0.00    +0.013 A 
ENDROOT
BRANCH   4   7
ATOM      7  C   UNL     1       1.942   4.059  -0.537  0.00  0.00    +0.191 C 
ATOM      8  N   UNL     1       1.578   2.720  -0.080  0.00  0.00    -0.322 N 
ATOM      9  C   UNL     1       2.458   1.641  -0.094  0.00  0.00    +0.055 A 
ATOM     10  C   UNL     1       1.937   0.348  -0.084  0.00  0.00    +0.025 A 
ATOM     11  C   UNL     1       2.784  -0.741  -0.060  0.00  0.00    +0.002 A 
ATOM     12  C   UNL     1       4.155  -0.558  -0.046  0.00  0.00    +0.002 A 
ATOM     13  C   UNL     1       4.679   0.722  -0.063  0.00  0.00    +0.030 A 
ATOM     14  C   UNL     1       3.836   1.813  -0.094  0.00  0.00    +0.126 A 
ATOM     15  S   UNL     1       4.510   3.446  -0.152  0.00  0.00    +0.062 S 
ATOM     16  O   UNL     1       5.375   3.578   0.969  0.00  0.00    -0.153 OA
ATOM     17  O   UNL     1       4.941   3.670  -1.487  0.00  0.00    -0.153 OA
ATOM     18  N   UNL     1       3.208   4.453   0.114  0.00  0.00    -0.166 NA
ATOM     19  H   UNL     1       0.563   2.525   0.298  0.00  0.00    +0.148 HD
ATOM     20  H   UNL     1       3.297   5.441   0.591  0.00  0.00    +0.150 HD
ENDBRANCH   4   7
BRANCH   1  27
ATOM     21  N   UNL     1       6.353   3.853  -7.883  0.00  0.00    -0.327 N 
ATOM     22  C   UNL     1       5.160   3.525  -8.677  0.00  0.00    +0.124 C 
ATOM     23  C   UNL     1       3.999   4.425  -8.243  0.00  0.00    +0.127 C 
ATOM     24  N   UNL     1       3.830   4.302  -6.787  0.00  0.00    -0.295 N 
ATOM     25  C   UNL     1       5.012   4.488  -5.931  0.00  0.00    +0.127 C 
ATOM     26  C   UNL     1       6.135   3.579  -6.456  0.00  0.00    +0.124 C 
ATOM     27  C   UNL     1       2.624   4.031  -6.251  0.00  0.00    +0.247 C 
ATOM     28  O   UNL     1       1.679   3.781  -6.974  0.00  0.00    -0.270 OA
BRANCH  21  34
ATOM     29  C   UNL     1       8.688  -0.394  -8.694  0.00  0.00    +0.044 C 
ATOM     30  C   UNL     1       8.633   1.110  -8.765  0.00  0.00    -0.049 A 
ATOM     31  C   UNL     1       9.695   1.815  -9.302  0.00  0.00    +0.004 A 
ATOM     32  C   UNL     1       9.649   3.196  -9.368  0.00  0.00    +0.005 A 
ATOM     33  C   UNL     1       8.540   3.874  -8.903  0.00  0.00    -0.029 A 
ATOM     34  C   UNL     1       7.474   3.170  -8.359  0.00  0.00    +0.033 A 
ATOM     35  C   UNL     1       7.524   1.783  -8.293  0.00  0.00    +0.026 A 
ATOM     36  C   UNL     1       8.488   5.379  -8.982  0.00  0.00    +0.045 C 
ENDBRANCH  21  34
ENDBRANCH   1  27
TORSDOF 3
