REMARK  Name = ZINC61857302
REMARK  4 active torsions:
REMARK  status: ('A' for Active; 'I' for Inactive)
REMARK    1  A    between atoms: C_1  and  C_2
REMARK    2  A    between atoms: C_3  and  C_9
REMARK    3  A    between atoms: C_7  and  N_8
REMARK    4  A    between atoms: C_11  and  C_14
REMARK                            x       y       z     vdW  Elec       q    Type
REMARK                         _______ _______ _______ _____ _____    ______ ____
ROOT
ATOM      1  C   UNL     1      -0.167  -0.091  -2.555  0.00  0.00    +0.259 A 
ATOM      2  N   UNL     1      -0.348  -0.686  -3.711  0.00  0.00    -0.187 NA
ATOM      3  C   UNL     1      -0.388   0.228  -4.693  0.00  0.00    +0.202 A 
ATOM      4  N   UNL     1      -0.232   1.419  -4.170  0.00  0.00    -0.056 NA
ATOM      5  O   UNL     1      -0.090   1.233  -2.770  0.00  0.00    -0.332 OA
ENDROOT
BRANCH   1   8
ATOM      6  C   UNL     1      -1.681   0.930  -0.312  0.00  0.00    +0.046 C 
ATOM      7  C   UNL     1      -0.795  -0.279  -0.152  0.00  0.00    -0.018 A 
ATOM      8  C   UNL     1      -0.070  -0.763  -1.241  0.00  0.00    +0.044 A 
ATOM      9  C   UNL     1       0.748  -1.883  -1.086  0.00  0.00    +0.013 A 
ATOM     10  C   UNL     1       0.837  -2.509   0.141  0.00  0.00    +0.003 A 
ATOM     11  C   UNL     1       0.117  -2.030   1.220  0.00  0.00    +0.023 A 
ATOM     12  C   UNL     1      -0.695  -0.911   1.077  0.00  0.00    +0.028 A 
BRANCH  12  13
ATOM     13  N   UNL     1      -1.415  -0.426   2.172  0.00  0.00    -0.358 N 
ATOM     14  H   UNL     1      -1.985   0.352   2.072  0.00  0.00    +0.142 HD
ATOM     15  H   UNL     1      -1.345  -0.868   3.033  0.00  0.00    +0.142 HD
ENDBRANCH  12  13
ENDBRANCH   1   8
BRANCH   3  16
ATOM     16  C   UNL     1      -0.578  -0.064  -6.136  0.00  0.00    +0.023 A 
ATOM     17  C   UNL     1      -0.739  -1.379  -6.568  0.00  0.00    +0.013 A 
ATOM     18  C   UNL     1      -0.916  -1.645  -7.911  0.00  0.00    +0.016 A 
ATOM     19  C   UNL     1      -0.933  -0.608  -8.828  0.00  0.00    +0.018 A 
ATOM     20  C   UNL     1      -0.773   0.700  -8.403  0.00  0.00    +0.016 A 
ATOM     21  C   UNL     1      -0.601   0.977  -7.062  0.00  0.00    +0.013 A 
ATOM     22 BR   UNL     1      -1.174  -0.980 -10.666  0.00  0.00    -0.050 Br
ENDBRANCH   3  16
TORSDOF 3
