REMARK  Name = ZINC59890765
REMARK  13 active torsions:
REMARK  status: ('A' for Active; 'I' for Inactive)
REMARK    1  A    between atoms: C_1  and  C_2
REMARK    2  A    between atoms: C_5  and  S_23
REMARK    3  A    between atoms: C_7  and  C_8
REMARK    4  A    between atoms: N_10  and  C_11
REMARK    5  A    between atoms: C_11  and  C_12
REMARK    6  A    between atoms: C_12  and  N_20
REMARK    7  A    between atoms: C_16  and  C_19
REMARK    8  A    between atoms: N_20  and  C_21
REMARK    9  A    between atoms: N_20  and  C_22
REMARK   10  A    between atoms: S_23  and  N_26
REMARK   11  A    between atoms: N_26  and  C_27
REMARK   12  A    between atoms: C_30  and  O_33
REMARK   13  A    between atoms: O_33  and  C_34
REMARK                            x       y       z     vdW  Elec       q    Type
REMARK                         _______ _______ _______ _____ _____    ______ ____
ROOT
ATOM      1  C   UNL     1       2.108   1.539   0.968  0.00  0.00    +0.044 C 
ATOM      2  C   UNL     1       2.171   0.041   0.819  0.00  0.00    -0.038 A 
ATOM      3  C   UNL     1       2.544  -0.519  -0.386  0.00  0.00    +0.006 A 
ATOM      4  C   UNL     1       2.603  -1.894  -0.525  0.00  0.00    +0.029 A 
ATOM      5  C   UNL     1       2.288  -2.717   0.542  0.00  0.00    +0.109 A 
ATOM      6  C   UNL     1       1.915  -2.170   1.752  0.00  0.00    +0.042 A 
ATOM      7  C   UNL     1       1.859  -0.783   1.901  0.00  0.00    +0.041 A 
ENDROOT
BRANCH   7   8
ATOM      8  C   UNL     1       1.465  -0.190   3.196  0.00  0.00    +0.244 C 
ATOM      9  O   UNL     1       1.362   1.016   3.306  0.00  0.00    -0.270 OA
ATOM     10  N   UNL     1       1.220  -0.987   4.255  0.00  0.00    -0.313 N 
ATOM     11  H   UNL     1       1.303  -1.950   4.168  0.00  0.00    +0.149 HD
BRANCH  10  12
ATOM     12  C   UNL     1       0.830  -0.400   5.539  0.00  0.00    +0.092 C 
BRANCH  12  13
ATOM     13  C   UNL     1       0.457  -1.515   6.518  0.00  0.00    -0.050 C 
ATOM     14  C   UNL     1       1.596  -2.535   6.587  0.00  0.00    -0.010 C 
ATOM     15  C   UNL     1       1.223  -3.650   7.566  0.00  0.00    -0.001 C 
ATOM     16  C   UNL     1       0.989  -3.053   8.955  0.00  0.00    +0.003 C 
ATOM     17  C   UNL     1      -0.149  -2.033   8.886  0.00  0.00    -0.015 C 
ATOM     18  C   UNL     1       0.224  -0.917   7.907  0.00  0.00    -0.007 C 
ATOM     19  C   UNL     1      -0.383  -1.435  10.275  0.00  0.00    +0.007 C 
BRANCH  13  20
ATOM     20  N   UNL     1      -0.769  -2.180   6.059  0.00  0.00    +0.381 N 
ATOM     21  C   UNL     1      -1.840  -1.185   5.910  0.00  0.00    -0.096 C 
ATOM     22  C   UNL     1      -0.519  -2.828   4.764  0.00  0.00    -0.096 C 
ATOM     23  H   UNL     1      -1.048  -2.876   6.734  0.00  0.00    -0.082 HD
ENDBRANCH  13  20
ENDBRANCH  12  13
ENDBRANCH  10  12
ENDBRANCH   7   8
BRANCH   5  24
ATOM     24  S   UNL     1       2.365  -4.467   0.355  0.00  0.00    +0.072 S 
ATOM     25  O   UNL     1       1.408  -5.014   1.251  0.00  0.00    -0.150 OA
ATOM     26  O   UNL     1       2.337  -4.728  -1.042  0.00  0.00    -0.150 OA
BRANCH  24  27
ATOM     27  N   UNL     1       3.853  -4.953   0.897  0.00  0.00    -0.216 N 
ATOM     28  H   UNL     1       3.920  -5.557   1.653  0.00  0.00    +0.174 HD
BRANCH  27  29
ATOM     29  C   UNL     1       5.013  -4.492   0.265  0.00  0.00    +0.048 A 
ATOM     30  C   UNL     1       5.101  -4.505  -1.121  0.00  0.00    +0.028 A 
ATOM     31  C   UNL     1       6.246  -4.049  -1.744  0.00  0.00    +0.047 A 
ATOM     32  C   UNL     1       7.308  -3.579  -0.986  0.00  0.00    +0.120 A 
ATOM     33  C   UNL     1       7.221  -3.566   0.398  0.00  0.00    +0.047 A 
ATOM     34  C   UNL     1       6.075  -4.016   1.023  0.00  0.00    +0.028 A 
BRANCH  32  35
ATOM     35  O   UNL     1       8.435  -3.130  -1.601  0.00  0.00    -0.495 OA
ATOM     36  C   UNL     1       9.490  -2.660  -0.759  0.00  0.00    +0.277 C 
ENDBRANCH  32  35
ENDBRANCH  27  29
ENDBRANCH  24  27
ENDBRANCH   5  24
TORSDOF 8
