REMARK  Name = ZINC40735023
REMARK  6 active torsions:
REMARK  status: ('A' for Active; 'I' for Inactive)
REMARK    1  A    between atoms: C_1  and  C_2
REMARK    2  A    between atoms: C_7  and  C_9
REMARK    3  A    between atoms: C_7  and  C_10
REMARK    4  A    between atoms: C_14  and  N_28
REMARK    5  A    between atoms: C_15  and  N_19
REMARK    6  A    between atoms: N_19  and  C_20
REMARK                            x       y       z     vdW  Elec       q    Type
REMARK                         _______ _______ _______ _____ _____    ______ ____
ROOT
ATOM      1  C   UNL     1       0.138   1.728  -0.367  0.00  0.00    +0.013 C 
ATOM      2  C   UNL     1       0.121   0.194  -0.290  0.00  0.00    -0.014 C 
ATOM      3  C   UNL     1      -1.322  -0.381  -0.276  0.00  0.00    +0.030 C 
ATOM      4  C   UNL     1      -1.021  -1.843  -0.689  0.00  0.00    +0.076 C 
ATOM      5  C   UNL     1      -0.427  -2.545   0.530  0.00  0.00    +0.029 C 
ATOM      6  C   UNL     1       0.792  -1.849   1.108  0.00  0.00    -0.033 C 
ATOM      7  C   UNL     1       0.834  -0.341   0.951  0.00  0.00    +0.014 C 
ATOM      8  C   UNL     1       2.069  -2.474   0.528  0.00  0.00    +0.011 C 
ATOM      9  C   UNL     1       0.810  -2.151   2.628  0.00  0.00    +0.011 C 
ATOM     10  N   UNL     1       0.013  -1.737  -1.738  0.00  0.00    -0.310 N 
ATOM     11  C   UNL     1       0.726  -0.464  -1.549  0.00  0.00    +0.113 C 
ATOM     12  C   UNL     1       0.264  -2.670  -2.737  0.00  0.00    +0.147 A 
ATOM     13  C   UNL     1       1.198  -2.401  -3.740  0.00  0.00    +0.106 A 
ATOM     14  C   UNL     1       1.411  -3.373  -4.718  0.00  0.00    +0.149 A 
ATOM     15  N   UNL     1       0.722  -4.511  -4.659  0.00  0.00    -0.219 NA
ATOM     16  C   UNL     1      -0.150  -4.724  -3.695  0.00  0.00    +0.225 A 
ATOM     17  N   UNL     1      -0.378  -3.835  -2.749  0.00  0.00    -0.219 NA
ENDROOT
BRANCH  13  18
ATOM     18  N   UNL     1       1.902  -1.187  -3.763  0.00  0.00    -0.353 N 
ATOM     19  H   UNL     1       1.804  -0.555  -3.033  0.00  0.00    +0.143 HD
ATOM     20  H   UNL     1       2.487  -0.980  -4.508  0.00  0.00    +0.143 HD
ENDBRANCH  13  18
BRANCH  14  21
ATOM     21  N   UNL     1       2.330  -3.157  -5.739  0.00  0.00    -0.297 N 
ATOM     22  H   UNL     1       2.891  -2.366  -5.727  0.00  0.00    +0.154 HD
BRANCH  21  23
ATOM     23  C   UNL     1       2.443  -4.079  -6.785  0.00  0.00    +0.051 A 
ATOM     24  C   UNL     1       1.371  -4.900  -7.108  0.00  0.00    +0.026 A 
ATOM     25  C   UNL     1       1.486  -5.810  -8.141  0.00  0.00    +0.022 A 
ATOM     26  C   UNL     1       2.668  -5.904  -8.854  0.00  0.00    +0.042 A 
ATOM     27  C   UNL     1       3.739  -5.088  -8.535  0.00  0.00    +0.041 A 
ATOM     28  C   UNL     1       3.628  -4.171  -7.506  0.00  0.00    +0.063 A 
ATOM     29 CL   UNL     1       4.969  -3.142  -7.111  0.00  0.00    -0.082 Cl
ATOM     30 CL   UNL     1       2.808  -7.049 -10.151  0.00  0.00    -0.083 Cl
ENDBRANCH  21  23
ENDBRANCH  14  21
TORSDOF 3
