REMARK  Name = ZINC38651669
REMARK  10 active torsions:
REMARK  status: ('A' for Active; 'I' for Inactive)
REMARK    1  A    between atoms: C_1  and  C_2
REMARK    2  A    between atoms: C_6  and  C_34
REMARK    3  A    between atoms: C_7  and  O_8
REMARK    4  A    between atoms: O_8  and  C_9
REMARK    5  A    between atoms: C_9  and  C_10
REMARK    6  A    between atoms: C_10  and  O_12
REMARK    7  A    between atoms: O_12  and  C_13
REMARK    8  A    between atoms: C_20  and  N_33
REMARK    9  A    between atoms: C_21  and  C_31
REMARK   10  A    between atoms: C_22  and  C_24
REMARK                            x       y       z     vdW  Elec       q    Type
REMARK                         _______ _______ _______ _____ _____    ______ ____
ROOT
ATOM      1  C   UNL     1      -1.980   2.042   6.167  0.00  0.00    +0.135 A 
ATOM      2  C   UNL     1      -0.720   2.383   6.639  0.00  0.00    +0.047 A 
ATOM      3  C   UNL     1      -0.590   3.034   7.850  0.00  0.00    +0.012 A 
ATOM      4  C   UNL     1      -1.711   3.348   8.597  0.00  0.00    +0.008 A 
ATOM      5  C   UNL     1      -2.972   3.009   8.131  0.00  0.00    +0.138 A 
ATOM      6  C   UNL     1      -3.105   2.360   6.910  0.00  0.00    +0.093 A 
ATOM      7  O   UNL     1      -4.082   3.308   8.848  0.00  0.00    -0.441 OA
ATOM      8  C   UNL     1      -4.029   4.251   9.804  0.00  0.00    +0.199 C 
ATOM      9  C   UNL     1      -2.857   4.651  10.351  0.00  0.00    +0.098 C 
ATOM     10  C   UNL     1      -1.548   4.057   9.916  0.00  0.00    +0.098 C 
ENDROOT
BRANCH  10  11
ATOM     11  C   UNL     1      -1.075   3.074  10.956  0.00  0.00    -0.035 A 
ATOM     12  C   UNL     1      -1.843   1.965  11.258  0.00  0.00    +0.005 A 
ATOM     13  C   UNL     1      -1.410   1.063  12.212  0.00  0.00    +0.015 A 
ATOM     14  C   UNL     1      -0.207   1.270  12.864  0.00  0.00    +0.018 A 
ATOM     15  C   UNL     1       0.561   2.380  12.561  0.00  0.00    +0.015 A 
ATOM     16  C   UNL     1       0.129   3.279  11.603  0.00  0.00    +0.005 A 
ATOM     17 BR   UNL     1       0.386   0.037  14.168  0.00  0.00    -0.050 Br
ENDBRANCH  10  11
BRANCH   8  18
ATOM     18  N   UNL     1      -5.198   4.826  10.238  0.00  0.00    -0.328 N 
ATOM     19  H   UNL     1      -6.045   4.550   9.855  0.00  0.00    +0.145 HD
ATOM     20  H   UNL     1      -5.176   5.508  10.927  0.00  0.00    +0.145 HD
ENDBRANCH   8  18
BRANCH   9  21
ATOM     21  C   UNL     1      -2.866   5.662  11.366  0.00  0.00    +0.101 C 
ATOM     22  N   UNL     1      -2.873   6.464  12.171  0.00  0.00    -0.191 NA
ENDBRANCH   9  21
BRANCH   1  23
ATOM     23  O   UNL     1      -2.109   1.401   4.976  0.00  0.00    -0.423 OA
BRANCH  23  24
ATOM     24  C   UNL     1      -1.835   0.087   4.933  0.00  0.00    +0.350 C 
ATOM     25  O   UNL     1      -1.399  -0.471   5.912  0.00  0.00    -0.247 OA
BRANCH  24  26
ATOM     26  C   UNL     1      -2.070  -0.691   3.664  0.00  0.00    +0.349 C 
BRANCH  26  27
ATOM     27  O   UNL     1      -1.705  -2.057   3.869  0.00  0.00    -0.480 OA
BRANCH  27  34
ATOM     28  C   UNL     1       0.487  -2.352   2.111  0.00  0.00    +0.047 C 
ATOM     29  C   UNL     1      -0.815  -3.087   1.917  0.00  0.00    -0.009 A 
ATOM     30  C   UNL     1      -0.970  -3.950   0.850  0.00  0.00    +0.007 A 
ATOM     31  C   UNL     1      -2.164  -4.623   0.671  0.00  0.00    +0.001 A 
ATOM     32  C   UNL     1      -3.206  -4.436   1.561  0.00  0.00    +0.007 A 
ATOM     33  C   UNL     1      -3.056  -3.574   2.630  0.00  0.00    -0.009 A 
ATOM     34  C   UNL     1      -1.857  -2.901   2.814  0.00  0.00    +0.127 A 
ATOM     35  C   UNL     1      -4.192  -3.370   3.599  0.00  0.00    +0.047 C 
ENDBRANCH  27  34
ENDBRANCH  26  27
ENDBRANCH  24  26
ENDBRANCH  23  24
ENDBRANCH   1  23
TORSDOF 8
