REMARK  Name = ZINC36050773
REMARK  10 active torsions:
REMARK  status: ('A' for Active; 'I' for Inactive)
REMARK    1  A    between atoms: C_1  and  C_2
REMARK    2  A    between atoms: C_3  and  C_31
REMARK    3  A    between atoms: C_4  and  C_24
REMARK    4  A    between atoms: C_7  and  C_12
REMARK    5  A    between atoms: C_13  and  N_15
REMARK    6  A    between atoms: N_15  and  C_16
REMARK    7  A    between atoms: C_16  and  C_17
REMARK    8  A    between atoms: C_17  and  C_18
REMARK    9  A    between atoms: C_31  and  O_33
REMARK   10  A    between atoms: O_33  and  C_34
REMARK                            x       y       z     vdW  Elec       q    Type
REMARK                         _______ _______ _______ _____ _____    ______ ____
ROOT
ATOM      1  C   UNL     1       0.580   1.343   0.093  0.00  0.00    +0.066 C 
ATOM      2  C   UNL     1       0.367  -0.146   0.002  0.00  0.00    +0.053 C 
ATOM      3  C   UNL     1      -0.900  -0.646  -0.227  0.00  0.00    +0.083 C 
ATOM      4  C   UNL     1      -1.062  -2.147  -0.310  0.00  0.00    +0.152 C 
ATOM      5  N   UNL     1       0.165  -2.970  -0.137  0.00  0.00    -0.267 N 
ATOM      6  C   UNL     1       0.253  -4.348  -0.175  0.00  0.00    +0.048 C 
ATOM      7  C   UNL     1       1.472  -4.903   0.006  0.00  0.00    +0.072 C 
ATOM      8  S   UNL     1       2.502  -3.466   0.231  0.00  0.00    -0.060 S 
ATOM      9  C   UNL     1       1.324  -2.280   0.081  0.00  0.00    +0.166 C 
ATOM     10  N   UNL     1       1.397  -0.966   0.137  0.00  0.00    -0.230 NA
ENDROOT
BRANCH   4  11
ATOM     11  C   UNL     1      -1.655  -2.476  -1.656  0.00  0.00    +0.013 A 
ATOM     12  C   UNL     1      -2.979  -2.859  -1.752  0.00  0.00    +0.008 A 
ATOM     13  C   UNL     1      -3.524  -3.161  -2.987  0.00  0.00    +0.001 A 
ATOM     14  C   UNL     1      -2.744  -3.080  -4.126  0.00  0.00    +0.003 A 
ATOM     15  C   UNL     1      -1.420  -2.698  -4.031  0.00  0.00    +0.039 A 
ATOM     16  C   UNL     1      -0.875  -2.390  -2.796  0.00  0.00    +0.129 A 
ATOM     17  F   UNL     1       0.419  -2.011  -2.703  0.00  0.00    -0.205 F 
ENDBRANCH   4  11
BRANCH   6  18
ATOM     18  C   UNL     1      -0.936  -5.181  -0.403  0.00  0.00    +0.091 C 
ATOM     19  C   UNL     1      -0.835  -6.523  -0.366  0.00  0.00    +0.239 C 
ATOM     20  O   UNL     1       0.377  -7.107  -0.200  0.00  0.00    -0.271 OA
BRANCH  19  21
ATOM     21  N   UNL     1      -1.969  -7.307  -0.498  0.00  0.00    -0.311 N 
ATOM     22  H   UNL     1      -2.836  -6.889  -0.617  0.00  0.00    +0.149 HD
BRANCH  21  23
ATOM     23  C   UNL     1      -1.859  -8.767  -0.458  0.00  0.00    +0.110 C 
BRANCH  23  24
ATOM     24  C   UNL     1      -3.247  -9.388  -0.625  0.00  0.00    +0.074 C 
BRANCH  24  25
ATOM     25  C   UNL     1      -3.134 -10.890  -0.584  0.00  0.00    +0.043 A 
ATOM     26  C   UNL     1      -3.894 -11.608   0.321  0.00  0.00    +0.023 A 
ATOM     27  C   UNL     1      -3.782 -12.990   0.350  0.00  0.00    +0.003 A 
ATOM     28  C   UNL     1      -2.907 -13.600  -0.534  0.00  0.00    +0.020 A 
ATOM     29  C   UNL     1      -2.179 -12.817  -1.411  0.00  0.00    +0.111 A 
ATOM     30  N   UNL     1      -2.315 -11.505  -1.415  0.00  0.00    -0.260 NA
ENDBRANCH  24  25
ENDBRANCH  23  24
ENDBRANCH  21  23
ENDBRANCH  19  21
ENDBRANCH   6  18
BRANCH   3  31
ATOM     31  C   UNL     1      -1.999   0.209  -0.377  0.00  0.00    +0.339 C 
ATOM     32  O   UNL     1      -1.832   1.416  -0.408  0.00  0.00    -0.245 OA
BRANCH  31  33
ATOM     33  O   UNL     1      -3.244  -0.304  -0.486  0.00  0.00    -0.465 OA
ATOM     34  C   UNL     1      -4.318   0.627  -0.636  0.00  0.00    +0.280 C 
ENDBRANCH  31  33
ENDBRANCH   3  31
TORSDOF 8
