REMARK  Name = ZINC33628232
REMARK  18 active torsions:
REMARK  status: ('A' for Active; 'I' for Inactive)
REMARK    1  A    between atoms: C_1  and  C_2
REMARK    2  A    between atoms: C_9  and  C_20
REMARK    3  A    between atoms: C_10  and  N_11
REMARK    4  A    between atoms: N_11  and  C_12
REMARK    5  A    between atoms: C_12  and  C_13
REMARK    6  A    between atoms: C_12  and  C_14
REMARK    7  A    between atoms: C_12  and  C_15
REMARK    8  A    between atoms: C_15  and  C_16
REMARK    9  A    between atoms: C_16  and  C_17
REMARK   10  A    between atoms: C_16  and  C_18
REMARK   11  A    between atoms: C_16  and  C_19
REMARK   12  A    between atoms: C_23  and  O_28
REMARK   13  A    between atoms: C_24  and  O_26
REMARK   14  A    between atoms: O_26  and  C_27
REMARK   15  A    between atoms: O_28  and  C_29
REMARK   16  A    between atoms: C_29  and  C_31
REMARK   17  A    between atoms: C_34  and  O_37
REMARK   18  A    between atoms: O_37  and  C_38
REMARK                            x       y       z     vdW  Elec       q    Type
REMARK                         _______ _______ _______ _____ _____    ______ ____
ROOT
ATOM      1  C   UNL     1      -7.206  -3.239  -1.609  0.00  0.00    +0.044 C 
ATOM      2  C   UNL     1      -5.951  -2.493  -1.234  0.00  0.00    -0.046 A 
ATOM      3  C   UNL     1      -5.975  -1.553  -0.188  0.00  0.00    +0.021 A 
ATOM      4  C   UNL     1      -4.856  -0.883   0.152  0.00  0.00    +0.094 A 
ATOM      5  N   UNL     1      -3.680  -1.108  -0.513  0.00  0.00    -0.289 N 
ATOM      6  C   UNL     1      -3.626  -2.022  -1.540  0.00  0.00    +0.117 A 
ATOM      7  C   UNL     1      -4.792  -2.728  -1.904  0.00  0.00    +0.048 A 
ATOM      8  N   UNL     1      -2.392  -2.047  -2.016  0.00  0.00    -0.338 N 
ATOM      9  C   UNL     1      -1.631  -1.181  -1.323  0.00  0.00    +0.087 A 
ATOM     10  C   UNL     1      -2.428  -0.577  -0.373  0.00  0.00    +0.129 A 
ATOM     11  H   UNL     1      -2.139  -2.714  -2.854  0.00  0.00    +0.167 HD
ENDROOT
BRANCH   9  12
ATOM     12  C   UNL     1      -0.190  -0.918  -1.545  0.00  0.00    +0.005 A 
ATOM     13  C   UNL     1       0.321   0.368  -1.368  0.00  0.00    +0.014 A 
ATOM     14  C   UNL     1       1.663   0.613  -1.576  0.00  0.00    +0.051 A 
ATOM     15  C   UNL     1       2.507  -0.418  -1.960  0.00  0.00    +0.173 A 
ATOM     16  C   UNL     1       2.004  -1.704  -2.138  0.00  0.00    +0.163 A 
ATOM     17  C   UNL     1       0.659  -1.955  -1.931  0.00  0.00    +0.059 A 
BRANCH  16  18
ATOM     18  O   UNL     1       2.833  -2.713  -2.515  0.00  0.00    -0.491 OA
ATOM     19  C   UNL     1       2.249  -4.006  -2.680  0.00  0.00    +0.277 C 
ENDBRANCH  16  18
BRANCH  15  20
ATOM     20  O   UNL     1       3.829  -0.172  -2.163  0.00  0.00    -0.419 OA
BRANCH  20  21
ATOM     21  C   UNL     1       4.211   0.121  -3.421  0.00  0.00    +0.345 C 
ATOM     22  O   UNL     1       3.376   0.248  -4.295  0.00  0.00    -0.245 OA
BRANCH  21  23
ATOM     23  C   UNL     1       5.641   0.288  -3.738  0.00  0.00    +0.060 A 
ATOM     24  C   UNL     1       6.603   0.148  -2.733  0.00  0.00    +0.018 A 
ATOM     25  C   UNL     1       7.938   0.300  -3.034  0.00  0.00    +0.046 A 
ATOM     26  C   UNL     1       8.329   0.603  -4.333  0.00  0.00    +0.120 A 
ATOM     27  C   UNL     1       7.376   0.748  -5.334  0.00  0.00    +0.046 A 
ATOM     28  C   UNL     1       6.039   0.593  -5.043  0.00  0.00    +0.018 A 
BRANCH  26  29
ATOM     29  O   UNL     1       9.645   0.757  -4.625  0.00  0.00    -0.495 OA
ATOM     30  C   UNL     1      10.572   0.594  -3.548  0.00  0.00    +0.277 C 
ENDBRANCH  26  29
ENDBRANCH  21  23
ENDBRANCH  20  21
ENDBRANCH  15  20
ENDBRANCH   9  12
BRANCH  10  31
ATOM     31  N   UNL     1      -2.032   0.390   0.552  0.00  0.00    -0.323 N 
ATOM     32  H   UNL     1      -1.023   0.769   0.768  0.00  0.00    +0.148 HD
BRANCH  31  33
ATOM     33  C   UNL     1      -3.188   0.916   1.290  0.00  0.00    +0.028 C 
ATOM     34  C   UNL     1      -4.277   1.338   0.301  0.00  0.00    +0.031 C 
ATOM     35  C   UNL     1      -3.736  -0.170   2.219  0.00  0.00    +0.031 C 
BRANCH  33  36
ATOM     36  C   UNL     1      -2.756   2.126   2.120  0.00  0.00    +0.031 C 
BRANCH  36  37
ATOM     37  C   UNL     1      -3.910   2.565   3.023  0.00  0.00    -0.036 C 
ATOM     38  C   UNL     1      -4.046   1.585   4.190  0.00  0.00    +0.010 C 
ATOM     39  C   UNL     1      -3.629   3.968   3.565  0.00  0.00    +0.010 C 
ATOM     40  C   UNL     1      -5.210   2.581   2.216  0.00  0.00    +0.010 C 
ENDBRANCH  36  37
ENDBRANCH  33  36
ENDBRANCH  31  33
ENDBRANCH  10  31
TORSDOF 10
