REMARK  Name = ZINC14672882
REMARK  6 active torsions:
REMARK  status: ('A' for Active; 'I' for Inactive)
REMARK    1  A    between atoms: C_4  and  C_7
REMARK    2  A    between atoms: C_7  and  C_8
REMARK    3  A    between atoms: C_7  and  N_14
REMARK    4  A    between atoms: C_20  and  C_22
REMARK    5  A    between atoms: C_22  and  N_23
REMARK    6  A    between atoms: C_32  and  C_34
REMARK                            x       y       z     vdW  Elec       q    Type
REMARK                         _______ _______ _______ _____ _____    ______ ____
ROOT
ATOM      1  N   UNL     1       0.334  10.764  -3.722  0.00  0.00    -0.289 NA
ATOM      2  C   UNL     1       0.625   9.480  -4.375  0.00  0.00    +0.104 C 
ATOM      3  C   UNL     1      -0.173   8.368  -3.686  0.00  0.00    +0.123 C 
ATOM      4  N   UNL     1       0.114   8.412  -2.244  0.00  0.00    -0.301 N 
ATOM      5  C   UNL     1      -0.029   9.698  -1.545  0.00  0.00    +0.123 C 
ATOM      6  C   UNL     1       0.769  10.759  -2.319  0.00  0.00    +0.104 C 
ATOM      7  C   UNL     1       0.492   7.302  -1.580  0.00  0.00    +0.199 C 
ATOM      8  O   UNL     1       0.600   6.248  -2.172  0.00  0.00    -0.278 OA
ENDROOT
BRANCH   1   9
ATOM      9  C   UNL     1       0.944  11.879  -4.459  0.00  0.00    +0.117 C 
BRANCH   9  13
ATOM     10  C   UNL     1      -0.515  11.901  -8.473  0.00  0.00    +0.000 A 
ATOM     11  C   UNL     1       0.834  12.073  -8.227  0.00  0.00    +0.000 A 
ATOM     12  C   UNL     1       1.306  12.066  -6.928  0.00  0.00    +0.005 A 
ATOM     13  C   UNL     1       0.429  11.887  -5.875  0.00  0.00    -0.026 A 
ATOM     14  C   UNL     1      -0.919  11.710  -6.121  0.00  0.00    +0.005 A 
ATOM     15  C   UNL     1      -1.392  11.722  -7.420  0.00  0.00    +0.000 A 
ENDBRANCH   9  13
BRANCH   9  16
ATOM     16  C   UNL     1       0.587  13.180  -3.787  0.00  0.00    -0.026 A 
ATOM     17  C   UNL     1      -0.716  13.417  -3.388  0.00  0.00    +0.005 A 
ATOM     18  C   UNL     1      -1.042  14.608  -2.768  0.00  0.00    +0.000 A 
ATOM     19  C   UNL     1      -0.069  15.566  -2.555  0.00  0.00    +0.000 A 
ATOM     20  C   UNL     1       1.232  15.332  -2.959  0.00  0.00    +0.000 A 
ATOM     21  C   UNL     1       1.560  14.138  -3.575  0.00  0.00    +0.005 A 
ENDBRANCH   9  16
ENDBRANCH   1   9
BRANCH   7  22
ATOM     22  C   UNL     1       0.781   7.369  -0.103  0.00  0.00    +0.020 C 
BRANCH  22  23
ATOM     23  N   UNL     1       1.171   6.038   0.381  0.00  0.00    +0.396 N 
ATOM     24  C   UNL     1       2.430   5.604  -0.232  0.00  0.00    -0.041 C 
ATOM     25  C   UNL     1       2.767   4.199   0.196  0.00  0.00    -0.061 A 
ATOM     26  C   UNL     1       4.070   3.752   0.025  0.00  0.00    +0.002 A 
ATOM     27  C   UNL     1       4.423   2.471   0.399  0.00  0.00    +0.000 A 
ATOM     28  C   UNL     1       3.473   1.627   0.945  0.00  0.00    +0.000 A 
ATOM     29  C   UNL     1       2.176   2.069   1.110  0.00  0.00    +0.004 A 
ATOM     30  C   UNL     1       1.822   3.358   0.742  0.00  0.00    -0.047 A 
ATOM     31  C   UNL     1       0.397   3.800   0.953  0.00  0.00    +0.029 C 
ATOM     32  C   UNL     1       0.110   5.051   0.121  0.00  0.00    +0.024 C 
ATOM     33  H   UNL     1       1.323   6.110   1.468  0.00  0.00    -0.080 HD
BRANCH  32  34
ATOM     34  C   UNL     1      -1.226   5.629   0.512  0.00  0.00    +0.197 C 
ATOM     35  O   UNL     1      -1.304   6.395   1.449  0.00  0.00    -0.278 OA
ATOM     36  N   UNL     1      -2.333   5.294  -0.180  0.00  0.00    -0.331 N 
ATOM     37  H   UNL     1      -3.308   5.715   0.106  0.00  0.00    +0.145 HD
ATOM     38  H   UNL     1      -2.261   4.599  -1.029  0.00  0.00    +0.145 HD
ENDBRANCH  32  34
ENDBRANCH  22  23
ENDBRANCH   7  22
TORSDOF 6
