REMARK  Name = ZINC45772890
REMARK  11 active torsions:
REMARK  status: ('A' for Active; 'I' for Inactive)
REMARK    1  A    between atoms: C_1  and  C_2
REMARK    2  A    between atoms: C_5  and  S_27
REMARK    3  A    between atoms: C_7  and  N_8
REMARK    4  A    between atoms: C_9  and  C_11
REMARK    5  A    between atoms: C_11  and  C_12
REMARK    6  A    between atoms: C_12  and  C_13
REMARK    7  A    between atoms: C_15  and  C_18
REMARK    8  A    between atoms: C_21  and  C_24
REMARK    9  A    between atoms: C_24  and  C_25
REMARK   10  A    between atoms: C_24  and  C_26
REMARK   11  A    between atoms: S_27  and  N_30
REMARK                            x       y       z     vdW  Elec       q    Type
REMARK                         _______ _______ _______ _____ _____    ______ ____
ROOT
ATOM      1  N   UNL     1       0.025  -0.015   2.417  0.00  0.00    -0.285 N 
ATOM      2  C   UNL     1      -0.056  -0.694   3.578  0.00  0.00    +0.218 C 
ATOM      3  O   UNL     1      -0.040  -1.907   3.573  0.00  0.00    -0.275 OA
ATOM      4  H   UNL     1       0.078   0.954   2.425  0.00  0.00    +0.155 HD
ENDROOT
BRANCH   1  11
ATOM      5  C   UNL     1      -1.264   1.184   0.181  0.00  0.00    +0.045 C 
ATOM      6  C   UNL     1      -0.584  -0.158   0.084  0.00  0.00    -0.029 A 
ATOM      7  C   UNL     1      -0.568  -0.840  -1.117  0.00  0.00    +0.007 A 
ATOM      8  C   UNL     1       0.055  -2.071  -1.206  0.00  0.00    +0.029 A 
ATOM      9  C   UNL     1       0.666  -2.622  -0.095  0.00  0.00    +0.107 A 
ATOM     10  C   UNL     1       0.655  -1.945   1.108  0.00  0.00    +0.052 A 
ATOM     11  C   UNL     1       0.034  -0.706   1.201  0.00  0.00    +0.038 A 
BRANCH   9  12
ATOM     12  S   UNL     1       1.460  -4.191  -0.214  0.00  0.00    +0.061 S 
ATOM     13  O   UNL     1       1.482  -4.736   1.098  0.00  0.00    -0.153 OA
ATOM     14  O   UNL     1       0.858  -4.868  -1.310  0.00  0.00    -0.153 OA
BRANCH  12  15
ATOM     15  N   UNL     1       3.036  -3.912  -0.638  0.00  0.00    -0.177 NA
ATOM     16  C   UNL     1       3.431  -3.847  -2.052  0.00  0.00    +0.109 C 
ATOM     17  C   UNL     1       4.174  -2.529  -2.296  0.00  0.00    +0.017 C 
ATOM     18  C   UNL     1       5.340  -2.416  -1.312  0.00  0.00    +0.003 C 
ATOM     19  C   UNL     1       4.802  -2.409   0.121  0.00  0.00    +0.017 C 
ATOM     20  C   UNL     1       4.065  -3.718   0.393  0.00  0.00    +0.109 C 
ENDBRANCH  12  15
ENDBRANCH   9  12
ENDBRANCH   1  11
BRANCH   2  21
ATOM     21  C   UNL     1      -0.168   0.052   4.882  0.00  0.00    +0.105 C 
BRANCH  21  22
ATOM     22  C   UNL     1      -0.245  -0.948   6.037  0.00  0.00    +0.108 C 
BRANCH  22  23
ATOM     23  C   UNL     1      -0.356  -0.201   7.342  0.00  0.00    +0.228 A 
ATOM     24  N   UNL     1      -1.466   0.158   7.921  0.00  0.00    -0.191 NA
ATOM     25  C   UNL     1      -1.198   0.805   9.069  0.00  0.00    +0.202 A 
ATOM     26  N   UNL     1       0.102   0.861   9.225  0.00  0.00    -0.056 NA
ATOM     27  O   UNL     1       0.670   0.201   8.104  0.00  0.00    -0.338 OA
BRANCH  25  28
ATOM     28  C   UNL     1      -2.207   1.365  10.003  0.00  0.00    +0.022 A 
ATOM     29  C   UNL     1      -3.566   1.235   9.724  0.00  0.00    +0.012 A 
ATOM     30  C   UNL     1      -4.499   1.757  10.597  0.00  0.00    +0.004 A 
ATOM     31  C   UNL     1      -4.088   2.409  11.745  0.00  0.00    -0.045 A 
ATOM     32  C   UNL     1      -2.740   2.540  12.027  0.00  0.00    +0.004 A 
ATOM     33  C   UNL     1      -1.798   2.016  11.165  0.00  0.00    +0.012 A 
BRANCH  31  34
ATOM     34  C   UNL     1      -5.112   2.977  12.694  0.00  0.00    +0.013 C 
ATOM     35  C   UNL     1      -4.955   2.322  14.067  0.00  0.00    +0.012 C 
ATOM     36  C   UNL     1      -4.905   4.488  12.822  0.00  0.00    +0.012 C 
ENDBRANCH  31  34
ENDBRANCH  25  28
ENDBRANCH  22  23
ENDBRANCH  21  22
ENDBRANCH   2  21
TORSDOF 8
