REMARK  Name = ZINC59092646
REMARK  14 active torsions:
REMARK  status: ('A' for Active; 'I' for Inactive)
REMARK    1  A    between atoms: C_1  and  C_2
REMARK    2  A    between atoms: C_2  and  C_30
REMARK    3  A    between atoms: C_4  and  N_10
REMARK    4  A    between atoms: C_6  and  C_8
REMARK    5  A    between atoms: C_6  and  C_9
REMARK    6  A    between atoms: N_10  and  C_11
REMARK    7  A    between atoms: N_10  and  C_17
REMARK    8  A    between atoms: C_11  and  C_12
REMARK    9  A    between atoms: C_17  and  N_19
REMARK   10  A    between atoms: N_19  and  C_20
REMARK   11  A    between atoms: C_22  and  O_28
REMARK   12  A    between atoms: C_25  and  O_26
REMARK   13  A    between atoms: O_26  and  C_27
REMARK   14  A    between atoms: O_28  and  C_29
REMARK                            x       y       z     vdW  Elec       q    Type
REMARK                         _______ _______ _______ _____ _____    ______ ____
ROOT
ATOM      1  N   UNL     1      -3.608  -0.966   1.226  0.00  0.00    -0.305 N 
ENDROOT
BRANCH   1   5
ATOM      2  C   UNL     1      -0.079  -0.566   3.830  0.00  0.00    -0.010 C 
ATOM      3  C   UNL     1      -1.031   0.597   3.532  0.00  0.00    -0.072 C 
ATOM      4  C   UNL     1      -2.382   0.053   3.078  0.00  0.00    +0.009 C 
ATOM      5  C   UNL     1      -2.289  -0.478   1.648  0.00  0.00    +0.073 C 
ATOM      6  C   UNL     1      -1.863   0.675   0.738  0.00  0.00    +0.009 C 
ATOM      7  C   UNL     1      -0.508   1.224   1.175  0.00  0.00    -0.072 C 
ATOM      8  N   UNL     1      -0.443   1.534   2.592  0.00  0.00    +0.386 N 
ATOM      9  C   UNL     1      -0.269   2.537   0.394  0.00  0.00    -0.010 C 
ATOM     10  C   UNL     1       0.601   0.250   0.766  0.00  0.00    -0.010 C 
ATOM     11  C   UNL     1      -1.260   1.348   4.865  0.00  0.00    -0.010 C 
ATOM     12  H   UNL     1      -0.877   2.450   2.740  0.00  0.00    -0.084 HD
ATOM     13  H   UNL     1       0.541   1.669   2.846  0.00  0.00    -0.084 HD
ENDBRANCH   1   5
BRANCH   1  14
ATOM     14  C   UNL     1      -3.756  -2.243   0.820  0.00  0.00    +0.138 C 
ATOM     15  S   UNL     1      -2.433  -3.326   0.903  0.00  0.00    -0.018 S 
BRANCH  14  16
ATOM     16  N   UNL     1      -4.945  -2.666   0.349  0.00  0.00    -0.294 N 
ATOM     17  H   UNL     1      -5.675  -2.037   0.238  0.00  0.00    +0.154 HD
BRANCH  16  18
ATOM     18  C   UNL     1      -5.127  -4.016   0.019  0.00  0.00    +0.078 A 
ATOM     19  C   UNL     1      -4.176  -4.680  -0.741  0.00  0.00    +0.072 A 
ATOM     20  C   UNL     1      -4.359  -6.015  -1.065  0.00  0.00    +0.122 A 
ATOM     21  C   UNL     1      -5.493  -6.686  -0.632  0.00  0.00    +0.049 A 
ATOM     22  C   UNL     1      -6.443  -6.026   0.125  0.00  0.00    +0.051 A 
ATOM     23  C   UNL     1      -6.262  -4.694   0.458  0.00  0.00    +0.141 A 
BRANCH  23  24
ATOM     24  O   UNL     1      -7.194  -4.047   1.208  0.00  0.00    -0.493 OA
ATOM     25  C   UNL     1      -8.332  -4.805   1.624  0.00  0.00    +0.277 C 
ENDBRANCH  23  24
BRANCH  20  26
ATOM     26  O   UNL     1      -3.426  -6.667  -1.810  0.00  0.00    -0.495 OA
ATOM     27  C   UNL     1      -3.679  -8.042  -2.108  0.00  0.00    +0.277 C 
ENDBRANCH  20  26
ENDBRANCH  16  18
ENDBRANCH  14  16
ENDBRANCH   1  14
BRANCH   1  28
ATOM     28  C   UNL     1      -4.763  -0.065   1.245  0.00  0.00    +0.149 C 
BRANCH  28  29
ATOM     29  C   UNL     1      -4.876   0.636  -0.084  0.00  0.00    +0.007 A 
ATOM     30  C   UNL     1      -5.557   0.258  -1.193  0.00  0.00    +0.013 A 
ATOM     31  C   UNL     1      -5.519   1.068  -2.312  0.00  0.00    +0.008 A 
ATOM     32  C   UNL     1      -4.801   2.217  -2.268  0.00  0.00    +0.045 A 
ATOM     33  S   UNL     1      -4.154   2.183  -0.605  0.00  0.00    -0.100 S 
ENDBRANCH  28  29
ENDBRANCH   1  28
TORSDOF 8
