REMARK  Name = ZINC13430036
REMARK  7 active torsions:
REMARK  status: ('A' for Active; 'I' for Inactive)
REMARK    1  A    between atoms: C_1  and  C_2
REMARK    2  A    between atoms: N_5  and  S_11
REMARK    3  A    between atoms: C_7  and  C_10
REMARK    4  A    between atoms: S_11  and  C_14
REMARK    5  A    between atoms: C_17  and  C_20
REMARK    6  A    between atoms: N_22  and  C_23
REMARK    7  A    between atoms: C_28  and  C_29
REMARK                            x       y       z     vdW  Elec       q    Type
REMARK                         _______ _______ _______ _____ _____    ______ ____
ROOT
ATOM      1  C   UNL     1       5.425   7.636  -0.348  0.00  0.00    +0.106 A 
ATOM      2  C   UNL     1       6.537   6.845  -0.576  0.00  0.00    +0.029 A 
ATOM      3  C   UNL     1       6.417   5.471  -0.596  0.00  0.00    +0.015 A 
ATOM      4  C   UNL     1       5.171   4.878  -0.386  0.00  0.00    +0.037 A 
ATOM      5  C   UNL     1       4.052   5.683  -0.162  0.00  0.00    +0.015 A 
ATOM      6  C   UNL     1       4.186   7.055  -0.139  0.00  0.00    +0.029 A 
ENDROOT
BRANCH   4   7
ATOM      7  C   UNL     1       5.035   3.407  -0.406  0.00  0.00    +0.248 C 
ATOM      8  O   UNL     1       6.011   2.709  -0.607  0.00  0.00    -0.270 OA
ATOM      9  N   UNL     1       3.831   2.838  -0.203  0.00  0.00    -0.281 N 
ATOM     10  H   UNL     1       3.040   3.394  -0.119  0.00  0.00    +0.155 HD
BRANCH   9  11
ATOM     11  C   UNL     1       3.721   1.452  -0.113  0.00  0.00    +0.052 A 
ATOM     12  C   UNL     1       4.733   0.711   0.477  0.00  0.00    +0.073 A 
ATOM     13  C   UNL     1       4.625  -0.668   0.570  0.00  0.00    +0.164 A 
ATOM     14  C   UNL     1       3.496  -1.319   0.071  0.00  0.00    +0.163 A 
ATOM     15  C   UNL     1       2.480  -0.591  -0.516  0.00  0.00    +0.066 A 
ATOM     16  C   UNL     1       2.584   0.801  -0.618  0.00  0.00    +0.088 A 
ATOM     17  O   UNL     1       3.377  -2.673   0.160  0.00  0.00    -0.485 OA
ATOM     18  C   UNL     1       4.577  -3.408   0.422  0.00  0.00    +0.270 C 
ATOM     19  C   UNL     1       5.329  -2.710   1.563  0.00  0.00    +0.270 C 
ATOM     20  O   UNL     1       5.633  -1.374   1.150  0.00  0.00    -0.485 OA
BRANCH  16  21
ATOM     21  C   UNL     1       1.505   1.578  -1.247  0.00  0.00    +0.388 C 
ATOM     22  O   UNL     1       1.553   2.793  -1.250  0.00  0.00    -0.241 OA
ATOM     23  O   UNL     1       0.463   0.944  -1.820  0.00  0.00    -0.241 OA
ENDBRANCH  16  21
ENDBRANCH   9  11
ENDBRANCH   4   7
BRANCH   1  24
ATOM     24  S   UNL     1       5.586   9.390  -0.324  0.00  0.00    +0.061 S 
ATOM     25  O   UNL     1       4.503   9.887   0.450  0.00  0.00    -0.153 OA
ATOM     26  O   UNL     1       6.942   9.669  -0.004  0.00  0.00    -0.153 OA
BRANCH  24  30
ATOM     27  C   UNL     1       3.658   8.048  -3.426  0.00  0.00    +0.039 C 
ATOM     28  C   UNL     1       3.751   9.554  -3.678  0.00  0.00    +0.131 C 
ATOM     29  C   UNL     1       4.000  10.281  -2.351  0.00  0.00    +0.140 C 
ATOM     30  N   UNL     1       5.346   9.925  -1.873  0.00  0.00    -0.172 NA
ATOM     31  C   UNL     1       6.472  10.065  -2.809  0.00  0.00    +0.140 C 
ATOM     32  C   UNL     1       6.102   9.344  -4.115  0.00  0.00    +0.131 C 
ATOM     33  O   UNL     1       4.835   9.822  -4.572  0.00  0.00    -0.371 OA
ATOM     34  C   UNL     1       7.168   9.630  -5.175  0.00  0.00    +0.039 C 
ENDBRANCH  24  30
ENDBRANCH   1  24
TORSDOF 5
