REMARK  Name = ZINC36899244
REMARK  3 active torsions:
REMARK  status: ('A' for Active; 'I' for Inactive)
REMARK    1  A    between atoms: C_1  and  C_2
REMARK    2  A    between atoms: C_7  and  N_12
REMARK    3  A    between atoms: C_9  and  C_11
REMARK                            x       y       z     vdW  Elec       q    Type
REMARK                         _______ _______ _______ _____ _____    ______ ____
ROOT
ATOM      1  N   UNL     1       1.471  -2.526   2.420  0.00  0.00    -0.309 N 
ATOM      2  C   UNL     1       0.951  -3.343   3.411  0.00  0.00    +0.070 A 
ATOM      3  C   UNL     1      -0.287  -3.932   3.620  0.00  0.00    +0.029 A 
ATOM      4  C   UNL     1      -0.496  -4.713   4.737  0.00  0.00    +0.017 A 
ATOM      5  C   UNL     1       0.525  -4.913   5.656  0.00  0.00    +0.020 A 
ATOM      6  C   UNL     1       1.761  -4.336   5.464  0.00  0.00    +0.045 A 
ATOM      7  C   UNL     1       1.988  -3.543   4.337  0.00  0.00    +0.092 A 
ATOM      8  N   UNL     1       3.069  -2.856   3.881  0.00  0.00    -0.215 NA
ATOM      9  C   UNL     1       2.769  -2.262   2.753  0.00  0.00    +0.194 A 
ATOM     10  N   UNL     1       3.634  -1.484   2.013  0.00  0.00    -0.329 N 
ATOM     11 BR   UNL     1       0.217  -5.987   7.182  0.00  0.00    -0.050 Br
ATOM     12  H   UNL     1       3.333  -1.076   1.186  0.00  0.00    +0.145 HD
ATOM     13  H   UNL     1       4.544  -1.345   2.319  0.00  0.00    +0.145 HD
ENDROOT
BRANCH   1  19
ATOM     14  C   UNL     1      -0.019   1.526   0.010  0.00  0.00    +0.008 C 
ATOM     15  C   UNL     1       0.002  -0.004   0.002  0.00  0.00    -0.009 C 
ATOM     16  C   UNL     1       0.718  -0.497  -1.257  0.00  0.00    +0.004 C 
ATOM     17  C   UNL     1       0.739  -2.027  -1.265  0.00  0.00    +0.002 C 
ATOM     18  C   UNL     1       1.479  -2.534  -0.026  0.00  0.00    +0.025 C 
ATOM     19  C   UNL     1       0.763  -2.041   1.233  0.00  0.00    +0.094 C 
ATOM     20  C   UNL     1       0.742  -0.511   1.242  0.00  0.00    +0.012 C 
ATOM     21  C   UNL     1       0.026  -0.018   2.500  0.00  0.00    +0.010 C 
ENDBRANCH   1  19
TORSDOF 1
