REMARK  Name = ZINC09113689
REMARK  9 active torsions:
REMARK  status: ('A' for Active; 'I' for Inactive)
REMARK    1  A    between atoms: C_4  and  N_7
REMARK    2  A    between atoms: N_7  and  C_8
REMARK    3  A    between atoms: C_8  and  N_10
REMARK    4  A    between atoms: N_10  and  N_11
REMARK    5  A    between atoms: C_12  and  C_14
REMARK    6  A    between atoms: C_14  and  S_15
REMARK    7  A    between atoms: S_15  and  C_16
REMARK    8  A    between atoms: C_19  and  C_27
REMARK    9  A    between atoms: N_20  and  C_21
REMARK                            x       y       z     vdW  Elec       q    Type
REMARK                         _______ _______ _______ _____ _____    ______ ____
ROOT
ATOM      1  S   UNL     1       1.236  -6.530  -0.292  0.00  0.00    -0.077 S 
ENDROOT
BRANCH   1   2
ATOM      2  C   UNL     1       2.841  -7.147   0.089  0.00  0.00    +0.193 A 
ATOM      3  N   UNL     1       3.922  -6.430   0.301  0.00  0.00    -0.122 NA
ATOM      4  N   UNL     1       4.919  -7.200   0.556  0.00  0.00    -0.128 NA
ATOM      5  C   UNL     1       4.539  -8.455   0.513  0.00  0.00    +0.165 A 
ATOM      6  N   UNL     1       3.196  -8.461   0.213  0.00  0.00    -0.299 N 
BRANCH   5   7
ATOM      7  C   UNL     1       5.392  -9.640   0.744  0.00  0.00    +0.019 A 
ATOM      8  C   UNL     1       4.851 -10.793   1.315  0.00  0.00    +0.013 A 
ATOM      9  C   UNL     1       5.650 -11.898   1.523  0.00  0.00    +0.021 A 
ATOM     10  C   UNL     1       6.991 -11.860   1.177  0.00  0.00    +0.041 A 
ATOM     11  C   UNL     1       7.535 -10.718   0.616  0.00  0.00    +0.021 A 
ATOM     12  C   UNL     1       6.744  -9.609   0.398  0.00  0.00    +0.013 A 
ATOM     13 CL   UNL     1       7.993 -13.252   1.449  0.00  0.00    -0.084 Cl
ENDBRANCH   5   7
BRANCH   6  14
ATOM     14  C   UNL     1       2.328  -9.630   0.059  0.00  0.00    +0.091 C 
ATOM     15  C   UNL     1       1.680  -9.605  -1.327  0.00  0.00    +0.025 C 
ATOM     16  C   UNL     1       0.773 -10.827  -1.488  0.00  0.00    +0.002 C 
ATOM     17  C   UNL     1      -0.317 -10.799  -0.414  0.00  0.00    +0.000 C 
ATOM     18  C   UNL     1       0.332 -10.824   0.971  0.00  0.00    +0.002 C 
ATOM     19  C   UNL     1       1.239  -9.602   1.132  0.00  0.00    +0.025 C 
ENDBRANCH   6  14
ENDBRANCH   1   2
BRANCH   1  20
ATOM     20  C   UNL     1       1.571  -4.752  -0.277  0.00  0.00    +0.174 C 
BRANCH  20  22
ATOM     21  N   UNL     1       0.312  -2.652  -0.630  0.00  0.00    -0.234 N 
ATOM     22  C   UNL     1       0.302  -3.999  -0.587  0.00  0.00    +0.239 C 
ATOM     23  O   UNL     1      -0.727  -4.605  -0.797  0.00  0.00    -0.273 OA
ATOM     24  H   UNL     1       1.135  -2.167  -0.462  0.00  0.00    +0.173 HD
BRANCH  21  25
ATOM     25  N   UNL     1      -0.867  -1.952  -0.918  0.00  0.00    -0.246 N 
ATOM     26  H   UNL     1      -1.690  -2.437  -1.086  0.00  0.00    +0.172 HD
BRANCH  25  27
ATOM     27  C   UNL     1      -0.858  -0.605  -0.961  0.00  0.00    +0.151 C 
ATOM     28  S   UNL     1      -2.299   0.250  -1.313  0.00  0.00    -0.017 S 
BRANCH  27  29
ATOM     29  N   UNL     1       0.286   0.069  -0.728  0.00  0.00    -0.296 N 
ATOM     30  H   UNL     1       1.118  -0.415  -0.609  0.00  0.00    +0.154 HD
BRANCH  29  34
ATOM     31  C   UNL     1       0.247   4.229  -0.518  0.00  0.00    +0.000 A 
ATOM     32  C   UNL     1      -0.766   3.499   0.076  0.00  0.00    +0.002 A 
ATOM     33  C   UNL     1      -0.756   2.119   0.008  0.00  0.00    +0.023 A 
ATOM     34  C   UNL     1       0.273   1.466  -0.658  0.00  0.00    +0.033 A 
ATOM     35  C   UNL     1       1.292   2.202  -1.248  0.00  0.00    +0.023 A 
ATOM     36  C   UNL     1       1.273   3.581  -1.182  0.00  0.00    +0.002 A 
ENDBRANCH  29  34
ENDBRANCH  27  29
ENDBRANCH  25  27
ENDBRANCH  21  25
ENDBRANCH  20  22
ENDBRANCH   1  20
TORSDOF 9
