REMARK  Name = ZINC32961952
REMARK  9 active torsions:
REMARK  status: ('A' for Active; 'I' for Inactive)
REMARK    1  A    between atoms: C_1  and  C_2
REMARK    2  A    between atoms: C_2  and  C_3
REMARK    3  A    between atoms: C_2  and  C_4
REMARK    4  A    between atoms: C_7  and  S_10
REMARK    5  A    between atoms: S_10  and  N_13
REMARK    6  A    between atoms: N_13  and  C_14
REMARK    7  A    between atoms: C_16  and  C_33
REMARK    8  A    between atoms: C_19  and  N_20
REMARK    9  A    between atoms: N_23  and  C_26
REMARK                            x       y       z     vdW  Elec       q    Type
REMARK                         _______ _______ _______ _____ _____    ______ ____
ROOT
ATOM      1  C   UNL     1      -0.677   5.941  -1.197  0.00  0.00    +0.070 A 
ATOM      2  C   UNL     1      -0.574   7.295  -1.453  0.00  0.00    +0.041 A 
ATOM      3  C   UNL     1       0.688   7.885  -1.582  0.00  0.00    +0.065 A 
ATOM      4  C   UNL     1       1.840   7.104  -1.446  0.00  0.00    +0.017 A 
ATOM      5  C   UNL     1       1.732   5.756  -1.186  0.00  0.00    +0.026 A 
ATOM      6  C   UNL     1       0.479   5.167  -1.057  0.00  0.00    +0.052 A 
ENDROOT
BRANCH   6   7
ATOM      7  N   UNL     1       0.375   3.803  -0.794  0.00  0.00    -0.325 N 
ATOM      8  C   UNL     1      -0.227   3.092  -1.931  0.00  0.00    +0.124 C 
ATOM      9  C   UNL     1      -0.396   1.614  -1.572  0.00  0.00    +0.124 C 
ATOM     10  N   UNL     1       0.914   1.042  -1.230  0.00  0.00    -0.325 N 
ATOM     11  C   UNL     1       1.515   1.753  -0.093  0.00  0.00    +0.124 C 
ATOM     12  C   UNL     1       1.685   3.232  -0.452  0.00  0.00    +0.124 C 
BRANCH  10  13
ATOM     13  C   UNL     1       0.809  -0.327  -0.966  0.00  0.00    +0.065 A 
ATOM     14  C   UNL     1      -0.001  -0.776   0.068  0.00  0.00    +0.026 A 
ATOM     15  C   UNL     1      -0.105  -2.130   0.325  0.00  0.00    +0.002 A 
ATOM     16  C   UNL     1       0.603  -3.038  -0.441  0.00  0.00    +0.003 A 
ATOM     17  C   UNL     1       1.415  -2.595  -1.469  0.00  0.00    +0.040 A 
ATOM     18  C   UNL     1       1.521  -1.242  -1.734  0.00  0.00    +0.144 A 
ATOM     19  F   UNL     1       2.315  -0.809  -2.738  0.00  0.00    -0.204 F 
ENDBRANCH  10  13
ENDBRANCH   6   7
BRANCH   3  20
ATOM     20  C   UNL     1       0.803   9.328  -1.861  0.00  0.00    +0.387 C 
ATOM     21  O   UNL     1      -0.198  10.005  -1.979  0.00  0.00    -0.241 OA
ATOM     22  O   UNL     1       2.020   9.895  -1.985  0.00  0.00    -0.241 OA
ENDBRANCH   3  20
BRANCH   1  23
ATOM     23  N   UNL     1      -1.938   5.346  -1.073  0.00  0.00    -0.214 N 
ATOM     24  H   UNL     1      -2.091   4.527  -0.354  0.00  0.00    +0.174 HD
BRANCH  23  25
ATOM     25  S   UNL     1      -3.199   5.874  -2.007  0.00  0.00    +0.072 S 
ATOM     26  O   UNL     1      -4.289   5.000  -1.750  0.00  0.00    -0.150 OA
ATOM     27  O   UNL     1      -3.287   7.279  -1.814  0.00  0.00    -0.150 OA
BRANCH  25  31
ATOM     28  C   UNL     1      -2.021   5.234  -6.331  0.00  0.00    -0.045 A 
ATOM     29  C   UNL     1      -2.682   4.237  -5.640  0.00  0.00    +0.006 A 
ATOM     30  C   UNL     1      -3.042   4.432  -4.320  0.00  0.00    +0.029 A 
ATOM     31  C   UNL     1      -2.740   5.625  -3.690  0.00  0.00    +0.109 A 
ATOM     32  C   UNL     1      -2.083   6.625  -4.383  0.00  0.00    +0.029 A 
ATOM     33  C   UNL     1      -1.720   6.428  -5.702  0.00  0.00    +0.006 A 
BRANCH  28  35
ATOM     34  C   UNL     1      -2.301   6.080  -8.645  0.00  0.00    +0.012 C 
ATOM     35  C   UNL     1      -1.628   5.021  -7.770  0.00  0.00    +0.013 C 
ATOM     36  C   UNL     1      -0.108   5.138  -7.906  0.00  0.00    +0.012 C 
ENDBRANCH  28  35
ENDBRANCH  25  31
ENDBRANCH  23  25
ENDBRANCH   1  23
TORSDOF 7
