REMARK  Name = ZINC28286083
REMARK  10 active torsions:
REMARK  status: ('A' for Active; 'I' for Inactive)
REMARK    1  A    between atoms: C_1  and  C_2
REMARK    2  A    between atoms: C_2  and  C_3
REMARK    3  A    between atoms: C_3  and  C_5
REMARK    4  A    between atoms: C_3  and  C_34
REMARK    5  A    between atoms: C_5  and  N_6
REMARK    6  A    between atoms: C_25  and  C_27
REMARK    7  A    between atoms: C_25  and  C_28
REMARK    8  A    between atoms: C_30  and  S_32
REMARK    9  A    between atoms: S_32  and  C_33
REMARK   10  A    between atoms: C_34  and  O_35
REMARK                            x       y       z     vdW  Elec       q    Type
REMARK                         _______ _______ _______ _____ _____    ______ ____
ROOT
ATOM      1  N   UNL     1      -0.921   3.148   1.331  0.00  0.00    -0.328 N 
ATOM      2  C   UNL     1      -1.683   3.367   2.468  0.00  0.00    +0.138 A 
ATOM      3  C   UNL     1      -2.978   2.877   2.560  0.00  0.00    +0.080 A 
ATOM      4  C   UNL     1      -3.751   3.090   3.707  0.00  0.00    +0.094 A 
ATOM      5  C   UNL     1      -5.109   2.516   3.686  0.00  0.00    +0.038 A 
ATOM      6  C   UNL     1      -6.093   2.588   4.703  0.00  0.00    -0.024 A 
ATOM      7  C   UNL     1      -7.302   1.998   4.510  0.00  0.00    +0.022 A 
ATOM      8  C   UNL     1      -7.564   1.321   3.313  0.00  0.00    +0.128 A 
ATOM      9  N   UNL     1      -6.642   1.251   2.366  0.00  0.00    -0.224 NA
ATOM     10  C   UNL     1      -5.462   1.816   2.520  0.00  0.00    +0.113 A 
ATOM     11  S   UNL     1      -4.021   1.927   1.487  0.00  0.00    -0.064 S 
ATOM     12  N   UNL     1      -8.799   0.716   3.119  0.00  0.00    -0.310 N 
ATOM     13  C   UNL     1      -8.652  -0.736   2.940  0.00  0.00    +0.134 C 
ATOM     14  C   UNL     1     -10.038  -1.369   2.790  0.00  0.00    +0.178 C 
ATOM     15  O   UNL     1     -10.720  -0.754   1.694  0.00  0.00    -0.377 OA
ATOM     16  C   UNL     1     -10.881   0.660   1.835  0.00  0.00    +0.178 C 
ATOM     17  C   UNL     1      -9.504   1.313   1.976  0.00  0.00    +0.134 C 
ATOM     18  C   UNL     1      -8.384   2.058   5.558  0.00  0.00    +0.199 C 
ATOM     19  O   UNL     1      -7.831   2.443   6.816  0.00  0.00    -0.369 OA
ATOM     20  C   UNL     1      -7.041   3.636   6.744  0.00  0.00    +0.068 C 
ATOM     21  C   UNL     1      -5.756   3.317   5.976  0.00  0.00    +0.070 C 
ATOM     22  C   UNL     1      -7.822   4.728   6.011  0.00  0.00    +0.041 C 
ATOM     23  C   UNL     1      -6.693   4.110   8.156  0.00  0.00    +0.041 C 
ATOM     24  N   UNL     1      -3.164   3.802   4.697  0.00  0.00    -0.221 NA
ATOM     25  C   UNL     1      -1.935   4.257   4.576  0.00  0.00    +0.190 A 
ATOM     26  N   UNL     1      -1.191   4.057   3.495  0.00  0.00    -0.206 NA
ATOM     27  H   UNL     1      -1.340   2.576   0.489  0.00  0.00    +0.147 HD
ENDROOT
BRANCH  25  28
ATOM     28  S   UNL     1      -1.245   5.174   5.913  0.00  0.00    -0.089 S 
ATOM     29  C   UNL     1       0.393   5.536   5.233  0.00  0.00    +0.093 C 
ENDBRANCH  25  28
BRANCH   1  30
ATOM     30  C   UNL     1       0.442   3.678   1.249  0.00  0.00    +0.108 C 
BRANCH  30  31
ATOM     31  C   UNL     1       1.057   3.298  -0.099  0.00  0.00    +0.031 C 
BRANCH  31  33
ATOM     32  C   UNL     1       2.993   3.679  -1.632  0.00  0.00    +0.004 C 
ATOM     33  C   UNL     1       2.432   3.955  -0.236  0.00  0.00    +0.004 C 
ENDBRANCH  31  33
BRANCH  31  34
ATOM     34  C   UNL     1       1.209   1.778  -0.181  0.00  0.00    +0.160 C 
BRANCH  34  35
ATOM     35  O   UNL     1      -0.084   1.169  -0.170  0.00  0.00    -0.395 OA
ATOM     36  H   UNL     1      -0.177   0.074  -0.222  0.00  0.00    +0.209 HD
ENDBRANCH  34  35
ENDBRANCH  31  34
ENDBRANCH  30  31
ENDBRANCH   1  30
TORSDOF 6
