REMARK  Name = ZINC35227842
REMARK  8 active torsions:
REMARK  status: ('A' for Active; 'I' for Inactive)
REMARK    1  A    between atoms: C_1  and  C_2
REMARK    2  A    between atoms: N_5  and  C_8
REMARK    3  A    between atoms: C_11  and  N_20
REMARK    4  A    between atoms: C_13  and  C_14
REMARK    5  A    between atoms: N_16  and  C_17
REMARK    6  A    between atoms: C_17  and  C_18
REMARK    7  A    between atoms: C_17  and  C_19
REMARK    8  A    between atoms: N_23  and  C_24
REMARK                            x       y       z     vdW  Elec       q    Type
REMARK                         _______ _______ _______ _____ _____    ______ ____
ROOT
ATOM      1  C   UNL     1      -1.113  -3.472   2.084  0.00  0.00    +0.042 A 
ATOM      2  C   UNL     1      -1.045  -4.822   1.766  0.00  0.00    +0.026 A 
ATOM      3  C   UNL     1      -1.538  -5.766   2.643  0.00  0.00    +0.025 A 
ATOM      4  C   UNL     1      -2.106  -5.374   3.851  0.00  0.00    +0.036 A 
ATOM      5  C   UNL     1      -2.180  -4.034   4.183  0.00  0.00    +0.038 A 
ATOM      6  C   UNL     1      -1.678  -3.070   3.304  0.00  0.00    +0.059 A 
ENDROOT
BRANCH   1  11
ATOM      7  C   UNL     1       1.431  -1.656  -2.430  0.00  0.00    +0.007 C 
ATOM      8  C   UNL     1       0.682  -1.513  -1.103  0.00  0.00    -0.011 C 
ATOM      9  C   UNL     1       1.489  -2.182   0.012  0.00  0.00    +0.022 C 
ATOM     10  C   UNL     1       0.754  -2.007   1.345  0.00  0.00    +0.105 C 
ATOM     11  N   UNL     1      -0.615  -2.521   1.200  0.00  0.00    -0.329 N 
ATOM     12  C   UNL     1      -1.449  -2.011   0.102  0.00  0.00    +0.105 C 
ATOM     13  C   UNL     1      -0.688  -2.186  -1.216  0.00  0.00    +0.022 C 
ENDBRANCH   1  11
BRANCH   4  14
ATOM     14  N   UNL     1      -2.605  -6.342   4.735  0.00  0.00    -0.269 N 
ATOM     15  C   UNL     1      -1.988  -7.535   4.846  0.00  0.00    +0.308 C 
ATOM     16  O   UNL     1      -1.047  -7.803   4.124  0.00  0.00    -0.252 OA
ATOM     17  N   UNL     1      -2.414  -8.431   5.758  0.00  0.00    -0.268 N 
ATOM     18  H   UNL     1      -3.394  -6.152   5.267  0.00  0.00    +0.156 HD
ATOM     19  H   UNL     1      -3.214  -8.253   6.277  0.00  0.00    +0.156 HD
BRANCH  17  20
ATOM     20  C   UNL     1      -1.703  -9.621   5.955  0.00  0.00    +0.049 A 
ATOM     21  C   UNL     1      -0.321  -9.634   5.828  0.00  0.00    +0.024 A 
ATOM     22  C   UNL     1       0.378 -10.809   6.024  0.00  0.00    +0.002 A 
ATOM     23  C   UNL     1      -0.297 -11.972   6.345  0.00  0.00    +0.001 A 
ATOM     24  C   UNL     1      -1.674 -11.963   6.472  0.00  0.00    +0.017 A 
ATOM     25  C   UNL     1      -2.379 -10.790   6.284  0.00  0.00    +0.039 A 
ATOM     26 BR   UNL     1      -4.261 -10.776   6.465  0.00  0.00    -0.048 Br
ENDBRANCH  17  20
ENDBRANCH   4  14
BRANCH   6  27
ATOM     27  C   UNL     1      -1.749  -1.640   3.653  0.00  0.00    +0.246 C 
ATOM     28  O   UNL     1      -1.403  -0.799   2.845  0.00  0.00    -0.270 OA
ATOM     29  N   UNL     1      -2.196  -1.264   4.867  0.00  0.00    -0.309 N 
ATOM     30  H   UNL     1      -2.472  -1.934   5.512  0.00  0.00    +0.149 HD
BRANCH  29  31
ATOM     31  C   UNL     1      -2.267   0.158   5.214  0.00  0.00    +0.067 C 
ATOM     32  C   UNL     1      -3.325   0.367   6.299  0.00  0.00    +0.027 C 
ATOM     33  C   UNL     1      -0.905   0.624   5.734  0.00  0.00    +0.027 C 
ENDBRANCH  29  31
ENDBRANCH   6  27
TORSDOF 5
