REMARK  Name = ZINC51051786
REMARK  10 active torsions:
REMARK  status: ('A' for Active; 'I' for Inactive)
REMARK    1  A    between atoms: C_1  and  C_2
REMARK    2  A    between atoms: C_2  and  C_3
REMARK    3  A    between atoms: C_3  and  C_4
REMARK    4  A    between atoms: C_4  and  C_6
REMARK    5  A    between atoms: C_4  and  N_7
REMARK    6  A    between atoms: C_8  and  C_10
REMARK    7  A    between atoms: N_15  and  C_17
REMARK    8  A    between atoms: C_17  and  C_19
REMARK    9  A    between atoms: C_17  and  C_20
REMARK   10  A    between atoms: C_26  and  C_29
REMARK                            x       y       z     vdW  Elec       q    Type
REMARK                         _______ _______ _______ _____ _____    ______ ____
ROOT
ATOM      1  C   UNL     1       2.282  -4.054  -1.960  0.00  0.00    +0.058 C 
ATOM      2  C   UNL     1       3.680  -4.207  -1.353  0.00  0.00    +0.009 C 
ATOM      3  C   UNL     1       4.562  -5.001  -2.321  0.00  0.00    -0.018 C 
ATOM      4  C   UNL     1       3.904  -6.352  -2.610  0.00  0.00    -0.078 C 
ATOM      5  N   UNL     1       2.583  -6.138  -3.213  0.00  0.00    +0.388 N 
ATOM      6  C   UNL     1       1.708  -5.439  -2.263  0.00  0.00    -0.065 C 
ATOM      7  H   UNL     1       2.682  -5.581  -4.049  0.00  0.00    -0.081 HD
ENDROOT
BRANCH   1   9
ATOM      8  N   UNL     1       1.694  -2.096  -0.566  0.00  0.00    -0.313 N 
ATOM      9  C   UNL     1       1.384  -3.340  -0.982  0.00  0.00    +0.215 C 
ATOM     10  O   UNL     1       0.383  -3.886  -0.569  0.00  0.00    -0.276 OA
ATOM     11  H   UNL     1       2.496  -1.660  -0.896  0.00  0.00    +0.149 HD
BRANCH   8  12
ATOM     12  C   UNL     1       0.822  -1.403   0.384  0.00  0.00    +0.070 C 
ATOM     13  C   UNL     1       1.192  -1.814   1.811  0.00  0.00    +0.028 C 
BRANCH  12  14
ATOM     14  C   UNL     1       0.996   0.109   0.228  0.00  0.00    +0.022 C 
BRANCH  14  16
ATOM     15  C   UNL     1       0.682   2.050  -1.314  0.00  0.00    +0.004 C 
ATOM     16  C   UNL     1       0.508   0.538  -1.158  0.00  0.00    -0.002 C 
ENDBRANCH  14  16
ENDBRANCH  12  14
ENDBRANCH   8  12
ENDBRANCH   1   9
BRANCH   5  17
ATOM     17  C   UNL     1       1.989  -7.436  -3.560  0.00  0.00    +0.016 C 
ATOM     18  C   UNL     1       0.584  -7.218  -4.126  0.00  0.00    -0.004 C 
BRANCH  17  19
ATOM     19  C   UNL     1       2.846  -8.121  -4.593  0.00  0.00    +0.202 C 
ATOM     20  O   UNL     1       3.558  -7.464  -5.322  0.00  0.00    -0.277 OA
ATOM     21  N   UNL     1       2.822  -9.464  -4.705  0.00  0.00    -0.302 N 
ATOM     22  C   UNL     1       2.037 -10.280  -3.769  0.00  0.00    +0.108 C 
ATOM     23  C   UNL     1       1.103 -11.191  -4.571  0.00  0.00    +0.020 C 
ATOM     24  C   UNL     1       1.927 -12.002  -5.574  0.00  0.00    +0.016 C 
ATOM     25  C   UNL     1       2.628 -11.052  -6.548  0.00  0.00    +0.092 C 
ATOM     26  C   UNL     1       3.575 -10.139  -5.771  0.00  0.00    +0.120 C 
BRANCH  25  27
ATOM     27  C   UNL     1       3.412 -11.853  -7.555  0.00  0.00    +0.215 C 
ATOM     28  O   UNL     1       4.613 -11.708  -7.644  0.00  0.00    -0.276 OA
ATOM     29  N   UNL     1       2.779 -12.731  -8.357  0.00  0.00    -0.329 N 
ATOM     30  H   UNL     1       1.818 -12.848  -8.287  0.00  0.00    +0.145 HD
ATOM     31  H   UNL     1       3.283 -13.247  -9.006  0.00  0.00    +0.145 HD
ENDBRANCH  25  27
ENDBRANCH  17  19
ENDBRANCH   5  17
TORSDOF 7
