REMARK  Name = ZINC17444922
REMARK  10 active torsions:
REMARK  status: ('A' for Active; 'I' for Inactive)
REMARK    1  A    between atoms: C_1  and  C_2
REMARK    2  A    between atoms: C_4  and  C_15
REMARK    3  A    between atoms: C_5  and  C_14
REMARK    4  A    between atoms: N_6  and  C_7
REMARK    5  A    between atoms: N_17  and  N_18
REMARK    6  A    between atoms: C_19  and  C_21
REMARK    7  A    between atoms: C_21  and  N_22
REMARK    8  A    between atoms: C_23  and  C_28
REMARK    9  A    between atoms: C_31  and  O_34
REMARK   10  A    between atoms: O_34  and  C_35
REMARK                            x       y       z     vdW  Elec       q    Type
REMARK                         _______ _______ _______ _____ _____    ______ ____
ROOT
ATOM      1  N   UNL     1      -0.031  -4.448  -3.581  0.00  0.00    -0.233 N 
ATOM      2  C   UNL     1      -0.026  -4.349  -4.925  0.00  0.00    +0.249 C 
ATOM      3  O   UNL     1      -0.086  -3.259  -5.453  0.00  0.00    -0.272 OA
ATOM      4  H   UNL     1       0.017  -5.320  -3.159  0.00  0.00    +0.173 HD
ENDROOT
BRANCH   1   7
ATOM      5  C   UNL     1      -0.110  -3.390  -1.450  0.00  0.00    +0.262 C 
ATOM      6  O   UNL     1      -0.050  -4.484  -0.920  0.00  0.00    -0.269 OA
ATOM      7  N   UNL     1      -0.105  -3.292  -2.794  0.00  0.00    -0.230 N 
ATOM      8  H   UNL     1      -0.152  -2.420  -3.216  0.00  0.00    +0.173 HD
BRANCH   5  12
ATOM      9  C   UNL     1      -0.407   1.490   0.008  0.00  0.00    +0.064 C 
ATOM     10  C   UNL     1      -0.319  -0.014   0.001  0.00  0.00    +0.022 A 
ATOM     11  C   UNL     1      -0.265  -0.789  -1.097  0.00  0.00    +0.036 A 
ATOM     12  C   UNL     1      -0.187  -2.175  -0.622  0.00  0.00    +0.059 A 
ATOM     13  C   UNL     1      -0.201  -2.110   0.744  0.00  0.00    +0.033 A 
ATOM     14  N   UNL     1      -0.275  -0.814   1.108  0.00  0.00    -0.317 N 
ATOM     15  C   UNL     1      -0.139  -3.287   1.683  0.00  0.00    +0.064 C 
BRANCH  14  16
ATOM     16  C   UNL     1      -0.304  -0.352   2.432  0.00  0.00    +0.047 A 
ATOM     17  C   UNL     1       0.798  -0.534   3.256  0.00  0.00    +0.029 A 
ATOM     18  C   UNL     1       0.768  -0.078   4.559  0.00  0.00    +0.040 A 
ATOM     19  C   UNL     1      -0.362   0.559   5.045  0.00  0.00    +0.124 A 
ATOM     20  C   UNL     1      -1.463   0.740   4.224  0.00  0.00    +0.040 A 
ATOM     21  C   UNL     1      -1.434   0.291   2.919  0.00  0.00    +0.029 A 
ATOM     22  F   UNL     1      -0.390   1.003   6.320  0.00  0.00    -0.205 F 
ENDBRANCH  14  16
ENDBRANCH   5  12
ENDBRANCH   1   7
BRANCH   2  23
ATOM     23  C   UNL     1       0.053  -5.593  -5.772  0.00  0.00    +0.223 C 
BRANCH  23  24
ATOM     24  N   UNL     1       0.042  -5.221  -7.189  0.00  0.00    -0.292 N 
ATOM     25  C   UNL     1      -1.055  -5.112  -8.011  0.00  0.00    +0.165 A 
ATOM     26  N   UNL     1      -0.615  -4.756  -9.196  0.00  0.00    -0.128 NA
ATOM     27  N   UNL     1       0.664  -4.637  -9.171  0.00  0.00    -0.121 NA
ATOM     28  C   UNL     1       1.119  -4.905  -7.967  0.00  0.00    +0.203 A 
ATOM     29  S   UNL     1       2.805  -4.867  -7.455  0.00  0.00    -0.009 SA
BRANCH  25  30
ATOM     30  C   UNL     1      -2.464  -5.350  -7.633  0.00  0.00    +0.020 A 
ATOM     31  C   UNL     1      -3.417  -5.618  -8.617  0.00  0.00    +0.015 A 
ATOM     32  C   UNL     1      -4.730  -5.841  -8.260  0.00  0.00    +0.046 A 
ATOM     33  C   UNL     1      -5.105  -5.798  -6.923  0.00  0.00    +0.120 A 
ATOM     34  C   UNL     1      -4.160  -5.531  -5.942  0.00  0.00    +0.046 A 
ATOM     35  C   UNL     1      -2.844  -5.314  -6.290  0.00  0.00    +0.015 A 
BRANCH  33  36
ATOM     36  O   UNL     1      -6.400  -6.017  -6.576  0.00  0.00    -0.495 OA
ATOM     37  C   UNL     1      -6.717  -5.958  -5.184  0.00  0.00    +0.277 C 
ENDBRANCH  33  36
ENDBRANCH  25  30
ENDBRANCH  23  24
ENDBRANCH   2  23
TORSDOF 7
