REMARK  Name = ZINC65601176
REMARK  12 active torsions:
REMARK  status: ('A' for Active; 'I' for Inactive)
REMARK    1  A    between atoms: C_1  and  C_2
REMARK    2  A    between atoms: C_5  and  C_8
REMARK    3  A    between atoms: C_8  and  C_9
REMARK    4  A    between atoms: C_8  and  N_27
REMARK    5  A    between atoms: C_9  and  N_10
REMARK    6  A    between atoms: C_11  and  C_13
REMARK    7  A    between atoms: N_15  and  C_16
REMARK    8  A    between atoms: C_21  and  C_22
REMARK    9  A    between atoms: C_22  and  C_23
REMARK   10  A    between atoms: N_25  and  C_26
REMARK   11  A    between atoms: N_27  and  C_28
REMARK   12  A    between atoms: N_27  and  C_29
REMARK                            x       y       z     vdW  Elec       q    Type
REMARK                         _______ _______ _______ _____ _____    ______ ____
ROOT
ATOM      1  N   UNL     1      -1.273  -6.364   0.196  0.00  0.00    -0.309 N 
ATOM      2  C   UNL     1      -2.358  -7.156   0.307  0.00  0.00    +0.299 C 
ATOM      3  O   UNL     1      -3.461  -6.662   0.417  0.00  0.00    -0.265 OA
ATOM      4  H   UNL     1      -0.391  -6.759   0.108  0.00  0.00    +0.149 HD
ENDROOT
BRANCH   2   5
ATOM      5  C   UNL     1      -2.202  -8.642   0.295  0.00  0.00    +0.303 C 
ATOM      6  O   UNL     1      -1.099  -9.136   0.185  0.00  0.00    -0.265 OA
ATOM      7  N   UNL     1      -3.287  -9.434   0.406  0.00  0.00    -0.277 N 
ATOM      8  H   UNL     1      -4.158  -9.042   0.578  0.00  0.00    +0.155 HD
BRANCH   7   9
ATOM      9  C   UNL     1      -3.157 -10.819   0.274  0.00  0.00    +0.037 A 
ATOM     10  C   UNL     1      -2.099 -11.353  -0.451  0.00  0.00    +0.023 A 
ATOM     11  C   UNL     1      -1.974 -12.722  -0.579  0.00  0.00    +0.002 A 
ATOM     12  C   UNL     1      -2.901 -13.561   0.013  0.00  0.00    +0.000 A 
ATOM     13  C   UNL     1      -3.955 -13.033   0.735  0.00  0.00    +0.006 A 
ATOM     14  C   UNL     1      -4.083 -11.665   0.872  0.00  0.00    -0.017 A 
BRANCH  14  15
ATOM     15  C   UNL     1      -5.228 -11.090   1.665  0.00  0.00    +0.132 C 
BRANCH  15  16
ATOM     16  C   UNL     1      -6.361 -10.746   0.734  0.00  0.00    +0.217 C 
ATOM     17  O   UNL     1      -6.250 -10.947  -0.457  0.00  0.00    -0.275 OA
ATOM     18  N   UNL     1      -7.499 -10.214   1.224  0.00  0.00    -0.318 N 
ATOM     19  C   UNL     1      -8.601  -9.880   0.318  0.00  0.00    +0.128 C 
ATOM     20  H   UNL     1      -7.588 -10.053   2.176  0.00  0.00    +0.148 HD
ENDBRANCH  15  16
ENDBRANCH  14  15
ENDBRANCH   7   9
ENDBRANCH   2   5
BRANCH   1  21
ATOM     21  C   UNL     1      -1.425  -4.907   0.208  0.00  0.00    +0.094 C 
BRANCH  21  22
ATOM     22  C   UNL     1      -0.069  -4.250  -0.057  0.00  0.00    -0.021 C 
BRANCH  22  27
ATOM     23  C   UNL     1       1.878  -5.886  -5.246  0.00  0.00    +0.044 C 
ATOM     24  C   UNL     1       1.371  -5.459  -3.893  0.00  0.00    -0.050 A 
ATOM     25  C   UNL     1       1.852  -6.070  -2.750  0.00  0.00    +0.003 A 
ATOM     26  C   UNL     1       1.386  -5.678  -1.509  0.00  0.00    +0.002 A 
ATOM     27  C   UNL     1       0.439  -4.676  -1.410  0.00  0.00    -0.059 A 
ATOM     28  C   UNL     1      -0.042  -4.065  -2.553  0.00  0.00    +0.002 A 
ATOM     29  C   UNL     1       0.427  -4.454  -3.794  0.00  0.00    +0.003 A 
ENDBRANCH  22  27
BRANCH  22  30
ATOM     30  N   UNL     1      -0.219  -2.789  -0.028  0.00  0.00    +0.382 N 
ATOM     31  C   UNL     1      -0.604  -2.363   1.324  0.00  0.00    -0.096 C 
ATOM     32  C   UNL     1       1.056  -2.159  -0.395  0.00  0.00    -0.096 C 
ATOM     33  H   UNL     1      -0.933  -2.511  -0.684  0.00  0.00    -0.082 HD
ENDBRANCH  22  30
ENDBRANCH  21  22
ENDBRANCH   1  21
TORSDOF 8
