REMARK  Name = ZINC31161284
REMARK  10 active torsions:
REMARK  status: ('A' for Active; 'I' for Inactive)
REMARK    1  A    between atoms: C_1  and  C_2
REMARK    2  A    between atoms: C_7  and  C_30
REMARK    3  A    between atoms: C_7  and  C_31
REMARK    4  A    between atoms: C_11  and  C_29
REMARK    5  A    between atoms: C_12  and  C_14
REMARK    6  A    between atoms: C_14  and  C_15
REMARK    7  A    between atoms: C_16  and  O_28
REMARK    8  A    between atoms: C_19  and  C_26
REMARK    9  A    between atoms: C_20  and  O_25
REMARK   10  A    between atoms: C_26  and  O_27
REMARK                            x       y       z     vdW  Elec       q    Type
REMARK                         _______ _______ _______ _____ _____    ______ ____
ROOT
ATOM      1  C   UNL     1      -0.471   4.428   0.664  0.00  0.00    +0.049 C 
ENDROOT
BRANCH   1  12
ATOM      2  C   UNL     1      -1.994   2.628  -1.541  0.00  0.00    +0.039 C 
ATOM      3  C   UNL     1      -2.402   3.135  -0.181  0.00  0.00    -0.073 C 
ATOM      4  C   UNL     1      -3.631   3.482  -0.001  0.00  0.00    -0.027 C 
ATOM      5  C   UNL     1      -4.189   3.997   1.286  0.00  0.00    +0.031 C 
ATOM      6  C   UNL     1      -3.116   4.326   2.333  0.00  0.00    +0.005 C 
ATOM      7  C   UNL     1      -3.830   4.378   3.688  0.00  0.00    -0.031 C 
ATOM      8  C   UNL     1      -4.239   2.990   4.165  0.00  0.00    +0.007 C 
ATOM      9  C   UNL     1      -3.090   1.992   4.113  0.00  0.00    +0.001 C 
ATOM     10  C   UNL     1      -2.513   1.923   2.700  0.00  0.00    +0.007 C 
ATOM     11  C   UNL     1      -1.994   3.300   2.289  0.00  0.00    -0.022 C 
ATOM     12  C   UNL     1      -1.368   3.210   0.892  0.00  0.00    +0.023 C 
ATOM     13  C   UNL     1      -0.828   3.686   3.216  0.00  0.00    +0.012 C 
ATOM     14  C   UNL     1      -3.009   5.094   4.760  0.00  0.00    +0.011 C 
ATOM     15  C   UNL     1      -5.128   5.207   3.526  0.00  0.00    +0.011 C 
ENDBRANCH   1  12
BRANCH   1  16
ATOM     16  C   UNL     1       0.409   4.190  -0.564  0.00  0.00    +0.129 C 
ATOM     17  C   UNL     1       1.448   3.062  -0.450  0.00  0.00    +0.172 C 
ATOM     18  C   UNL     1       2.087   2.860  -1.802  0.00  0.00    +0.011 C 
ATOM     19  C   UNL     1       2.464   3.890  -2.518  0.00  0.00    -0.015 C 
ATOM     20  C   UNL     1       2.265   5.294  -2.003  0.00  0.00    +0.174 C 
ATOM     21  C   UNL     1       0.853   5.400  -1.407  0.00  0.00    +0.186 C 
ATOM     22  O   UNL     1      -0.138   4.440  -1.861  0.00  0.00    -0.359 OA
BRANCH  20  23
ATOM     23  O   UNL     1       3.235   5.580  -0.993  0.00  0.00    -0.385 OA
ATOM     24  H   UNL     1       3.243   6.564  -0.501  0.00  0.00    +0.210 HD
ENDBRANCH  20  23
BRANCH  17  25
ATOM     25  O   UNL     1       0.803   1.855  -0.039  0.00  0.00    -0.385 OA
ATOM     26  H   UNL     1       1.391   0.936   0.097  0.00  0.00    +0.210 HD
ENDBRANCH  17  25
BRANCH  19  27
ATOM     27  C   UNL     1       3.101   3.671  -3.866  0.00  0.00    +0.189 C 
BRANCH  27  28
ATOM     28  O   UNL     1       3.181   2.269  -4.133  0.00  0.00    -0.391 OA
ATOM     29  H   UNL     1       3.620   1.913  -5.077  0.00  0.00    +0.210 HD
ENDBRANCH  27  28
ENDBRANCH  19  27
ENDBRANCH   1  16
TORSDOF 6
