REMARK  Name = ZINC14668001
REMARK  10 active torsions:
REMARK  status: ('A' for Active; 'I' for Inactive)
REMARK    1  A    between atoms: C_1  and  C_2
REMARK    2  A    between atoms: C_2  and  C_4
REMARK    3  A    between atoms: C_2  and  O_21
REMARK    4  A    between atoms: N_6  and  N_7
REMARK    5  A    between atoms: C_8  and  C_10
REMARK    6  A    between atoms: C_15  and  O_16
REMARK    7  A    between atoms: O_16  and  C_17
REMARK    8  A    between atoms: C_17  and  C_18
REMARK    9  A    between atoms: C_17  and  C_19
REMARK   10  A    between atoms: O_21  and  C_22
REMARK                            x       y       z     vdW  Elec       q    Type
REMARK                         _______ _______ _______ _____ _____    ______ ____
ROOT
ATOM      1  C   UNL     1      -2.030  -0.554   0.081  0.00  0.00    +0.270 C 
ATOM      2  O   UNL     1      -2.418  -0.880   1.183  0.00  0.00    -0.270 OA
ATOM      3  N   UNL     1      -2.901  -0.475  -0.944  0.00  0.00    -0.231 N 
ATOM      4  H   UNL     1      -2.591  -0.214  -1.825  0.00  0.00    +0.173 HD
ENDROOT
BRANCH   3   5
ATOM      5  N   UNL     1      -4.256  -0.769  -0.737  0.00  0.00    -0.230 N 
ATOM      6  C   UNL     1      -5.127  -0.689  -1.762  0.00  0.00    +0.264 C 
ATOM      7  O   UNL     1      -4.738  -0.362  -2.867  0.00  0.00    -0.269 OA
ATOM      8  H   UNL     1      -4.566  -1.030   0.144  0.00  0.00    +0.173 HD
BRANCH   6   9
ATOM      9  C   UNL     1      -6.553  -0.999  -1.544  0.00  0.00    +0.081 A 
ATOM     10  C   UNL     1      -7.005  -1.370  -0.275  0.00  0.00    +0.032 A 
ATOM     11  C   UNL     1      -8.339  -1.657  -0.078  0.00  0.00    +0.019 A 
ATOM     12  C   UNL     1      -9.234  -1.581  -1.134  0.00  0.00    +0.019 A 
ATOM     13  C   UNL     1      -8.799  -1.216  -2.393  0.00  0.00    +0.047 A 
ATOM     14  C   UNL     1      -7.462  -0.918  -2.607  0.00  0.00    +0.133 A 
ATOM     15 BR   UNL     1      -8.950  -2.159   1.640  0.00  0.00    -0.050 Br
BRANCH  14  16
ATOM     16  O   UNL     1      -7.035  -0.553  -3.842  0.00  0.00    -0.489 OA
BRANCH  16  17
ATOM     17  C   UNL     1      -8.034  -0.378  -4.849  0.00  0.00    +0.167 C 
ATOM     18  C   UNL     1      -7.515   0.583  -5.920  0.00  0.00    +0.051 C 
ATOM     19  C   UNL     1      -8.357  -1.729  -5.489  0.00  0.00    +0.051 C 
ENDBRANCH  16  17
ENDBRANCH  14  16
ENDBRANCH   6   9
ENDBRANCH   3   5
BRANCH   1  21
ATOM     20  C   UNL     1      -0.424   1.238  -0.513  0.00  0.00    +0.062 C 
ATOM     21  C   UNL     1      -0.574  -0.238  -0.141  0.00  0.00    +0.257 C 
BRANCH  21  22
ATOM     22  O   UNL     1       0.160  -0.505   1.056  0.00  0.00    -0.478 OA
BRANCH  22  23
ATOM     23  C   UNL     1       1.486  -0.771   0.920  0.00  0.00    +0.140 A 
ATOM     24  C   UNL     1       2.091  -0.670  -0.324  0.00  0.00    +0.048 A 
ATOM     25  C   UNL     1       3.439  -0.941  -0.460  0.00  0.00    +0.023 A 
ATOM     26  C   UNL     1       4.186  -1.314   0.644  0.00  0.00    +0.043 A 
ATOM     27  C   UNL     1       3.585  -1.417   1.886  0.00  0.00    +0.043 A 
ATOM     28  C   UNL     1       2.238  -1.140   2.027  0.00  0.00    +0.084 A 
ATOM     29 CL   UNL     1       1.485  -1.262   3.587  0.00  0.00    -0.080 Cl
ATOM     30 CL   UNL     1       5.879  -1.655   0.469  0.00  0.00    -0.083 Cl
ENDBRANCH  22  23
ENDBRANCH  21  22
ENDBRANCH   1  21
TORSDOF 7
