REMARK  Name = ZINC67573237
REMARK  6 active torsions:
REMARK  status: ('A' for Active; 'I' for Inactive)
REMARK    1  A    between atoms: C_1  and  C_2
REMARK    2  A    between atoms: C_9  and  C_11
REMARK    3  A    between atoms: C_11  and  C_13
REMARK    4  A    between atoms: C_11  and  N_14
REMARK    5  A    between atoms: N_17  and  C_18
REMARK    6  A    between atoms: C_21  and  C_24
REMARK                            x       y       z     vdW  Elec       q    Type
REMARK                         _______ _______ _______ _____ _____    ______ ____
ROOT
ATOM      1  N   UNL     1       2.476   0.914   4.128  0.00  0.00    -0.288 N 
ATOM      2  C   UNL     1       3.580   0.867   4.900  0.00  0.00    +0.304 C 
ATOM      3  O   UNL     1       4.388  -0.029   4.752  0.00  0.00    -0.252 OA
ATOM      4  N   UNL     1       3.787   1.813   5.837  0.00  0.00    -0.269 N 
ATOM      5  H   UNL     1       1.831   1.629   4.246  0.00  0.00    +0.151 HD
ATOM      6  H   UNL     1       3.110   2.486   6.005  0.00  0.00    +0.156 HD
ENDROOT
BRANCH   4   7
ATOM      7  C   UNL     1       4.979   1.825   6.566  0.00  0.00    +0.035 A 
ATOM      8  C   UNL     1       6.168   1.436   5.960  0.00  0.00    +0.024 A 
ATOM      9  C   UNL     1       7.345   1.446   6.677  0.00  0.00    +0.013 A 
ATOM     10  C   UNL     1       7.342   1.848   8.012  0.00  0.00    +0.023 A 
ATOM     11  C   UNL     1       6.149   2.239   8.618  0.00  0.00    +0.013 A 
ATOM     12  C   UNL     1       4.975   2.231   7.896  0.00  0.00    +0.024 A 
BRANCH  10  13
ATOM     13  C   UNL     1       8.607   1.860   8.787  0.00  0.00    +0.202 A 
ATOM     14  N   UNL     1       8.734   2.220  10.077  0.00  0.00    -0.194 NA
ATOM     15  C   UNL     1       9.978   2.116  10.448  0.00  0.00    +0.343 A 
ATOM     16  O   UNL     1      10.698   1.683   9.405  0.00  0.00    -0.341 OA
ATOM     17  N   UNL     1       9.787   1.516   8.330  0.00  0.00    -0.056 NA
ENDBRANCH  10  13
ENDBRANCH   4   7
BRANCH   1  18
ATOM     18  C   UNL     1       2.251  -0.115   3.110  0.00  0.00    +0.157 C 
ATOM     19  C   UNL     1       1.572  -1.327   3.751  0.00  0.00    +0.038 C 
BRANCH  18  27
ATOM     20  C   UNL     1       0.116   1.780   0.057  0.00  0.00    +0.028 C 
ATOM     21  C   UNL     1       0.395   0.301  -0.220  0.00  0.00    +0.073 C 
ATOM     22  C   UNL     1       1.231   0.166  -1.496  0.00  0.00    +0.022 C 
ATOM     23  C   UNL     1       1.624  -1.300  -1.692  0.00  0.00    +0.003 C 
ATOM     24  C   UNL     1       2.473  -1.765  -0.507  0.00  0.00    +0.019 C 
ATOM     25  C   UNL     1       1.651  -1.652   0.781  0.00  0.00    +0.108 C 
ATOM     26  N   UNL     1       1.144  -0.278   0.903  0.00  0.00    -0.297 N 
ATOM     27  C   UNL     1       1.366   0.439   2.023  0.00  0.00    +0.236 C 
ATOM     28  O   UNL     1       0.854   1.530   2.155  0.00  0.00    -0.274 OA
ENDBRANCH  18  27
ENDBRANCH   1  18
TORSDOF 4
