REMARK  Name = ZINC12972681
REMARK  11 active torsions:
REMARK  status: ('A' for Active; 'I' for Inactive)
REMARK    1  A    between atoms: C_1  and  C_2
REMARK    2  A    between atoms: C_3  and  C_36
REMARK    3  A    between atoms: C_4  and  C_33
REMARK    4  A    between atoms: C_5  and  S_9
REMARK    5  A    between atoms: C_7  and  C_8
REMARK    6  A    between atoms: S_9  and  C_10
REMARK    7  A    between atoms: C_10  and  C_11
REMARK    8  A    between atoms: C_14  and  C_25
REMARK    9  A    between atoms: C_17  and  C_19
REMARK   10  A    between atoms: C_28  and  O_31
REMARK   11  A    between atoms: O_31  and  C_32
REMARK                            x       y       z     vdW  Elec       q    Type
REMARK                         _______ _______ _______ _____ _____    ______ ____
ROOT
ATOM      1  C   UNL     1       4.353  -1.914  -0.050  0.00  0.00    +0.246 C 
ATOM      2  O   UNL     1       5.538  -2.172  -0.063  0.00  0.00    -0.273 OA
ATOM      3  N   UNL     1       3.943  -0.630  -0.039  0.00  0.00    -0.184 N 
ATOM      4  C   UNL     1       4.823   0.549  -0.041  0.00  0.00    +0.137 C 
ATOM      5  C   UNL     1       3.838   1.735  -0.031  0.00  0.00    +0.087 C 
ATOM      6  C   UNL     1       2.477   1.078  -0.015  0.00  0.00    +0.069 C 
ATOM      7  N   UNL     1       2.617  -0.203  -0.024  0.00  0.00    -0.181 NA
ENDROOT
BRANCH   6   8
ATOM      8  C   UNL     1       1.187   1.792   0.000  0.00  0.00    -0.002 A 
ATOM      9  C   UNL     1      -0.013   1.076   0.008  0.00  0.00    +0.010 A 
ATOM     10  C   UNL     1      -1.215   1.751   0.017  0.00  0.00    +0.001 A 
ATOM     11  C   UNL     1      -1.236   3.134   0.031  0.00  0.00    +0.000 A 
ATOM     12  C   UNL     1      -0.052   3.851   0.023  0.00  0.00    +0.001 A 
ATOM     13  C   UNL     1       1.158   3.189   0.008  0.00  0.00    +0.010 A 
ENDBRANCH   6   8
BRANCH   4  14
ATOM     14  C   UNL     1       5.692   0.565   1.191  0.00  0.00    -0.024 A 
ATOM     15  C   UNL     1       5.170   0.169   2.408  0.00  0.00    +0.009 A 
ATOM     16  C   UNL     1       5.966   0.177   3.538  0.00  0.00    +0.046 A 
ATOM     17  C   UNL     1       7.286   0.594   3.451  0.00  0.00    +0.120 A 
ATOM     18  C   UNL     1       7.806   0.996   2.229  0.00  0.00    +0.046 A 
ATOM     19  C   UNL     1       7.007   0.980   1.102  0.00  0.00    +0.009 A 
BRANCH  17  20
ATOM     20  O   UNL     1       8.070   0.607   4.561  0.00  0.00    -0.495 OA
ATOM     21  C   UNL     1       7.468   0.180   5.785  0.00  0.00    +0.277 C 
ENDBRANCH  17  20
ENDBRANCH   4  14
BRANCH   1  22
ATOM     22  C   UNL     1       3.338  -3.029  -0.045  0.00  0.00    +0.173 C 
BRANCH  22  23
ATOM     23  S   UNL     1       4.195  -4.623  -0.062  0.00  0.00    -0.096 S 
BRANCH  23  28
ATOM     24  C   UNL     1      -0.589  -8.249  -0.033  0.00  0.00    +0.046 C 
ATOM     25  C   UNL     1       0.641  -7.378  -0.040  0.00  0.00    -0.026 A 
ATOM     26  C   UNL     1       1.901  -7.950  -0.056  0.00  0.00    -0.031 A 
ATOM     27  C   UNL     1       3.016  -7.105  -0.064  0.00  0.00    +0.071 A 
ATOM     28  C   UNL     1       2.811  -5.714  -0.054  0.00  0.00    +0.110 A 
ATOM     29  N   UNL     1       1.582  -5.219  -0.034  0.00  0.00    -0.245 NA
ATOM     30  C   UNL     1       0.519  -6.000  -0.032  0.00  0.00    +0.043 A 
ATOM     31  C   UNL     1      -0.854  -5.379  -0.015  0.00  0.00    +0.066 C 
ATOM     32  C   UNL     1       2.067  -9.448  -0.066  0.00  0.00    +0.045 C 
BRANCH  27  33
ATOM     33  C   UNL     1       4.380  -7.662  -0.081  0.00  0.00    +0.244 C 
ATOM     34  O   UNL     1       4.954  -7.898   0.965  0.00  0.00    -0.270 OA
ATOM     35  N   UNL     1       4.992  -7.911  -1.256  0.00  0.00    -0.325 N 
ATOM     36  H   UNL     1       4.534  -7.723  -2.090  0.00  0.00    +0.145 HD
ATOM     37  H   UNL     1       5.889  -8.278  -1.268  0.00  0.00    +0.145 HD
ENDBRANCH  27  33
ENDBRANCH  23  28
ENDBRANCH  22  23
ENDBRANCH   1  22
TORSDOF 7
