REMARK  Name = ZINC16040838
REMARK  2 active torsions:
REMARK  status: ('A' for Active; 'I' for Inactive)
REMARK    1  A    between atoms: C_16  and  C_18
REMARK    2  A    between atoms: N_23  and  C_26
REMARK                            x       y       z     vdW  Elec       q    Type
REMARK                         _______ _______ _______ _____ _____    ______ ____
ROOT
ATOM      1  C   UNL     1       0.280   2.195  -0.359  0.00  0.00    +0.001 A 
ATOM      2  C   UNL     1       1.548   2.742  -0.457  0.00  0.00    +0.000 A 
ATOM      3  C   UNL     1       2.667   1.932  -0.359  0.00  0.00    +0.006 A 
ATOM      4  C   UNL     1       2.521   0.579  -0.162  0.00  0.00    -0.019 A 
ATOM      5  C   UNL     1       1.242   0.016  -0.057  0.00  0.00    -0.019 A 
ATOM      6  C   UNL     1       0.120   0.840  -0.160  0.00  0.00    +0.008 A 
ATOM      7  C   UNL     1       1.083  -1.435   0.171  0.00  0.00    +0.023 C 
ATOM      8  C   UNL     1       2.118  -2.261  -0.080  0.00  0.00    +0.072 C 
ATOM      9  N   UNL     1       3.289  -1.661  -0.524  0.00  0.00    -0.316 N 
ATOM     10  C   UNL     1       3.718  -0.330  -0.059  0.00  0.00    +0.117 C 
ATOM     11  C   UNL     1       4.855   0.139  -0.975  0.00  0.00    +0.115 C 
ATOM     12  C   UNL     1       5.416  -1.188  -1.573  0.00  0.00    +0.119 C 
ATOM     13  C   UNL     1       4.228  -2.158  -1.524  0.00  0.00    +0.172 C 
ATOM     14  C   UNL     1       6.460  -1.577  -0.549  0.00  0.00    +0.232 C 
ATOM     15  O   UNL     1       6.919  -2.688  -0.388  0.00  0.00    -0.274 OA
ATOM     16  N   UNL     1       6.791  -0.480   0.152  0.00  0.00    -0.210 N 
ATOM     17  C   UNL     1       6.008   0.611  -0.102  0.00  0.00    +0.232 C 
ATOM     18  O   UNL     1       6.189   1.747   0.281  0.00  0.00    -0.274 OA
ENDROOT
BRANCH  16  19
ATOM     19  C   UNL     1       7.852  -0.452   1.070  0.00  0.00    +0.048 A 
ATOM     20  C   UNL     1       8.055   0.669   1.862  0.00  0.00    +0.028 A 
ATOM     21  C   UNL     1       9.098   0.698   2.767  0.00  0.00    +0.051 A 
ATOM     22  C   UNL     1       9.946  -0.392   2.886  0.00  0.00    +0.166 A 
ATOM     23  C   UNL     1       9.745  -1.518   2.092  0.00  0.00    +0.168 A 
ATOM     24  C   UNL     1       8.695  -1.548   1.189  0.00  0.00    +0.073 A 
ATOM     25  O   UNL     1      10.702  -2.443   2.396  0.00  0.00    -0.453 OA
ATOM     26  C   UNL     1      11.733  -1.715   3.089  0.00  0.00    +0.466 C 
ATOM     27  O   UNL     1      11.029  -0.611   3.688  0.00  0.00    -0.453 OA
ENDBRANCH  16  19
BRANCH  13  28
ATOM     28  C   UNL     1       4.707  -3.533  -1.135  0.00  0.00    +0.232 C 
ATOM     29  O   UNL     1       4.586  -3.917   0.009  0.00  0.00    -0.274 OA
ATOM     30  N   UNL     1       5.270  -4.337  -2.060  0.00  0.00    -0.328 N 
ATOM     31  H   UNL     1       5.367  -4.030  -2.975  0.00  0.00    +0.145 HD
ATOM     32  H   UNL     1       5.578  -5.222  -1.810  0.00  0.00    +0.145 HD
ENDBRANCH  13  28
TORSDOF 2
