REMARK  Name = ZINC16572527
REMARK  11 active torsions:
REMARK  status: ('A' for Active; 'I' for Inactive)
REMARK    1  A    between atoms: C_1  and  C_2
REMARK    2  A    between atoms: C_2  and  C_3
REMARK    3  A    between atoms: C_2  and  C_4
REMARK    4  A    between atoms: C_8  and  C_35
REMARK    5  A    between atoms: C_9  and  N_10
REMARK    6  A    between atoms: C_17  and  C_19
REMARK    7  A    between atoms: C_25  and  C_27
REMARK    8  A    between atoms: C_30  and  O_33
REMARK    9  A    between atoms: O_33  and  C_34
REMARK   10  A    between atoms: C_35  and  C_36
REMARK   11  A    between atoms: C_35  and  C_37
REMARK                            x       y       z     vdW  Elec       q    Type
REMARK                         _______ _______ _______ _____ _____    ______ ____
ROOT
ATOM      1  N   UNL     1      -9.505  10.050  -2.658  0.00  0.00    -0.269 N 
ATOM      2  C   UNL     1      -9.241   9.187  -1.658  0.00  0.00    +0.307 C 
ATOM      3  O   UNL     1      -8.107   8.781  -1.488  0.00  0.00    -0.252 OA
ATOM      4  N   UNL     1     -10.234   8.772  -0.846  0.00  0.00    -0.274 N 
ATOM      5  C   UNL     1     -11.651   9.182  -0.934  0.00  0.00    +0.110 C 
ATOM      6  C   UNL     1     -12.439   8.030  -0.262  0.00  0.00    +0.021 C 
ATOM      7  C   UNL     1     -11.486   7.636   0.898  0.00  0.00    +0.033 C 
ATOM      8  C   UNL     1     -10.087   7.837   0.279  0.00  0.00    +0.164 C 
ATOM      9  H   UNL     1     -10.420  10.312  -2.844  0.00  0.00    +0.156 HD
ENDROOT
BRANCH   8  10
ATOM     10  C   UNL     1      -9.149   8.415   1.307  0.00  0.00    +0.239 C 
ATOM     11  O   UNL     1      -8.909   9.604   1.308  0.00  0.00    -0.273 OA
ATOM     12  N   UNL     1      -8.578   7.611   2.226  0.00  0.00    -0.262 N 
ATOM     13  C   UNL     1      -7.714   8.144   3.174  0.00  0.00    +0.188 A 
ATOM     14  N   UNL     1      -7.316   9.396   3.357  0.00  0.00    -0.125 NA
ATOM     15  N   UNL     1      -6.521   9.716   4.282  0.00  0.00    -0.140 NA
ATOM     16  C   UNL     1      -6.025   8.815   5.122  0.00  0.00    +0.134 A 
ATOM     17  S   UNL     1      -6.820   7.336   4.499  0.00  0.00    -0.030 S 
ATOM     18  H   UNL     1      -8.771   6.660   2.225  0.00  0.00    +0.157 HD
BRANCH  16  19
ATOM     19  C   UNL     1      -5.089   8.985   6.253  0.00  0.00    +0.009 A 
ATOM     20  C   UNL     1      -4.700   7.880   7.012  0.00  0.00    +0.014 A 
ATOM     21  C   UNL     1      -3.830   8.043   8.069  0.00  0.00    +0.046 A 
ATOM     22  C   UNL     1      -3.334   9.304   8.374  0.00  0.00    +0.120 A 
ATOM     23  C   UNL     1      -3.715  10.405   7.618  0.00  0.00    +0.046 A 
ATOM     24  C   UNL     1      -4.588  10.251   6.563  0.00  0.00    +0.014 A 
BRANCH  22  25
ATOM     25  O   UNL     1      -2.474   9.460   9.413  0.00  0.00    -0.495 OA
ATOM     26  C   UNL     1      -2.002  10.784   9.671  0.00  0.00    +0.277 C 
ENDBRANCH  22  25
ENDBRANCH  16  19
ENDBRANCH   8  10
BRANCH   1  32
ATOM     27  C   UNL     1      -8.239  11.941  -3.470  0.00  0.00    -0.023 A 
ATOM     28  C   UNL     1      -7.202  12.450  -4.226  0.00  0.00    +0.006 A 
ATOM     29  C   UNL     1      -6.389  11.598  -4.951  0.00  0.00    +0.001 A 
ATOM     30  C   UNL     1      -6.608  10.233  -4.916  0.00  0.00    +0.006 A 
ATOM     31  C   UNL     1      -7.641   9.717  -4.157  0.00  0.00    -0.023 A 
ATOM     32  C   UNL     1      -8.458  10.570  -3.428  0.00  0.00    +0.042 A 
BRANCH  27  34
ATOM     33  C   UNL     1      -8.283  13.662  -1.685  0.00  0.00    +0.012 C 
ATOM     34  C   UNL     1      -9.128  12.871  -2.686  0.00  0.00    +0.015 C 
ATOM     35  C   UNL     1      -9.823  13.840  -3.644  0.00  0.00    +0.012 C 
ENDBRANCH  27  34
BRANCH  31  36
ATOM     36  C   UNL     1      -7.879   8.229  -4.120  0.00  0.00    +0.015 C 
ATOM     37  C   UNL     1      -8.761   7.824  -5.302  0.00  0.00    +0.012 C 
ATOM     38  C   UNL     1      -6.539   7.496  -4.208  0.00  0.00    +0.012 C 
ENDBRANCH  31  36
ENDBRANCH   1  32
TORSDOF 6
