REMARK  Name = ZINC43978883
REMARK  9 active torsions:
REMARK  status: ('A' for Active; 'I' for Inactive)
REMARK    1  A    between atoms: C_1  and  C_2
REMARK    2  A    between atoms: C_5  and  N_8
REMARK    3  A    between atoms: C_10  and  C_15
REMARK    4  A    between atoms: N_17  and  C_18
REMARK    5  A    between atoms: C_18  and  C_19
REMARK    6  A    between atoms: N_27  and  C_28
REMARK    7  A    between atoms: C_28  and  C_29
REMARK    8  A    between atoms: C_28  and  C_30
REMARK    9  A    between atoms: C_28  and  C_31
REMARK                            x       y       z     vdW  Elec       q    Type
REMARK                         _______ _______ _______ _____ _____    ______ ____
ROOT
ATOM      1  C   UNL     1       0.555  -7.483   1.437  0.00  0.00    +0.218 C 
ATOM      2  O   UNL     1       1.438  -7.171   2.208  0.00  0.00    -0.275 OA
ATOM      3  N   UNL     1       0.302  -8.784   1.193  0.00  0.00    -0.315 N 
ATOM      4  H   UNL     1      -0.404  -9.034   0.577  0.00  0.00    +0.149 HD
ENDROOT
BRANCH   1   7
ATOM      5  N   UNL     1       0.084  -4.172  -0.021  0.00  0.00    -0.271 N 
ATOM      6  C   UNL     1       0.205  -5.006   1.180  0.00  0.00    +0.127 C 
ATOM      7  C   UNL     1      -0.259  -6.416   0.751  0.00  0.00    +0.101 C 
ATOM      8  C   UNL     1       0.026  -6.393  -0.768  0.00  0.00    +0.110 C 
ATOM      9  C   UNL     1      -0.018  -4.925  -1.130  0.00  0.00    +0.221 C 
ATOM     10  O   UNL     1      -0.128  -4.490  -2.257  0.00  0.00    -0.275 OA
BRANCH   5  15
ATOM     11  C   UNL     1       0.029   1.501   0.013  0.00  0.00    +0.044 C 
ATOM     12  C   UNL     1       0.044  -0.006   0.004  0.00  0.00    -0.050 A 
ATOM     13  C   UNL     1       0.048  -0.689  -1.199  0.00  0.00    +0.005 A 
ATOM     14  C   UNL     1       0.061  -2.070  -1.210  0.00  0.00    +0.024 A 
ATOM     15  C   UNL     1       0.071  -2.773  -0.013  0.00  0.00    +0.036 A 
ATOM     16  C   UNL     1       0.067  -2.084   1.193  0.00  0.00    +0.024 A 
ATOM     17  C   UNL     1       0.059  -0.703   1.198  0.00  0.00    +0.005 A 
ENDBRANCH   5  15
ENDBRANCH   1   7
BRANCH   3  18
ATOM     18  C   UNL     1       1.093  -9.822   1.860  0.00  0.00    +0.107 C 
BRANCH  18  19
ATOM     19  C   UNL     1       0.606 -11.201   1.411  0.00  0.00    +0.009 C 
ATOM     20  C   UNL     1      -0.832 -11.415   1.891  0.00  0.00    +0.024 C 
ATOM     21  C   UNL     1      -1.328 -12.783   1.411  0.00  0.00    +0.109 C 
ATOM     22  N   UNL     1      -0.382 -13.813   1.861  0.00  0.00    -0.286 N 
ATOM     23  C   UNL     1       1.041 -13.658   1.531  0.00  0.00    +0.109 C 
ATOM     24  C   UNL     1       1.511 -12.281   2.010  0.00  0.00    +0.024 C 
ATOM     25  C   UNL     1      -0.812 -14.880   2.562  0.00  0.00    +0.303 C 
ATOM     26  O   UNL     1      -2.002 -15.048   2.746  0.00  0.00    -0.253 OA
ATOM     27  N   UNL     1       0.078 -15.762   3.061  0.00  0.00    -0.294 N 
ATOM     28  H   UNL     1       1.029 -15.590   2.979  0.00  0.00    +0.151 HD
BRANCH  27  29
ATOM     29  C   UNL     1      -0.392 -16.980   3.726  0.00  0.00    +0.028 C 
ATOM     30  C   UNL     1      -1.224 -17.808   2.745  0.00  0.00    +0.031 C 
ATOM     31  C   UNL     1       0.810 -17.801   4.195  0.00  0.00    +0.031 C 
ATOM     32  C   UNL     1      -1.254 -16.602   4.933  0.00  0.00    +0.031 C 
ENDBRANCH  27  29
ENDBRANCH  18  19
ENDBRANCH   3  18
TORSDOF 5
