REMARK  Name = ZINC38905309
REMARK  8 active torsions:
REMARK  status: ('A' for Active; 'I' for Inactive)
REMARK    1  A    between atoms: C_1  and  O_2
REMARK    2  A    between atoms: O_2  and  C_3
REMARK    3  A    between atoms: C_6  and  N_32
REMARK    4  A    between atoms: C_8  and  N_9
REMARK    5  A    between atoms: C_10  and  C_12
REMARK    6  A    between atoms: N_17  and  C_19
REMARK    7  A    between atoms: C_19  and  C_20
REMARK    8  A    between atoms: C_22  and  C_25
REMARK                            x       y       z     vdW  Elec       q    Type
REMARK                         _______ _______ _______ _____ _____    ______ ____
ROOT
ATOM      1  C   UNL     1       1.147  -4.923   0.181  0.00  0.00    +0.059 C 
ATOM      2  C   UNL     1       1.924  -4.496   1.430  0.00  0.00    +0.009 C 
ATOM      3  C   UNL     1       3.176  -5.368   1.562  0.00  0.00    -0.018 C 
ATOM      4  C   UNL     1       2.764  -6.840   1.611  0.00  0.00    -0.078 C 
ATOM      5  N   UNL     1       2.049  -7.193   0.379  0.00  0.00    +0.386 N 
ATOM      6  C   UNL     1       0.809  -6.412   0.280  0.00  0.00    -0.065 C 
ATOM      7  H   UNL     1       2.635  -6.993  -0.418  0.00  0.00    -0.081 HD
ENDROOT
BRANCH   1   9
ATOM      8  N   UNL     1      -0.074  -2.780  -0.012  0.00  0.00    -0.282 N 
ATOM      9  C   UNL     1      -0.127  -4.124   0.083  0.00  0.00    +0.219 C 
ATOM     10  O   UNL     1      -1.200  -4.689   0.090  0.00  0.00    -0.275 OA
ATOM     11  H   UNL     1       0.783  -2.334  -0.098  0.00  0.00    +0.155 HD
BRANCH   8  17
ATOM     12  C   UNL     1      -1.294  -0.766  -0.572  0.00  0.00    +0.141 A 
ATOM     13  C   UNL     1      -2.468  -0.030  -0.547  0.00  0.00    +0.050 A 
ATOM     14  C   UNL     1      -3.596  -0.546   0.062  0.00  0.00    +0.036 A 
ATOM     15  C   UNL     1      -3.557  -1.798   0.649  0.00  0.00    +0.128 A 
ATOM     16  C   UNL     1      -2.391  -2.538   0.629  0.00  0.00    +0.059 A 
ATOM     17  C   UNL     1      -1.256  -2.029   0.014  0.00  0.00    +0.078 A 
BRANCH  15  18
ATOM     18  N   UNL     1      -4.768  -2.345   1.302  0.00  0.00    +0.056 N 
ATOM     19  O   UNL     1      -5.789  -1.698   1.321  0.00  0.00    -0.126 OA
ATOM     20  O   UNL     1      -4.736  -3.438   1.816  0.00  0.00    -0.126 OA
ENDBRANCH  15  18
BRANCH  12  22
ATOM     21  C   UNL     1      -0.296   1.042  -1.751  0.00  0.00    +0.277 C 
ATOM     22  O   UNL     1      -0.184  -0.259  -1.171  0.00  0.00    -0.493 OA
ENDBRANCH  12  22
ENDBRANCH   8  17
ENDBRANCH   1   9
BRANCH   5  23
ATOM     23  C   UNL     1       1.723  -8.625   0.396  0.00  0.00    +0.022 C 
BRANCH  23  24
ATOM     24  C   UNL     1       2.996  -9.430   0.363  0.00  0.00    +0.211 A 
ATOM     25  N   UNL     1       3.668  -9.836   1.403  0.00  0.00    -0.193 NA
ATOM     26  C   UNL     1       4.752 -10.528   1.010  0.00  0.00    +0.202 A 
ATOM     27  N   UNL     1       4.773 -10.565  -0.300  0.00  0.00    -0.056 NA
ATOM     28  O   UNL     1       3.626  -9.855  -0.741  0.00  0.00    -0.340 OA
BRANCH  26  29
ATOM     29  C   UNL     1       5.757 -11.147   1.910  0.00  0.00    +0.023 A 
ATOM     30  C   UNL     1       5.617 -11.040   3.292  0.00  0.00    +0.013 A 
ATOM     31  C   UNL     1       6.555 -11.616   4.124  0.00  0.00    +0.016 A 
ATOM     32  C   UNL     1       7.632 -12.300   3.588  0.00  0.00    +0.018 A 
ATOM     33  C   UNL     1       7.776 -12.409   2.216  0.00  0.00    +0.016 A 
ATOM     34  C   UNL     1       6.840 -11.841   1.375  0.00  0.00    +0.013 A 
ATOM     35 BR   UNL     1       8.913 -13.087   4.735  0.00  0.00    -0.050 Br
ENDBRANCH  26  29
ENDBRANCH  23  24
ENDBRANCH   5  23
TORSDOF 7
