REMARK  Name = ZINC25529585
REMARK  4 active torsions:
REMARK  status: ('A' for Active; 'I' for Inactive)
REMARK    1  A    between atoms: C_8  and  C_10
REMARK    2  A    between atoms: C_16  and  C_18
REMARK    3  A    between atoms: N_20  and  N_21
REMARK    4  A    between atoms: C_22  and  C_24
REMARK                            x       y       z     vdW  Elec       q    Type
REMARK                         _______ _______ _______ _____ _____    ______ ____
ROOT
ATOM      1  C   UNL     1       0.739  -2.004  -1.265  0.00  0.00    +0.233 C 
ATOM      2  O   UNL     1       0.231  -2.623  -0.354  0.00  0.00    -0.274 OA
ATOM      3  N   UNL     1       1.322  -2.665  -2.285  0.00  0.00    -0.234 N 
ATOM      4  H   UNL     1       1.783  -2.104  -3.111  0.00  0.00    +0.173 HD
ENDROOT
BRANCH   1  10
ATOM      5  C   UNL     1       0.002  -0.004   0.002  0.00  0.00    +0.057 C 
ATOM      6  C   UNL     1      -0.019   1.526   0.010  0.00  0.00    +0.011 C 
ATOM      7  C   UNL     1       1.417   2.055  -0.000  0.00  0.00    +0.001 C 
ATOM      8  C   UNL     1       2.133   1.562  -1.259  0.00  0.00    +0.001 C 
ATOM      9  C   UNL     1       2.154   0.032  -1.268  0.00  0.00    +0.013 C 
ATOM     10  C   UNL     1       0.718  -0.497  -1.257  0.00  0.00    +0.086 C 
BRANCH   5  18
ATOM     11  C   UNL     1      -5.321  -2.806   1.381  0.00  0.00    +0.002 A 
ATOM     12  C   UNL     1      -5.951  -2.323   0.242  0.00  0.00    +0.001 A 
ATOM     13  C   UNL     1      -5.247  -1.518  -0.633  0.00  0.00    +0.017 A 
ATOM     14  C   UNL     1      -3.936  -1.211  -0.361  0.00  0.00    +0.039 A 
ATOM     15  C   UNL     1      -3.269  -1.689   0.790  0.00  0.00    +0.078 A 
ATOM     16  C   UNL     1      -4.024  -2.509   1.659  0.00  0.00    +0.029 A 
ATOM     17  N   UNL     1      -1.985  -1.290   0.899  0.00  0.00    -0.244 NA
ATOM     18  C   UNL     1      -1.412  -0.526   0.013  0.00  0.00    +0.083 A 
ATOM     19  S   UNL     1      -2.671  -0.247  -1.149  0.00  0.00    -0.072 S 
ENDBRANCH   5  18
ENDBRANCH   1  10
BRANCH   3  20
ATOM     20  N   UNL     1       1.341  -4.066  -2.293  0.00  0.00    -0.231 N 
ATOM     21  C   UNL     1       1.924  -4.726  -3.313  0.00  0.00    +0.273 C 
ATOM     22  O   UNL     1       2.432  -4.108  -4.224  0.00  0.00    -0.270 OA
ATOM     23  H   UNL     1       0.880  -4.627  -1.466  0.00  0.00    +0.173 HD
BRANCH  21  24
ATOM     24  C   UNL     1       1.944  -6.233  -3.321  0.00  0.00    +0.297 C 
ATOM     25  C   UNL     1       2.803  -6.745  -2.157  0.00  0.00    +0.283 C 
ATOM     26  O   UNL     1       2.812  -8.176  -2.202  0.00  0.00    -0.484 OA
ATOM     27  C   UNL     1       3.031  -8.748  -3.418  0.00  0.00    +0.162 A 
ATOM     28  C   UNL     1       3.407 -10.082  -3.485  0.00  0.00    +0.049 A 
ATOM     29  C   UNL     1       3.630 -10.678  -4.712  0.00  0.00    +0.004 A 
ATOM     30  C   UNL     1       3.479  -9.947  -5.875  0.00  0.00    +0.004 A 
ATOM     31  C   UNL     1       3.107  -8.617  -5.816  0.00  0.00    +0.049 A 
ATOM     32  C   UNL     1       2.882  -8.013  -4.588  0.00  0.00    +0.163 A 
ATOM     33  O   UNL     1       2.521  -6.701  -4.545  0.00  0.00    -0.472 OA
ENDBRANCH  21  24
ENDBRANCH   3  20
TORSDOF 4
