REMARK  Name = ZINC19818670
REMARK  7 active torsions:
REMARK  status: ('A' for Active; 'I' for Inactive)
REMARK    1  A    between atoms: C_5  and  N_7
REMARK    2  A    between atoms: N_10  and  C_13
REMARK    3  A    between atoms: C_13  and  C_14
REMARK    4  A    between atoms: C_22  and  C_24
REMARK    5  A    between atoms: C_24  and  C_25
REMARK    6  A    between atoms: N_27  and  C_28
REMARK    7  A    between atoms: C_32  and  C_34
REMARK                            x       y       z     vdW  Elec       q    Type
REMARK                         _______ _______ _______ _____ _____    ______ ____
ROOT
ATOM      1  C   UNL     1      -7.208   4.255   1.444  0.00  0.00    +0.200 C 
ATOM      2  O   UNL     1      -6.863   3.374   2.203  0.00  0.00    -0.278 OA
ATOM      3  N   UNL     1      -8.432   4.806   1.562  0.00  0.00    -0.289 N 
ATOM      4  C   UNL     1      -8.836   5.960   0.742  0.00  0.00    +0.127 C 
ATOM      5  C   UNL     1     -10.036   5.534  -0.115  0.00  0.00    +0.123 C 
ATOM      6  N   UNL     1     -11.026   4.837   0.694  0.00  0.00    -0.312 N 
ATOM      7  C   UNL     1     -10.766   4.233   1.854  0.00  0.00    +0.234 C 
ATOM      8  O   UNL     1     -11.657   3.616   2.398  0.00  0.00    -0.274 OA
ATOM      9  C   UNL     1      -9.417   4.282   2.520  0.00  0.00    +0.170 C 
ATOM     10  H   UNL     1     -12.071   4.782   0.357  0.00  0.00    +0.149 HD
ENDROOT
BRANCH   1  11
ATOM     11  C   UNL     1      -6.266   4.735   0.369  0.00  0.00    +0.019 C 
BRANCH  11  15
ATOM     12  N   UNL     1      -2.179   3.694   0.612  0.00  0.00    -0.331 N 
ATOM     13  C   UNL     1      -3.029   3.426   1.780  0.00  0.00    +0.086 C 
ATOM     14  C   UNL     1      -4.292   4.286   1.698  0.00  0.00    -0.059 C 
ATOM     15  N   UNL     1      -5.007   3.983   0.450  0.00  0.00    +0.387 N 
ATOM     16  C   UNL     1      -4.158   4.251  -0.719  0.00  0.00    -0.059 C 
ATOM     17  C   UNL     1      -2.894   3.391  -0.636  0.00  0.00    +0.086 C 
ATOM     18  H   UNL     1      -5.254   2.911   0.452  0.00  0.00    -0.081 HD
BRANCH  12  23
ATOM     19  C   UNL     1       0.190   0.886   0.744  0.00  0.00    +0.002 A 
ATOM     20  C   UNL     1       1.393   1.561   0.841  0.00  0.00    +0.003 A 
ATOM     21  C   UNL     1       1.414   2.944   0.862  0.00  0.00    +0.040 A 
ATOM     22  C   UNL     1       0.231   3.655   0.786  0.00  0.00    +0.144 A 
ATOM     23  C   UNL     1      -0.980   2.978   0.689  0.00  0.00    +0.065 A 
ATOM     24  C   UNL     1      -0.996   1.591   0.662  0.00  0.00    +0.026 A 
ATOM     25  F   UNL     1       0.251   5.006   0.806  0.00  0.00    -0.204 F 
ENDBRANCH  12  23
ENDBRANCH  11  15
ENDBRANCH   1  11
BRANCH   9  26
ATOM     26  C   UNL     1      -9.009   2.873   2.956  0.00  0.00    +0.128 C 
BRANCH  26  27
ATOM     27  C   UNL     1      -8.906   1.983   1.744  0.00  0.00    +0.219 C 
ATOM     28  O   UNL     1      -9.064   2.447   0.635  0.00  0.00    -0.275 OA
ATOM     29  N   UNL     1      -8.639   0.670   1.894  0.00  0.00    -0.285 N 
ATOM     30  H   UNL     1      -8.409   0.266   2.891  0.00  0.00    +0.155 HD
BRANCH  29  31
ATOM     31  C   UNL     1      -8.652  -0.177   0.781  0.00  0.00    +0.034 A 
ATOM     32  C   UNL     1      -9.447   0.128  -0.317  0.00  0.00    +0.023 A 
ATOM     33  C   UNL     1      -9.455  -0.709  -1.415  0.00  0.00    +0.002 A 
ATOM     34  C   UNL     1      -8.681  -1.854  -1.420  0.00  0.00    +0.012 A 
ATOM     35  C   UNL     1      -7.892  -2.164  -0.327  0.00  0.00    +0.057 A 
ATOM     36  C   UNL     1      -7.876  -1.329   0.773  0.00  0.00    +0.035 A 
BRANCH  35  37
ATOM     37  C   UNL     1      -7.050  -3.413  -0.336  0.00  0.00    +0.417 C 
ATOM     38  F   UNL     1      -7.790  -4.478   0.190  0.00  0.00    -0.166 F 
ATOM     39  F   UNL     1      -6.673  -3.712  -1.650  0.00  0.00    -0.166 F 
ATOM     40  F   UNL     1      -5.906  -3.210   0.443  0.00  0.00    -0.166 F 
ENDBRANCH  35  37
ENDBRANCH  29  31
ENDBRANCH  26  27
ENDBRANCH   9  26
TORSDOF 7
