REMARK  Name = ZINC40368181
REMARK  8 active torsions:
REMARK  status: ('A' for Active; 'I' for Inactive)
REMARK    1  A    between atoms: C_1  and  C_2
REMARK    2  A    between atoms: C_3  and  C_27
REMARK    3  A    between atoms: C_4  and  C_13
REMARK    4  A    between atoms: C_17  and  N_19
REMARK    5  A    between atoms: C_20  and  C_22
REMARK    6  A    between atoms: N_29  and  C_30
REMARK    7  A    between atoms: C_35  and  O_36
REMARK    8  A    between atoms: O_36  and  C_37
REMARK                            x       y       z     vdW  Elec       q    Type
REMARK                         _______ _______ _______ _____ _____    ______ ____
ROOT
ATOM      1  C   UNL     1       0.138   1.323   0.388  0.00  0.00    +0.064 C 
ATOM      2  C   UNL     1       0.112  -0.181   0.294  0.00  0.00    +0.025 C 
ATOM      3  C   UNL     1      -1.083  -0.828   0.216  0.00  0.00    +0.058 C 
ATOM      4  C   UNL     1      -1.102  -2.327   0.049  0.00  0.00    +0.143 C 
ATOM      5  N   UNL     1       0.147  -2.883   0.600  0.00  0.00    -0.300 N 
ATOM      6  C   UNL     1       0.075  -4.155   1.309  0.00  0.00    +0.109 C 
ATOM      7  C   UNL     1       1.246  -5.076   1.001  0.00  0.00    +0.030 C 
ATOM      8  C   UNL     1       2.540  -4.445   1.534  0.00  0.00    +0.078 C 
ATOM      9  S   UNL     1       2.875  -2.964   0.533  0.00  0.00    -0.092 S 
ATOM     10  C   UNL     1       1.300  -2.171   0.456  0.00  0.00    +0.135 C 
ATOM     11  N   UNL     1       1.258  -0.856   0.284  0.00  0.00    -0.341 N 
ATOM     12  H   UNL     1       2.087  -0.371   0.150  0.00  0.00    +0.167 HD
ENDROOT
BRANCH   4  13
ATOM     13  C   UNL     1      -1.209  -2.671  -1.414  0.00  0.00    -0.021 A 
ATOM     14  C   UNL     1      -0.082  -2.637  -2.216  0.00  0.00    +0.006 A 
ATOM     15  C   UNL     1      -0.176  -2.952  -3.559  0.00  0.00    +0.002 A 
ATOM     16  C   UNL     1      -1.396  -3.302  -4.104  0.00  0.00    +0.023 A 
ATOM     17  C   UNL     1      -2.529  -3.337  -3.302  0.00  0.00    +0.034 A 
ATOM     18  C   UNL     1      -2.430  -3.025  -1.952  0.00  0.00    +0.029 A 
BRANCH  17  19
ATOM     19  N   UNL     1      -3.766  -3.691  -3.852  0.00  0.00    -0.285 N 
ATOM     20  C   UNL     1      -4.071  -3.330  -5.114  0.00  0.00    +0.220 C 
ATOM     21  O   UNL     1      -3.242  -2.774  -5.802  0.00  0.00    -0.275 OA
ATOM     22  H   UNL     1      -4.404  -4.197  -3.324  0.00  0.00    +0.155 HD
BRANCH  20  23
ATOM     23  C   UNL     1      -5.442  -3.616  -5.669  0.00  0.00    +0.075 C 
ATOM     24  C   UNL     1      -5.686  -5.139  -5.716  0.00  0.00    +0.013 C 
ATOM     25  C   UNL     1      -6.492  -5.354  -7.021  0.00  0.00    +0.001 C 
ATOM     26  C   UNL     1      -5.840  -4.343  -7.996  0.00  0.00    +0.001 C 
ATOM     27  C   UNL     1      -5.540  -3.110  -7.119  0.00  0.00    +0.013 C 
ENDBRANCH  20  23
ENDBRANCH  17  19
ENDBRANCH   4  13
BRANCH   3  28
ATOM     28  C   UNL     1      -2.289  -0.106   0.290  0.00  0.00    +0.248 C 
ATOM     29  O   UNL     1      -2.266   1.105   0.425  0.00  0.00    -0.270 OA
ATOM     30  N   UNL     1      -3.468  -0.753   0.211  0.00  0.00    -0.279 N 
ATOM     31  H   UNL     1      -3.488  -1.722   0.185  0.00  0.00    +0.155 HD
BRANCH  30  32
ATOM     32  C   UNL     1      -4.664  -0.026   0.168  0.00  0.00    +0.076 A 
ATOM     33  C   UNL     1      -4.668   1.279  -0.304  0.00  0.00    +0.027 A 
ATOM     34  C   UNL     1      -5.850   1.994  -0.346  0.00  0.00    +0.002 A 
ATOM     35  C   UNL     1      -7.030   1.413   0.081  0.00  0.00    +0.004 A 
ATOM     36  C   UNL     1      -7.034   0.113   0.552  0.00  0.00    +0.047 A 
ATOM     37  C   UNL     1      -5.854  -0.613   0.592  0.00  0.00    +0.141 A 
BRANCH  37  38
ATOM     38  O   UNL     1      -5.857  -1.894   1.049  0.00  0.00    -0.493 OA
ATOM     39  C   UNL     1      -7.114  -2.431   1.467  0.00  0.00    +0.277 C 
ENDBRANCH  37  38
ENDBRANCH  30  32
ENDBRANCH   3  28
TORSDOF 6
