REMARK  Name = ZINC13081086
REMARK  10 active torsions:
REMARK  status: ('A' for Active; 'I' for Inactive)
REMARK    1  A    between atoms: C_1  and  C_2
REMARK    2  A    between atoms: C_5  and  N_8
REMARK    3  A    between atoms: C_9  and  C_11
REMARK    4  A    between atoms: C_12  and  C_39
REMARK    5  A    between atoms: C_16  and  C_18
REMARK    6  A    between atoms: C_26  and  C_29
REMARK    7  A    between atoms: C_32  and  O_37
REMARK    8  A    between atoms: C_33  and  O_35
REMARK    9  A    between atoms: O_35  and  C_36
REMARK   10  A    between atoms: O_37  and  C_38
REMARK                            x       y       z     vdW  Elec       q    Type
REMARK                         _______ _______ _______ _____ _____    ______ ____
ROOT
ATOM      1  C   UNL     1      -0.699   1.476  -1.297  0.00  0.00    +0.043 C 
ATOM      2  C   UNL     1      -0.188   2.410  -2.115  0.00  0.00    +0.014 C 
ATOM      3  N   UNL     1       0.968   3.064  -1.784  0.00  0.00    -0.321 N 
ATOM      4  C   UNL     1       1.826   2.538  -0.857  0.00  0.00    +0.016 C 
ATOM      5  C   UNL     1       1.400   1.601   0.017  0.00  0.00    +0.024 C 
ATOM      6  C   UNL     1      -0.031   1.127   0.001  0.00  0.00    +0.091 C 
ATOM      7  C   UNL     1       2.275   1.040   0.963  0.00  0.00    +0.162 C 
ATOM      8  O   UNL     1       1.857   0.207   1.742  0.00  0.00    -0.292 OA
ATOM      9  C   UNL     1       3.720   1.453   1.029  0.00  0.00    +0.088 C 
ATOM     10  C   UNL     1       4.175   1.899  -0.365  0.00  0.00    +0.032 C 
ATOM     11  C   UNL     1       3.254   3.025  -0.839  0.00  0.00    +0.059 C 
ATOM     12  C   UNL     1      -0.890   2.740  -3.407  0.00  0.00    +0.061 C 
ATOM     13  H   UNL     1       1.214   4.023  -2.264  0.00  0.00    +0.152 HD
ENDROOT
BRANCH  10  14
ATOM     14  C   UNL     1       5.596   2.396  -0.299  0.00  0.00    -0.040 A 
ATOM     15  C   UNL     1       5.915   3.469   0.513  0.00  0.00    +0.008 A 
ATOM     16  C   UNL     1       7.217   3.928   0.577  0.00  0.00    +0.049 A 
ATOM     17  C   UNL     1       8.206   3.314  -0.174  0.00  0.00    +0.161 A 
ATOM     18  C   UNL     1       7.886   2.234  -0.991  0.00  0.00    +0.162 A 
ATOM     19  C   UNL     1       6.580   1.776  -1.047  0.00  0.00    +0.053 A 
BRANCH  18  20
ATOM     20  O   UNL     1       8.853   1.628  -1.730  0.00  0.00    -0.491 OA
ATOM     21  C   UNL     1       8.451   0.526  -2.546  0.00  0.00    +0.277 C 
ENDBRANCH  18  20
BRANCH  17  22
ATOM     22  O   UNL     1       9.488   3.765  -0.112  0.00  0.00    -0.491 OA
ATOM     23  C   UNL     1       9.743   4.878   0.748  0.00  0.00    +0.277 C 
ENDBRANCH  17  22
ENDBRANCH  10  14
BRANCH   6  24
ATOM     24  C   UNL     1      -0.781   1.780   1.133  0.00  0.00    -0.028 A 
ATOM     25  C   UNL     1      -1.360   1.011   2.126  0.00  0.00    +0.012 A 
ATOM     26  C   UNL     1      -2.027   1.630   3.131  0.00  0.00    +0.045 A 
ATOM     27  S   UNL     1      -1.850   3.350   2.688  0.00  0.00    -0.105 S 
ATOM     28  C   UNL     1      -0.893   3.129   1.197  0.00  0.00    +0.049 A 
ENDBRANCH   6  24
BRANCH   1  30
ATOM     29  N   UNL     1      -2.417  -0.132  -0.854  0.00  0.00    -0.282 N 
ATOM     30  C   UNL     1      -1.893   0.808  -1.666  0.00  0.00    +0.247 C 
ATOM     31  O   UNL     1      -2.444   1.082  -2.716  0.00  0.00    -0.270 OA
ATOM     32  H   UNL     1      -1.875  -0.442   0.051  0.00  0.00    +0.155 HD
BRANCH  29  37
ATOM     33  C   UNL     1      -7.424  -2.486  -2.105  0.00  0.00    +0.044 C 
ATOM     34  C   UNL     1      -6.094  -1.861  -1.773  0.00  0.00    -0.050 A 
ATOM     35  C   UNL     1      -5.118  -2.610  -1.141  0.00  0.00    +0.005 A 
ATOM     36  C   UNL     1      -3.898  -2.039  -0.834  0.00  0.00    +0.023 A 
ATOM     37  C   UNL     1      -3.651  -0.712  -1.163  0.00  0.00    +0.034 A 
ATOM     38  C   UNL     1      -4.635   0.038  -1.794  0.00  0.00    +0.023 A 
ATOM     39  C   UNL     1      -5.851  -0.540  -2.102  0.00  0.00    +0.005 A 
ENDBRANCH  29  37
ENDBRANCH   1  30
TORSDOF 6
