REMARK  Name = ZINC20086028
REMARK  8 active torsions:
REMARK  status: ('A' for Active; 'I' for Inactive)
REMARK    1  A    between atoms: C_1  and  C_2
REMARK    2  A    between atoms: C_5  and  S_8
REMARK    3  A    between atoms: S_8  and  N_11
REMARK    4  A    between atoms: C_12  and  C_28
REMARK    5  A    between atoms: C_14  and  C_21
REMARK    6  A    between atoms: C_16  and  C_19
REMARK    7  A    between atoms: C_17  and  N_18
REMARK    8  A    between atoms: C_28  and  C_30
REMARK                            x       y       z     vdW  Elec       q    Type
REMARK                         _______ _______ _______ _____ _____    ______ ____
ROOT
ATOM      1  N   UNL     1       0.758   3.565   0.014  0.00  0.00    -0.178 N 
ATOM      2  C   UNL     1      -0.701   3.733   0.029  0.00  0.00    +0.182 C 
ATOM      3  C   UNL     1      -1.256   2.297   0.020  0.00  0.00    +0.092 C 
ATOM      4  C   UNL     1      -0.017   1.428   0.010  0.00  0.00    +0.076 C 
ATOM      5  C   UNL     1       1.072   2.237   0.004  0.00  0.00    +0.119 C 
ENDROOT
BRANCH   3   6
ATOM      6  C   UNL     1      -2.082   2.054  -1.217  0.00  0.00    -0.037 A 
ATOM      7  C   UNL     1      -1.532   2.264  -2.468  0.00  0.00    +0.006 A 
ATOM      8  C   UNL     1      -2.287   2.036  -3.603  0.00  0.00    +0.020 A 
ATOM      9  C   UNL     1      -3.598   1.608  -3.486  0.00  0.00    +0.041 A 
ATOM     10  C   UNL     1      -4.150   1.404  -2.234  0.00  0.00    +0.020 A 
ATOM     11  C   UNL     1      -3.392   1.627  -1.100  0.00  0.00    +0.006 A 
ATOM     12 CL   UNL     1      -4.550   1.329  -4.911  0.00  0.00    -0.084 Cl
ENDBRANCH   3   6
BRANCH   1  13
ATOM     13  S   UNL     1       1.858   4.803   0.010  0.00  0.00    +0.076 S 
ATOM     14  O   UNL     1       1.203   5.931   0.574  0.00  0.00    -0.150 OA
ATOM     15  O   UNL     1       3.064   4.276   0.546  0.00  0.00    -0.150 OA
BRANCH  13  20
ATOM     16  C   UNL     1       2.987   6.169  -5.758  0.00  0.00    +0.044 C 
ATOM     17  C   UNL     1       2.705   5.828  -4.317  0.00  0.00    -0.050 A 
ATOM     18  C   UNL     1       1.681   6.467  -3.643  0.00  0.00    +0.005 A 
ATOM     19  C   UNL     1       1.422   6.154  -2.322  0.00  0.00    +0.029 A 
ATOM     20  C   UNL     1       2.188   5.202  -1.674  0.00  0.00    +0.109 A 
ATOM     21  C   UNL     1       3.215   4.567  -2.347  0.00  0.00    +0.029 A 
ATOM     22  C   UNL     1       3.471   4.877  -3.669  0.00  0.00    +0.005 A 
ENDBRANCH  13  20
ENDBRANCH   1  13
BRANCH   5  23
ATOM     23  N   UNL     1       2.362   1.767  -0.011  0.00  0.00    -0.344 N 
ATOM     24  H   UNL     1       2.553   0.683  -0.019  0.00  0.00    +0.144 HD
ATOM     25  H   UNL     1       3.206   2.473  -0.016  0.00  0.00    +0.144 HD
ENDBRANCH   5  23
BRANCH   4  26
ATOM     26  C   UNL     1       0.002  -0.004   0.002  0.00  0.00    +0.099 C 
ATOM     27  N   UNL     1       0.018  -1.140  -0.004  0.00  0.00    -0.191 NA
ENDBRANCH   4  26
BRANCH   2  28
ATOM     28  C   UNL     1      -1.133   4.462   1.275  0.00  0.00    +0.186 C 
ATOM     29  O   UNL     1      -0.358   4.600   2.197  0.00  0.00    -0.290 OA
BRANCH  28  30
ATOM     30  C   UNL     1      -2.497   5.007   1.373  0.00  0.00    +0.019 A 
ATOM     31  C   UNL     1      -3.392   4.856   0.309  0.00  0.00    +0.011 A 
ATOM     32  C   UNL     1      -4.670   5.364   0.411  0.00  0.00    +0.001 A 
ATOM     33  C   UNL     1      -5.064   6.032   1.557  0.00  0.00    +0.000 A 
ATOM     34  C   UNL     1      -4.181   6.192   2.611  0.00  0.00    +0.001 A 
ATOM     35  C   UNL     1      -2.902   5.684   2.527  0.00  0.00    +0.011 A 
ENDBRANCH  28  30
ENDBRANCH   2  28
TORSDOF 7
