REMARK  Name = ZINC21810410
REMARK  8 active torsions:
REMARK  status: ('A' for Active; 'I' for Inactive)
REMARK    1  A    between atoms: C_1  and  C_2
REMARK    2  A    between atoms: N_4  and  C_5
REMARK    3  A    between atoms: C_8  and  N_11
REMARK    4  A    between atoms: C_12  and  C_14
REMARK    5  A    between atoms: C_14  and  S_15
REMARK    6  A    between atoms: S_15  and  C_16
REMARK    7  A    between atoms: N_25  and  C_27
REMARK    8  A    between atoms: C_27  and  C_28
REMARK                            x       y       z     vdW  Elec       q    Type
REMARK                         _______ _______ _______ _____ _____    ______ ____
ROOT
ATOM      1  C   UNL     1      -1.295   3.381   0.012  0.00  0.00    +0.192 A 
ATOM      2  N   UNL     1      -0.174   4.155   0.013  0.00  0.00    -0.183 NA
ATOM      3  C   UNL     1       1.040   3.569  -0.017  0.00  0.00    +0.276 A 
ATOM      4  O   UNL     1       2.055   4.247  -0.017  0.00  0.00    -0.266 OA
ATOM      5  C   UNL     1       1.119   2.163  -0.047  0.00  0.00    +0.024 A 
ATOM      6  C   UNL     1      -0.032   1.439  -0.042  0.00  0.00    +0.049 A 
ATOM      7  N   UNL     1      -1.211   2.066  -0.009  0.00  0.00    -0.227 NA
ATOM      8  C   UNL     1      -0.021  -0.068  -0.066  0.00  0.00    +0.037 C 
ATOM      9  C   UNL     1       1.352  -0.573  -0.510  0.00  0.00    -0.072 C 
ATOM     10  N   UNL     1       2.382   0.101   0.297  0.00  0.00    +0.385 N 
ATOM     11  C   UNL     1       2.476   1.515  -0.083  0.00  0.00    -0.035 C 
ATOM     12  H   UNL     1       2.090   0.046   1.356  0.00  0.00    -0.081 HD
ENDROOT
BRANCH   1  13
ATOM     13  S   UNL     1      -2.880   4.148   0.040  0.00  0.00    -0.077 S 
BRANCH  13  14
ATOM     14  C   UNL     1      -3.940   2.681   0.027  0.00  0.00    +0.173 C 
BRANCH  14  16
ATOM     15  N   UNL     1      -6.361   2.176   0.043  0.00  0.00    -0.285 N 
ATOM     16  C   UNL     1      -5.386   3.106   0.048  0.00  0.00    +0.227 C 
ATOM     17  O   UNL     1      -5.672   4.284   0.070  0.00  0.00    -0.275 OA
ATOM     18  H   UNL     1      -6.105   1.110  -0.052  0.00  0.00    +0.155 HD
BRANCH  15  22
ATOM     19  C   UNL     1     -10.351   3.337   0.392  0.00  0.00    +0.033 A 
ATOM     20  C   UNL     1      -9.453   4.137  -0.303  0.00  0.00    +0.025 A 
ATOM     21  C   UNL     1      -8.132   3.752  -0.418  0.00  0.00    +0.025 A 
ATOM     22  C   UNL     1      -7.702   2.566   0.161  0.00  0.00    +0.034 A 
ATOM     23  C   UNL     1      -8.601   1.763   0.850  0.00  0.00    +0.025 A 
ATOM     24  C   UNL     1      -9.920   2.151   0.971  0.00  0.00    +0.025 A 
BRANCH  19  28
ATOM     25  C   UNL     1     -13.784   3.966   1.806  0.00  0.00    +0.109 C 
ATOM     26  C   UNL     1     -12.376   3.455   1.638  0.00  0.00    +0.214 C 
ATOM     27  O   UNL     1     -11.859   2.800   2.518  0.00  0.00    -0.276 OA
ATOM     28  N   UNL     1     -11.691   3.728   0.509  0.00  0.00    -0.286 N 
ATOM     29  H   UNL     1     -12.185   4.256  -0.319  0.00  0.00    +0.155 HD
ENDBRANCH  19  28
ENDBRANCH  15  22
ENDBRANCH  14  16
ENDBRANCH  13  14
ENDBRANCH   1  13
BRANCH  10  30
ATOM     30  C   UNL     1       3.682  -0.569   0.159  0.00  0.00    -0.043 C 
BRANCH  30  31
ATOM     31  C   UNL     1       4.754   0.280   0.792  0.00  0.00    -0.064 A 
ATOM     32  C   UNL     1       5.426   1.222   0.036  0.00  0.00    +0.004 A 
ATOM     33  C   UNL     1       6.406   2.004   0.618  0.00  0.00    +0.038 A 
ATOM     34  C   UNL     1       6.722   1.836   1.955  0.00  0.00    +0.123 A 
ATOM     35  C   UNL     1       6.052   0.888   2.710  0.00  0.00    +0.038 A 
ATOM     36  C   UNL     1       5.069   0.111   2.128  0.00  0.00    +0.004 A 
ATOM     37  F   UNL     1       7.683   2.597   2.523  0.00  0.00    -0.205 F 
ENDBRANCH  30  31
ENDBRANCH  10  30
TORSDOF 7
