REMARK  Name = ZINC08695948
REMARK  11 active torsions:
REMARK  status: ('A' for Active; 'I' for Inactive)
REMARK    1  A    between atoms: C_1  and  N_2
REMARK    2  A    between atoms: N_2  and  C_3
REMARK    3  A    between atoms: N_2  and  C_4
REMARK    4  A    between atoms: C_7  and  N_10
REMARK    5  A    between atoms: C_11  and  C_13
REMARK    6  A    between atoms: C_13  and  N_19
REMARK    7  A    between atoms: N_19  and  C_20
REMARK    8  A    between atoms: C_20  and  C_21
REMARK    9  A    between atoms: C_27  and  C_29
REMARK   10  A    between atoms: C_29  and  N_30
REMARK   11  A    between atoms: C_32  and  C_37
REMARK                            x       y       z     vdW  Elec       q    Type
REMARK                         _______ _______ _______ _____ _____    ______ ____
ROOT
ATOM      1  N   UNL     1       0.819  -0.486  -1.127  0.00  0.00    -0.282 N 
ATOM      2  C   UNL     1       0.350   0.649  -1.683  0.00  0.00    +0.234 C 
ATOM      3  O   UNL     1      -0.128   1.515  -0.982  0.00  0.00    -0.274 OA
ENDROOT
BRANCH   1   4
ATOM      4  C   UNL     1       0.599  -0.749   0.297  0.00  0.00    +0.115 C 
ATOM      5  C   UNL     1      -0.899  -0.718   0.588  0.00  0.00    +0.046 C 
ATOM      6  C   UNL     1      -1.522   0.545  -0.016  0.00  0.00    +0.071 C 
ATOM      7  S   UNL     1      -0.776   2.000   0.780  0.00  0.00    -0.161 S 
ATOM      8  C   UNL     1       1.008   1.703   0.589  0.00  0.00    +0.071 C 
ATOM      9  C   UNL     1       1.333   0.304   1.121  0.00  0.00    +0.046 C 
BRANCH   4  11
ATOM     10  N   UNL     1       0.923  -3.152  -0.192  0.00  0.00    -0.284 N 
ATOM     11  C   UNL     1       1.142  -2.113   0.638  0.00  0.00    +0.241 C 
ATOM     12  O   UNL     1       1.776  -2.275   1.659  0.00  0.00    -0.273 OA
ATOM     13  H   UNL     1       0.494  -3.006  -1.049  0.00  0.00    +0.155 HD
BRANCH  10  17
ATOM     14  C   UNL     1       2.090  -6.996   0.929  0.00  0.00    +0.029 A 
ATOM     15  C   UNL     1       1.733  -6.068   1.899  0.00  0.00    +0.025 A 
ATOM     16  C   UNL     1       1.347  -4.796   1.528  0.00  0.00    +0.025 A 
ATOM     17  C   UNL     1       1.315  -4.444   0.185  0.00  0.00    +0.034 A 
ATOM     18  C   UNL     1       1.666  -5.373  -0.785  0.00  0.00    +0.025 A 
ATOM     19  C   UNL     1       2.058  -6.644  -0.414  0.00  0.00    +0.025 A 
BRANCH  14  21
ATOM     20  C   UNL     1       2.517  -8.656   2.722  0.00  0.00    +0.129 C 
ATOM     21  N   UNL     1       2.482  -8.285   1.305  0.00  0.00    -0.336 N 
ATOM     22  C   UNL     1       2.859  -9.264   0.282  0.00  0.00    +0.129 C 
ENDBRANCH  14  21
ENDBRANCH  10  17
ENDBRANCH   4  11
ENDBRANCH   1   4
BRANCH   1  23
ATOM     23  C   UNL     1       1.548  -1.457  -1.947  0.00  0.00    +0.144 C 
BRANCH  23  24
ATOM     24  C   UNL     1       0.697  -1.859  -3.125  0.00  0.00    -0.030 A 
ATOM     25  C   UNL     1      -0.515  -2.491  -2.918  0.00  0.00    +0.005 A 
ATOM     26  C   UNL     1      -1.297  -2.856  -3.998  0.00  0.00    +0.000 A 
ATOM     27  C   UNL     1      -0.862  -2.598  -5.285  0.00  0.00    +0.000 A 
ATOM     28  C   UNL     1       0.352  -1.970  -5.492  0.00  0.00    +0.000 A 
ATOM     29  C   UNL     1       1.132  -1.601  -4.411  0.00  0.00    +0.005 A 
ENDBRANCH  23  24
ENDBRANCH   1  23
BRANCH   2  30
ATOM     30  C   UNL     1       0.420   0.841  -3.176  0.00  0.00    +0.202 C 
BRANCH  30  31
ATOM     31  N   UNL     1       0.052   2.219  -3.509  0.00  0.00    -0.302 N 
ATOM     32  C   UNL     1       0.985   3.351  -3.606  0.00  0.00    +0.134 C 
ATOM     33  C   UNL     1       0.083   4.544  -3.977  0.00  0.00    +0.119 C 
ATOM     34  N   UNL     1      -1.264   3.957  -4.050  0.00  0.00    -0.318 N 
ATOM     35  C   UNL     1      -1.188   2.647  -3.779  0.00  0.00    +0.134 C 
ATOM     36  S   UNL     1      -2.554   1.615  -3.773  0.00  0.00    -0.019 S 
ATOM     37  H   UNL     1      -2.077   4.441  -4.264  0.00  0.00    +0.148 HD
BRANCH  33  38
ATOM     38  C   UNL     1       0.141   5.604  -2.908  0.00  0.00    -0.026 A 
ATOM     39  C   UNL     1      -0.609   5.464  -1.755  0.00  0.00    +0.005 A 
ATOM     40  C   UNL     1      -0.552   6.434  -0.772  0.00  0.00    +0.000 A 
ATOM     41  C   UNL     1       0.246   7.549  -0.946  0.00  0.00    +0.000 A 
ATOM     42  C   UNL     1       0.992   7.692  -2.102  0.00  0.00    +0.000 A 
ATOM     43  C   UNL     1       0.939   6.719  -3.083  0.00  0.00    +0.005 A 
ENDBRANCH  33  38
ENDBRANCH  30  31
ENDBRANCH   2  30
TORSDOF 9
