REMARK  Name = ZINC15245020
REMARK  7 active torsions:
REMARK  status: ('A' for Active; 'I' for Inactive)
REMARK    1  A    between atoms: C_1  and  C_2
REMARK    2  A    between atoms: C_6  and  N_8
REMARK    3  A    between atoms: C_9  and  C_11
REMARK    4  A    between atoms: C_16  and  N_17
REMARK    5  A    between atoms: N_17  and  S_18
REMARK    6  A    between atoms: S_18  and  C_21
REMARK    7  A    between atoms: C_30  and  C_32
REMARK                            x       y       z     vdW  Elec       q    Type
REMARK                         _______ _______ _______ _____ _____    ______ ____
ROOT
ATOM      1  C   UNL     1       1.064   7.420   0.147  0.00  0.00    +0.059 A 
ATOM      2  C   UNL     1      -0.151   8.110   0.151  0.00  0.00    +0.015 A 
ATOM      3  C   UNL     1      -0.168   9.473   0.349  0.00  0.00    +0.001 A 
ATOM      4  C   UNL     1       1.017  10.168   0.533  0.00  0.00    +0.002 A 
ATOM      5  C   UNL     1       2.226   9.503   0.526  0.00  0.00    +0.025 A 
ATOM      6  C   UNL     1       2.262   8.127   0.334  0.00  0.00    +0.060 A 
ENDROOT
BRANCH   1   8
ATOM      7  N   UNL     1      -0.065   5.286  -0.236  0.00  0.00    -0.281 N 
ATOM      8  C   UNL     1       1.088   5.961  -0.057  0.00  0.00    +0.250 C 
ATOM      9  O   UNL     1       2.148   5.365  -0.065  0.00  0.00    -0.270 OA
ATOM     10  H   UNL     1      -0.903   5.769  -0.307  0.00  0.00    +0.155 HD
BRANCH   7  16
ATOM     11  C   UNL     1       1.877   0.982   1.133  0.00  0.00    +0.044 C 
ATOM     12  C   UNL     1       0.878   1.779   0.333  0.00  0.00    -0.049 A 
ATOM     13  C   UNL     1      -0.029   1.128  -0.484  0.00  0.00    +0.003 A 
ATOM     14  C   UNL     1      -0.951   1.855  -1.214  0.00  0.00    +0.002 A 
ATOM     15  C   UNL     1      -0.966   3.234  -1.135  0.00  0.00    +0.023 A 
ATOM     16  C   UNL     1      -0.053   3.890  -0.320  0.00  0.00    +0.034 A 
ATOM     17  C   UNL     1       0.872   3.157   0.413  0.00  0.00    +0.026 A 
ENDBRANCH   7  16
ENDBRANCH   1   8
BRANCH   6  18
ATOM     18  N   UNL     1       3.478   7.455   0.327  0.00  0.00    -0.216 N 
ATOM     19  H   UNL     1       3.610   6.700  -0.267  0.00  0.00    +0.174 HD
BRANCH  18  20
ATOM     20  S   UNL     1       4.700   7.944   1.331  0.00  0.00    +0.072 S 
ATOM     21  O   UNL     1       5.746   6.992   1.190  0.00  0.00    -0.150 OA
ATOM     22  O   UNL     1       4.894   9.331   1.091  0.00  0.00    -0.150 OA
BRANCH  20  23
ATOM     23  C   UNL     1       4.106   7.797   2.984  0.00  0.00    +0.109 A 
ATOM     24  C   UNL     1       4.282   6.616   3.681  0.00  0.00    +0.030 A 
ATOM     25  C   UNL     1       3.818   6.498   4.974  0.00  0.00    +0.026 A 
ATOM     26  C   UNL     1       3.167   7.569   5.589  0.00  0.00    +0.040 A 
ATOM     27  C   UNL     1       2.996   8.748   4.882  0.00  0.00    -0.023 A 
ATOM     28  C   UNL     1       3.468   8.864   3.588  0.00  0.00    +0.034 A 
ATOM     29  C   UNL     1       2.271   9.739   5.765  0.00  0.00    +0.056 C 
ATOM     30  C   UNL     1       2.039   8.984   7.084  0.00  0.00    +0.118 C 
ATOM     31  N   UNL     1       2.627   7.657   6.876  0.00  0.00    -0.271 N 
ATOM     32  C   UNL     1       2.644   6.668   7.790  0.00  0.00    +0.217 C 
ATOM     33  O   UNL     1       3.156   5.602   7.521  0.00  0.00    -0.276 OA
ATOM     34  C   UNL     1       2.026   6.886   9.148  0.00  0.00    +0.109 C 
ENDBRANCH  20  23
ENDBRANCH  18  20
ENDBRANCH   6  18
TORSDOF 5
