REMARK  Name = ZINC49511387
REMARK  10 active torsions:
REMARK  status: ('A' for Active; 'I' for Inactive)
REMARK    1  A    between atoms: C_1  and  C_2
REMARK    2  A    between atoms: C_2  and  C_3
REMARK    3  A    between atoms: C_3  and  C_4
REMARK    4  A    between atoms: N_6  and  C_7
REMARK    5  A    between atoms: C_10  and  S_13
REMARK    6  A    between atoms: S_13  and  N_16
REMARK    7  A    between atoms: N_16  and  C_17
REMARK    8  A    between atoms: N_24  and  S_27
REMARK    9  A    between atoms: S_27  and  C_30
REMARK   10  A    between atoms: C_33  and  C_36
REMARK                            x       y       z     vdW  Elec       q    Type
REMARK                         _______ _______ _______ _____ _____    ______ ____
ROOT
ATOM      1  C   UNL     1      -3.741  -9.213   2.742  0.00  0.00    +0.048 A 
ATOM      2  C   UNL     1      -4.403  -7.995   2.834  0.00  0.00    +0.025 A 
ATOM      3  C   UNL     1      -5.452  -7.852   3.715  0.00  0.00    +0.006 A 
ATOM      4  C   UNL     1      -5.859  -8.916   4.513  0.00  0.00    -0.042 A 
ATOM      5  C   UNL     1      -5.209 -10.127   4.417  0.00  0.00    -0.027 A 
ATOM      6  C   UNL     1      -4.151 -10.275   3.532  0.00  0.00    +0.029 A 
ATOM      7  C   UNL     1      -5.618 -11.328   5.231  0.00  0.00    +0.144 C 
ATOM      8  N   UNL     1      -6.562 -10.919   6.276  0.00  0.00    -0.172 NA
ATOM      9  C   UNL     1      -7.643  -9.998   5.888  0.00  0.00    +0.114 C 
ATOM     10  C   UNL     1      -7.004  -8.677   5.463  0.00  0.00    +0.052 C 
ENDROOT
BRANCH   8  11
ATOM     11  S   UNL     1      -6.419 -11.472   7.831  0.00  0.00    +0.061 S 
ATOM     12  O   UNL     1      -7.710 -11.377   8.416  0.00  0.00    -0.153 OA
ATOM     13  O   UNL     1      -5.702 -12.697   7.762  0.00  0.00    -0.153 OA
BRANCH  11  14
ATOM     14  C   UNL     1      -5.389 -10.334   8.696  0.00  0.00    +0.106 A 
ATOM     15  C   UNL     1      -4.019 -10.518   8.716  0.00  0.00    +0.029 A 
ATOM     16  C   UNL     1      -3.211  -9.626   9.394  0.00  0.00    +0.005 A 
ATOM     17  C   UNL     1      -3.773  -8.547  10.052  0.00  0.00    -0.050 A 
ATOM     18  C   UNL     1      -5.142  -8.362  10.032  0.00  0.00    +0.005 A 
ATOM     19  C   UNL     1      -5.950  -9.253   9.350  0.00  0.00    +0.029 A 
ATOM     20  C   UNL     1      -2.892  -7.574  10.793  0.00  0.00    +0.044 C 
ENDBRANCH  11  14
ENDBRANCH   8  11
BRANCH   1  21
ATOM     21  N   UNL     1      -2.672  -9.367   1.856  0.00  0.00    -0.216 N 
ATOM     22  H   UNL     1      -1.860  -9.810   2.148  0.00  0.00    +0.174 HD
BRANCH  21  23
ATOM     23  S   UNL     1      -2.791  -8.792   0.308  0.00  0.00    +0.072 S 
ATOM     24  O   UNL     1      -1.589  -9.159  -0.355  0.00  0.00    -0.150 OA
ATOM     25  O   UNL     1      -3.225  -7.442   0.408  0.00  0.00    -0.150 OA
BRANCH  23  29
ATOM     26  C   UNL     1      -6.134 -11.080  -1.717  0.00  0.00    +0.033 A 
ATOM     27  C   UNL     1      -6.390  -9.847  -1.131  0.00  0.00    +0.025 A 
ATOM     28  C   UNL     1      -5.368  -9.152  -0.514  0.00  0.00    +0.030 A 
ATOM     29  C   UNL     1      -4.092  -9.682  -0.480  0.00  0.00    +0.109 A 
ATOM     30  C   UNL     1      -3.833 -10.909  -1.063  0.00  0.00    +0.030 A 
ATOM     31  C   UNL     1      -4.852 -11.612  -1.676  0.00  0.00    +0.025 A 
BRANCH  26  34
ATOM     32  C   UNL     1      -7.202 -13.132  -2.272  0.00  0.00    +0.217 C 
ATOM     33  O   UNL     1      -6.294 -13.735  -1.740  0.00  0.00    -0.275 OA
ATOM     34  N   UNL     1      -7.167 -11.787  -2.342  0.00  0.00    -0.285 N 
ATOM     35  H   UNL     1      -7.858 -11.308  -2.826  0.00  0.00    +0.155 HD
BRANCH  32  36
ATOM     36  C   UNL     1      -8.369 -13.887  -2.854  0.00  0.00    +0.096 C 
BRANCH  36  38
ATOM     37  C   UNL     1      -9.347 -16.155  -3.234  0.00  0.00    +0.004 C 
ATOM     38  C   UNL     1      -8.162 -15.388  -2.643  0.00  0.00    +0.006 C 
ENDBRANCH  36  38
ENDBRANCH  32  36
ENDBRANCH  26  34
ENDBRANCH  23  29
ENDBRANCH  21  23
ENDBRANCH   1  21
TORSDOF 8
