REMARK  Name = ZINC39768808
REMARK  12 active torsions:
REMARK  status: ('A' for Active; 'I' for Inactive)
REMARK    1  A    between atoms: C_1  and  C_2
REMARK    2  A    between atoms: C_2  and  C_4
REMARK    3  A    between atoms: C_2  and  S_15
REMARK    4  A    between atoms: N_6  and  C_7
REMARK    5  A    between atoms: S_15  and  C_16
REMARK    6  A    between atoms: C_19  and  C_24
REMARK    7  A    between atoms: N_20  and  C_21
REMARK    8  A    between atoms: C_21  and  C_22
REMARK    9  A    between atoms: C_24  and  C_25
REMARK   10  A    between atoms: N_27  and  C_28
REMARK   11  A    between atoms: C_32  and  S_34
REMARK   12  A    between atoms: S_34  and  C_35
REMARK                            x       y       z     vdW  Elec       q    Type
REMARK                         _______ _______ _______ _____ _____    ______ ____
ROOT
ATOM      1  C   UNL     1      -1.089   0.187  -2.835  0.00  0.00    +0.193 A 
ATOM      2  N   UNL     1      -2.198   0.809  -2.511  0.00  0.00    -0.122 NA
ATOM      3  N   UNL     1      -2.874   1.077  -3.570  0.00  0.00    -0.133 NA
ATOM      4  C   UNL     1      -2.243   0.646  -4.625  0.00  0.00    +0.143 A 
ATOM      5  N   UNL     1      -1.079   0.069  -4.196  0.00  0.00    -0.302 N 
ENDROOT
BRANCH   1   6
ATOM      6  S   UNL     1       0.157  -0.381  -1.726  0.00  0.00    -0.074 S 
BRANCH   6   8
ATOM      7  C   UNL     1      -0.529   1.611   0.018  0.00  0.00    +0.029 C 
ATOM      8  C   UNL     1      -0.468   0.086  -0.088  0.00  0.00    +0.137 C 
BRANCH   8   9
ATOM      9  C   UNL     1       0.454  -0.455   0.974  0.00  0.00    +0.230 C 
ATOM     10  O   UNL     1       1.617  -0.679   0.711  0.00  0.00    -0.274 OA
ATOM     11  N   UNL     1      -0.013  -0.689   2.216  0.00  0.00    -0.282 N 
ATOM     12  H   UNL     1      -0.925  -0.448   2.445  0.00  0.00    +0.155 HD
BRANCH  11  13
ATOM     13  C   UNL     1       0.818  -1.280   3.178  0.00  0.00    +0.069 A 
ATOM     14  C   UNL     1       2.176  -0.997   3.191  0.00  0.00    +0.029 A 
ATOM     15  C   UNL     1       2.994  -1.581   4.139  0.00  0.00    +0.040 A 
ATOM     16  C   UNL     1       2.459  -2.449   5.077  0.00  0.00    +0.126 A 
ATOM     17  C   UNL     1       1.105  -2.735   5.066  0.00  0.00    +0.078 A 
ATOM     18  C   UNL     1       0.281  -2.148   4.122  0.00  0.00    +0.147 A 
ATOM     19  F   UNL     1      -1.042  -2.422   4.115  0.00  0.00    -0.203 F 
ATOM     20  F   UNL     1       3.261  -3.018   6.003  0.00  0.00    -0.205 F 
ENDBRANCH  11  13
ENDBRANCH   8   9
ENDBRANCH   6   8
ENDBRANCH   1   6
BRANCH   5  21
ATOM     21  C   UNL     1      -0.041  -0.551  -5.023  0.00  0.00    +0.152 C 
BRANCH  21  22
ATOM     22  C   UNL     1      -0.349  -2.015  -5.203  0.00  0.00    -0.013 C 
ATOM     23  C   UNL     1      -0.438  -2.522  -6.407  0.00  0.00    +0.005 C 
ENDBRANCH  21  22
ENDBRANCH   5  21
BRANCH   4  24
ATOM     24  C   UNL     1      -2.705   0.767  -6.054  0.00  0.00    +0.172 C 
BRANCH  24  25
ATOM     25  C   UNL     1      -2.190   2.056  -6.641  0.00  0.00    +0.225 C 
ATOM     26  O   UNL     1      -1.515   2.803  -5.965  0.00  0.00    -0.275 OA
ATOM     27  N   UNL     1      -2.481   2.379  -7.917  0.00  0.00    -0.285 N 
ATOM     28  H   UNL     1      -3.074   1.815  -8.437  0.00  0.00    +0.155 HD
BRANCH  27  29
ATOM     29  C   UNL     1      -1.926   3.528  -8.492  0.00  0.00    +0.034 A 
ATOM     30  C   UNL     1      -1.583   3.536  -9.839  0.00  0.00    +0.023 A 
ATOM     31  C   UNL     1      -1.034   4.669 -10.407  0.00  0.00    +0.003 A 
ATOM     32  C   UNL     1      -0.825   5.798  -9.640  0.00  0.00    +0.015 A 
ATOM     33  C   UNL     1      -1.166   5.798  -8.292  0.00  0.00    +0.009 A 
ATOM     34  C   UNL     1      -1.723   4.662  -7.719  0.00  0.00    +0.038 A 
BRANCH  33  35
ATOM     35  S   UNL     1      -0.898   7.238  -7.313  0.00  0.00    -0.129 S 
ATOM     36  C   UNL     1      -0.178   8.430  -8.475  0.00  0.00    +0.090 C 
ENDBRANCH  33  35
ENDBRANCH  27  29
ENDBRANCH  24  25
ENDBRANCH   4  24
TORSDOF 10
