REMARK  Name = ZINC19979766
REMARK  4 active torsions:
REMARK  status: ('A' for Active; 'I' for Inactive)
REMARK    1  A    between atoms: C_6  and  N_7
REMARK    2  A    between atoms: N_7  and  S_8
REMARK    3  A    between atoms: S_8  and  C_11
REMARK    4  A    between atoms: C_16  and  N_17
REMARK                            x       y       z     vdW  Elec       q    Type
REMARK                         _______ _______ _______ _____ _____    ______ ____
ROOT
ATOM      1  S   UNL     1      -0.335   2.412  -0.616  0.00  0.00    +0.074 S 
ATOM      2  O   UNL     1       0.430   1.252  -0.914  0.00  0.00    -0.150 OA
ATOM      3  O   UNL     1       0.266   3.654  -0.277  0.00  0.00    -0.150 OA
ENDROOT
BRANCH   1   4
ATOM      4  C   UNL     1      -1.398   1.985   0.722  0.00  0.00    +0.129 A 
ATOM      5  C   UNL     1      -1.324   0.727   1.289  0.00  0.00    +0.033 A 
ATOM      6  C   UNL     1      -2.157   0.390   2.340  0.00  0.00    +0.040 A 
ATOM      7  C   UNL     1      -3.068   1.313   2.828  0.00  0.00    +0.125 A 
ATOM      8  C   UNL     1      -3.147   2.573   2.264  0.00  0.00    +0.063 A 
ATOM      9  C   UNL     1      -2.307   2.914   1.212  0.00  0.00    +0.054 A 
ATOM     10  F   UNL     1      -3.881   0.981   3.854  0.00  0.00    -0.205 F 
BRANCH   9  11
ATOM     11  N   UNL     1      -2.379   4.188   0.643  0.00  0.00    -0.356 N 
ATOM     12  H   UNL     1      -3.099   4.923   1.032  0.00  0.00    +0.142 HD
ATOM     13  H   UNL     1      -1.716   4.456  -0.193  0.00  0.00    +0.142 HD
ENDBRANCH   9  11
ENDBRANCH   1   4
BRANCH   1  14
ATOM     14  N   UNL     1      -1.297   2.696  -1.934  0.00  0.00    -0.216 N 
ATOM     15  H   UNL     1      -1.305   3.690  -2.405  0.00  0.00    +0.174 HD
BRANCH  14  21
ATOM     16  C   UNL     1      -1.568   0.403  -2.637  0.00  0.00    +0.026 A 
ATOM     17  C   UNL     1      -2.364  -0.608  -3.139  0.00  0.00    +0.022 A 
ATOM     18  C   UNL     1      -3.685  -0.353  -3.465  0.00  0.00    +0.041 A 
ATOM     19  C   UNL     1      -4.213   0.913  -3.283  0.00  0.00    +0.022 A 
ATOM     20  C   UNL     1      -3.424   1.926  -2.775  0.00  0.00    +0.026 A 
ATOM     21  C   UNL     1      -2.098   1.673  -2.448  0.00  0.00    +0.048 A 
ATOM     22 CL   UNL     1      -4.680  -1.624  -4.103  0.00  0.00    -0.084 Cl
ENDBRANCH  14  21
ENDBRANCH   1  14
TORSDOF 4
