REMARK  Name = ZINC03299182
REMARK  6 active torsions:
REMARK  status: ('A' for Active; 'I' for Inactive)
REMARK    1  A    between atoms: C_4  and  S_20
REMARK    2  A    between atoms: C_6  and  C_7
REMARK    3  A    between atoms: N_9  and  C_10
REMARK    4  A    between atoms: C_11  and  C_18
REMARK    5  A    between atoms: S_20  and  N_23
REMARK    6  A    between atoms: N_23  and  C_24
REMARK                            x       y       z     vdW  Elec       q    Type
REMARK                         _______ _______ _______ _____ _____    ______ ____
ROOT
ATOM      1  C   UNL     1       2.037   3.986   5.257  0.00  0.00    +0.014 A 
ATOM      2  C   UNL     1       1.034   3.687   4.359  0.00  0.00    +0.023 A 
ATOM      3  C   UNL     1       1.144   4.083   3.037  0.00  0.00    +0.068 A 
ATOM      4  C   UNL     1       2.266   4.772   2.605  0.00  0.00    +0.127 A 
ATOM      5  C   UNL     1       3.275   5.077   3.494  0.00  0.00    +0.043 A 
ATOM      6  C   UNL     1       3.167   4.684   4.830  0.00  0.00    +0.039 A 
ATOM      7 CL   UNL     1      -0.126   3.710   1.913  0.00  0.00    -0.082 Cl
ENDROOT
BRANCH   6   8
ATOM      8  C   UNL     1       4.245   5.007   5.787  0.00  0.00    +0.249 C 
ATOM      9  O   UNL     1       5.229   5.615   5.412  0.00  0.00    -0.270 OA
ATOM     10  N   UNL     1       4.138   4.627   7.076  0.00  0.00    -0.275 N 
ATOM     11  H   UNL     1       3.354   4.142   7.375  0.00  0.00    +0.156 HD
BRANCH  10  12
ATOM     12  C   UNL     1       5.150   4.930   7.974  0.00  0.00    +0.090 A 
ATOM     13  C   UNL     1       5.222   4.628   9.323  0.00  0.00    +0.084 A 
ATOM     14  C   UNL     1       6.411   5.065  10.053  0.00  0.00    -0.018 A 
ATOM     15  C   UNL     1       7.322   5.727   9.317  0.00  0.00    -0.004 A 
ATOM     16  S   UNL     1       6.634   5.771   7.680  0.00  0.00    -0.077 S 
ATOM     17  C   UNL     1       8.513   6.146  10.136  0.00  0.00    +0.043 C 
ATOM     18  C   UNL     1       8.037   6.032  11.601  0.00  0.00    +0.010 C 
ATOM     19  C   UNL     1       6.927   4.967  11.489  0.00  0.00    +0.037 C 
BRANCH  13  20
ATOM     20  C   UNL     1       4.168   3.915   9.980  0.00  0.00    +0.102 C 
ATOM     21  N   UNL     1       3.333   3.349  10.501  0.00  0.00    -0.191 NA
ENDBRANCH  13  20
ENDBRANCH  10  12
ENDBRANCH   6   8
BRANCH   4  22
ATOM     22  S   UNL     1       2.401   5.266   0.919  0.00  0.00    +0.074 S 
ATOM     23  O   UNL     1       3.670   5.888   0.778  0.00  0.00    -0.150 OA
ATOM     24  O   UNL     1       1.187   5.929   0.593  0.00  0.00    -0.150 OA
BRANCH  22  25
ATOM     25  N   UNL     1       2.446   3.885   0.007  0.00  0.00    -0.215 N 
ATOM     26  H   UNL     1       1.707   3.669  -0.583  0.00  0.00    +0.174 HD
BRANCH  25  27
ATOM     27  C   UNL     1       3.550   3.032   0.086  0.00  0.00    +0.068 A 
ATOM     28  C   UNL     1       4.207   2.855   1.296  0.00  0.00    +0.046 A 
ATOM     29  C   UNL     1       5.299   2.010   1.371  0.00  0.00    +0.043 A 
ATOM     30  C   UNL     1       5.733   1.337   0.242  0.00  0.00    +0.021 A 
ATOM     31  C   UNL     1       5.084   1.515  -0.966  0.00  0.00    +0.023 A 
ATOM     32  C   UNL     1       3.992   2.358  -1.047  0.00  0.00    +0.063 A 
ATOM     33 CL   UNL     1       3.174   2.577  -2.562  0.00  0.00    -0.082 Cl
ATOM     34 CL   UNL     1       6.121   1.788   2.883  0.00  0.00    -0.083 Cl
ENDBRANCH  25  27
ENDBRANCH  22  25
ENDBRANCH   4  22
TORSDOF 6
