REMARK  Name = ZINC21050687
REMARK  6 active torsions:
REMARK  status: ('A' for Active; 'I' for Inactive)
REMARK    1  A    between atoms: C_1  and  C_2
REMARK    2  A    between atoms: C_5  and  N_9
REMARK    3  A    between atoms: C_10  and  C_12
REMARK    4  A    between atoms: C_16  and  S_18
REMARK    5  A    between atoms: S_18  and  N_21
REMARK    6  A    between atoms: N_24  and  C_27
REMARK                            x       y       z     vdW  Elec       q    Type
REMARK                         _______ _______ _______ _____ _____    ______ ____
ROOT
ATOM      1  C   UNL     1       1.334   1.277   5.513  0.00  0.00    +0.039 A 
ATOM      2  C   UNL     1       2.341   0.327   5.334  0.00  0.00    +0.013 A 
ATOM      3  C   UNL     1       2.275  -0.553   4.274  0.00  0.00    +0.003 A 
ATOM      4  C   UNL     1       1.210  -0.499   3.392  0.00  0.00    +0.028 A 
ATOM      5  C   UNL     1       0.211   0.444   3.560  0.00  0.00    +0.106 A 
ATOM      6  C   UNL     1       0.266   1.330   4.616  0.00  0.00    +0.041 A 
ENDROOT
BRANCH   1   8
ATOM      7  N   UNL     1       2.432   2.170   7.511  0.00  0.00    -0.281 N 
ATOM      8  C   UNL     1       1.399   2.223   6.647  0.00  0.00    +0.248 C 
ATOM      9  O   UNL     1       0.521   3.050   6.800  0.00  0.00    -0.270 OA
ATOM     10  H   UNL     1       3.186   1.375   7.417  0.00  0.00    +0.155 HD
BRANCH   7  15
ATOM     11  C   UNL     1       2.890   6.044  11.629  0.00  0.00    +0.045 C 
ATOM     12  C   UNL     1       2.768   5.015  10.535  0.00  0.00    -0.037 A 
ATOM     13  C   UNL     1       3.906   4.513   9.930  0.00  0.00    +0.006 A 
ATOM     14  C   UNL     1       3.798   3.566   8.931  0.00  0.00    +0.023 A 
ATOM     15  C   UNL     1       2.545   3.125   8.526  0.00  0.00    +0.035 A 
ATOM     16  C   UNL     1       1.404   3.630   9.135  0.00  0.00    +0.038 A 
ATOM     17  C   UNL     1       1.519   4.574  10.139  0.00  0.00    +0.018 A 
ATOM     18  I   UNL     1      -0.201   5.337  11.059  0.00  0.00    -0.043 I 
ENDBRANCH   7  15
ENDBRANCH   1   8
BRANCH   5  19
ATOM     19  S   UNL     1      -1.137   0.508   2.427  0.00  0.00    +0.061 S 
ATOM     20  O   UNL     1      -2.219   1.117   3.118  0.00  0.00    -0.153 OA
ATOM     21  O   UNL     1      -1.236  -0.782   1.840  0.00  0.00    -0.153 OA
BRANCH  19  22
ATOM     22  N   UNL     1      -0.706   1.549   1.213  0.00  0.00    -0.180 NA
ATOM     23  C   UNL     1      -0.012   1.061   0.011  0.00  0.00    +0.091 C 
ATOM     24  C   UNL     1      -0.757   1.570  -1.227  0.00  0.00    -0.062 C 
ATOM     25  N   UNL     1      -0.900   3.030  -1.143  0.00  0.00    +0.380 N 
ATOM     26  C   UNL     1      -1.718   3.419   0.014  0.00  0.00    -0.062 C 
ATOM     27  C   UNL     1      -1.013   2.985   1.303  0.00  0.00    +0.091 C 
ATOM     28  C   UNL     1      -1.455   3.577  -2.388  0.00  0.00    -0.096 C 
ATOM     29  H   UNL     1       0.103   3.457  -1.001  0.00  0.00    -0.082 HD
ENDBRANCH  19  22
ENDBRANCH   5  19
TORSDOF 4
