REMARK  Name = ZINC21522700
REMARK  8 active torsions:
REMARK  status: ('A' for Active; 'I' for Inactive)
REMARK    1  A    between atoms: C_1  and  C_2
REMARK    2  A    between atoms: C_3  and  C_35
REMARK    3  A    between atoms: C_7  and  N_31
REMARK    4  A    between atoms: C_11  and  C_20
REMARK    5  A    between atoms: C_11  and  C_21
REMARK    6  A    between atoms: N_12  and  C_15
REMARK    7  A    between atoms: N_23  and  C_24
REMARK    8  A    between atoms: C_32  and  C_34
REMARK                            x       y       z     vdW  Elec       q    Type
REMARK                         _______ _______ _______ _____ _____    ______ ____
ROOT
ATOM      1  C   UNL     1      -9.368  -0.183  -0.824  0.00  0.00    +0.045 C 
ATOM      2  C   UNL     1      -8.283   0.828  -0.556  0.00  0.00    -0.029 A 
ATOM      3  C   UNL     1      -8.578   2.007   0.007  0.00  0.00    -0.008 A 
ATOM      4  S   UNL     1      -6.996   2.822   0.107  0.00  0.00    -0.075 S 
ATOM      5  C   UNL     1      -5.984   1.553  -0.614  0.00  0.00    +0.090 A 
ATOM      6  C   UNL     1      -6.900   0.537  -0.908  0.00  0.00    +0.032 A 
ATOM      7  C   UNL     1      -6.129  -0.524  -1.491  0.00  0.00    +0.072 A 
ATOM      8  C   UNL     1      -4.823  -0.121  -1.521  0.00  0.00    +0.128 A 
ATOM      9  N   UNL     1      -4.745   1.171  -0.986  0.00  0.00    -0.327 N 
ATOM     10  C   UNL     1      -3.470   1.894  -0.907  0.00  0.00    +0.158 C 
ATOM     11  C   UNL     1      -2.335   0.879  -0.766  0.00  0.00    +0.129 C 
ATOM     12  N   UNL     1      -2.469  -0.230  -1.704  0.00  0.00    -0.278 N 
ATOM     13  C   UNL     1      -3.665  -0.796  -1.982  0.00  0.00    +0.266 C 
ATOM     14  O   UNL     1      -3.743  -1.842  -2.602  0.00  0.00    -0.268 OA
ATOM     15  C   UNL     1      -2.341   0.326   0.661  0.00  0.00    +0.043 C 
ATOM     16  C   UNL     1      -9.924   2.521   0.450  0.00  0.00    +0.052 C 
ENDROOT
BRANCH  12  17
ATOM     17  C   UNL     1      -1.269  -0.747  -2.366  0.00  0.00    +0.078 C 
ATOM     18  C   UNL     1      -1.456  -0.716  -3.897  0.00  0.00    +0.022 C 
ATOM     19  C   UNL     1      -0.751  -2.004  -4.392  0.00  0.00    +0.002 C 
ATOM     20  C   UNL     1      -1.106  -3.033  -3.289  0.00  0.00    +0.002 C 
ATOM     21  C   UNL     1      -1.046  -2.219  -1.980  0.00  0.00    +0.022 C 
ENDBRANCH  12  17
BRANCH   7  22
ATOM     22  N   UNL     1      -6.623  -1.744  -1.946  0.00  0.00    -0.283 N 
ATOM     23  C   UNL     1      -7.785  -1.789  -2.629  0.00  0.00    +0.214 C 
ATOM     24  O   UNL     1      -8.364  -0.760  -2.908  0.00  0.00    -0.276 OA
ATOM     25  C   UNL     1      -8.363  -3.116  -3.046  0.00  0.00    +0.109 C 
ATOM     26  H   UNL     1      -6.066  -2.671  -1.747  0.00  0.00    +0.155 HD
ENDBRANCH   7  22
BRANCH  11  27
ATOM     27  C   UNL     1      -1.022   1.574  -1.015  0.00  0.00    +0.238 C 
ATOM     28  O   UNL     1      -0.311   1.881  -0.082  0.00  0.00    -0.273 OA
ATOM     29  N   UNL     1      -0.637   1.856  -2.276  0.00  0.00    -0.311 N 
ATOM     30  H   UNL     1      -1.241   1.506  -3.126  0.00  0.00    +0.149 HD
BRANCH  29  31
ATOM     31  C   UNL     1       0.585   2.628  -2.514  0.00  0.00    +0.073 C 
ATOM     32  C   UNL     1       0.267   4.129  -2.351  0.00  0.00    +0.022 C 
ATOM     33  C   UNL     1       1.553   4.864  -2.086  0.00  0.00    +0.002 C 
ATOM     34  C   UNL     1       2.184   5.430  -3.373  0.00  0.00    +0.000 C 
ATOM     35  C   UNL     1       2.111   4.447  -4.557  0.00  0.00    +0.000 C 
ATOM     36  C   UNL     1       2.421   3.031  -4.149  0.00  0.00    +0.002 C 
ATOM     37  C   UNL     1       1.093   2.309  -3.840  0.00  0.00    +0.022 C 
ENDBRANCH  29  31
ENDBRANCH  11  27
TORSDOF 4
