REMARK  Name = ZINC11363177
REMARK  8 active torsions:
REMARK  status: ('A' for Active; 'I' for Inactive)
REMARK    1  A    between atoms: C_1  and  C_2
REMARK    2  A    between atoms: C_5  and  N_8
REMARK    3  A    between atoms: C_9  and  C_30
REMARK    4  A    between atoms: C_11  and  C_16
REMARK    5  A    between atoms: N_18  and  C_19
REMARK    6  A    between atoms: C_22  and  N_25
REMARK    7  A    between atoms: N_25  and  S_26
REMARK    8  A    between atoms: S_26  and  C_29
REMARK                            x       y       z     vdW  Elec       q    Type
REMARK                         _______ _______ _______ _____ _____    ______ ____
ROOT
ATOM      1  N   UNL     1       8.000   4.967   0.212  0.00  0.00    -0.263 N 
ATOM      2  C   UNL     1       7.917   3.544   0.559  0.00  0.00    +0.130 C 
ATOM      3  C   UNL     1       7.453   3.505   2.032  0.00  0.00    +0.110 C 
ATOM      4  C   UNL     1       7.945   4.875   2.554  0.00  0.00    +0.111 C 
ATOM      5  C   UNL     1       8.023   5.738   1.313  0.00  0.00    +0.221 C 
ATOM      6  O   UNL     1       8.095   6.949   1.313  0.00  0.00    -0.275 OA
ENDROOT
BRANCH   1  11
ATOM      7  C   UNL     1       8.199   6.962  -5.095  0.00  0.00    +0.044 C 
ATOM      8  C   UNL     1       8.147   6.432  -3.685  0.00  0.00    -0.050 A 
ATOM      9  C   UNL     1       8.031   7.309  -2.623  0.00  0.00    +0.005 A 
ATOM     10  C   UNL     1       7.982   6.827  -1.329  0.00  0.00    +0.024 A 
ATOM     11  C   UNL     1       8.049   5.460  -1.097  0.00  0.00    +0.037 A 
ATOM     12  C   UNL     1       8.172   4.582  -2.166  0.00  0.00    +0.024 A 
ATOM     13  C   UNL     1       8.214   5.070  -3.457  0.00  0.00    +0.005 A 
ENDBRANCH   1  11
BRANCH   2  14
ATOM     14  C   UNL     1       6.912   2.850  -0.323  0.00  0.00    +0.011 A 
ATOM     15  C   UNL     1       6.946   1.594  -0.833  0.00  0.00    +0.013 A 
ATOM     16  C   UNL     1       5.899   1.164  -1.626  0.00  0.00    +0.008 A 
ATOM     17  C   UNL     1       4.869   2.010  -1.872  0.00  0.00    +0.045 A 
ATOM     18  S   UNL     1       5.362   3.465  -0.961  0.00  0.00    -0.100 S 
ENDBRANCH   2  14
BRANCH   3  19
ATOM     19  C   UNL     1       5.953   3.400   2.122  0.00  0.00    +0.223 C 
ATOM     20  O   UNL     1       5.271   4.402   2.072  0.00  0.00    -0.275 OA
ATOM     21  N   UNL     1       5.369   2.193   2.259  0.00  0.00    -0.285 N 
ATOM     22  H   UNL     1       5.915   1.398   2.361  0.00  0.00    +0.155 HD
BRANCH  21  23
ATOM     23  C   UNL     1       3.971   2.086   2.253  0.00  0.00    +0.034 A 
ATOM     24  C   UNL     1       3.196   3.084   2.829  0.00  0.00    +0.025 A 
ATOM     25  C   UNL     1       1.820   2.979   2.823  0.00  0.00    +0.026 A 
ATOM     26  C   UNL     1       1.210   1.875   2.241  0.00  0.00    +0.048 A 
ATOM     27  C   UNL     1       1.986   0.874   1.669  0.00  0.00    +0.026 A 
ATOM     28  C   UNL     1       3.362   0.982   1.671  0.00  0.00    +0.025 A 
BRANCH  26  29
ATOM     29  N   UNL     1      -0.185   1.768   2.235  0.00  0.00    -0.221 N 
ATOM     30  H   UNL     1      -0.656   1.523   3.047  0.00  0.00    +0.173 HD
BRANCH  29  31
ATOM     31  S   UNL     1      -1.032   2.061   0.843  0.00  0.00    +0.040 S 
ATOM     32  O   UNL     1      -2.395   1.889   1.205  0.00  0.00    -0.155 OA
ATOM     33  O   UNL     1      -0.429   1.221  -0.132  0.00  0.00    -0.155 OA
ATOM     34  C   UNL     1      -0.704   3.803   0.455  0.00  0.00    +0.218 C 
ENDBRANCH  29  31
ENDBRANCH  26  29
ENDBRANCH  21  23
ENDBRANCH   3  19
TORSDOF 6
