REMARK  Name = ZINC09227627
REMARK  7 active torsions:
REMARK  status: ('A' for Active; 'I' for Inactive)
REMARK    1  A    between atoms: C_1  and  C_2
REMARK    2  A    between atoms: C_5  and  S_8
REMARK    3  A    between atoms: S_8  and  N_11
REMARK    4  A    between atoms: C_16  and  C_18
REMARK    5  A    between atoms: C_24  and  C_26
REMARK    6  A    between atoms: C_26  and  S_27
REMARK    7  A    between atoms: S_27  and  C_28
REMARK                            x       y       z     vdW  Elec       q    Type
REMARK                         _______ _______ _______ _____ _____    ______ ____
ROOT
ATOM      1  N   UNL     1       0.139  -0.765   1.510  0.00  0.00    -0.152 NA
ATOM      2  C   UNL     1       1.463  -0.810   2.148  0.00  0.00    +0.113 C 
ATOM      3  C   UNL     1       1.656  -2.175   2.805  0.00  0.00    +0.036 C 
ATOM      4  C   UNL     1       0.509  -2.432   3.789  0.00  0.00    +0.111 C 
ATOM      5  N   UNL     1      -0.768  -2.314   3.072  0.00  0.00    -0.279 N 
ATOM      6  C   UNL     1      -1.044  -1.074   2.329  0.00  0.00    +0.199 C 
ATOM      7  C   UNL     1      -1.666  -3.320   3.093  0.00  0.00    +0.227 C 
ATOM      8  O   UNL     1      -2.759  -3.167   2.590  0.00  0.00    -0.275 OA
ENDROOT
BRANCH   6   9
ATOM      9  C   UNL     1      -2.244  -1.269   1.438  0.00  0.00    -0.011 A 
ATOM     10  C   UNL     1      -2.243  -2.273   0.487  0.00  0.00    +0.007 A 
ATOM     11  C   UNL     1      -3.345  -2.455  -0.327  0.00  0.00    +0.000 A 
ATOM     12  C   UNL     1      -4.444  -1.627  -0.197  0.00  0.00    +0.000 A 
ATOM     13  C   UNL     1      -4.443  -0.620   0.751  0.00  0.00    +0.000 A 
ATOM     14  C   UNL     1      -3.343  -0.441   1.568  0.00  0.00    +0.007 A 
ENDBRANCH   6   9
BRANCH   1  15
ATOM     15  S   UNL     1      -0.017  -0.382  -0.093  0.00  0.00    +0.063 S 
ATOM     16  O   UNL     1      -1.409  -0.256  -0.347  0.00  0.00    -0.153 OA
ATOM     17  O   UNL     1       0.810  -1.289  -0.810  0.00  0.00    -0.153 OA
BRANCH  15  22
ATOM     18  C   UNL     1       2.378   5.103  -0.858  0.00  0.00    +0.044 C 
ATOM     19  C   UNL     1       1.780   3.733  -0.667  0.00  0.00    -0.050 A 
ATOM     20  C   UNL     1       2.590   2.614  -0.709  0.00  0.00    +0.005 A 
ATOM     21  C   UNL     1       2.041   1.357  -0.533  0.00  0.00    +0.029 A 
ATOM     22  C   UNL     1       0.683   1.220  -0.317  0.00  0.00    +0.106 A 
ATOM     23  C   UNL     1      -0.128   2.339  -0.281  0.00  0.00    +0.029 A 
ATOM     24  C   UNL     1       0.421   3.596  -0.451  0.00  0.00    +0.005 A 
ENDBRANCH  15  22
ENDBRANCH   1  15
BRANCH   7  25
ATOM     25  C   UNL     1      -1.312  -4.633   3.742  0.00  0.00    +0.172 C 
BRANCH  25  26
ATOM     26  S   UNL     1      -2.717  -5.772   3.609  0.00  0.00    -0.088 S 
BRANCH  26  27
ATOM     27  C   UNL     1      -2.152  -7.240   4.403  0.00  0.00    +0.160 A 
ATOM     28  N   UNL     1      -0.986  -7.490   4.967  0.00  0.00    -0.133 NA
ATOM     29  N   UNL     1      -0.753  -8.718   5.541  0.00  0.00    -0.125 NA
ATOM     30  C   UNL     1      -1.692  -9.644   5.515  0.00  0.00    +0.180 A 
ATOM     31  S   UNL     1      -3.003  -8.790   4.654  0.00  0.00    -0.025 S 
ATOM     32  N   UNL     1      -1.667 -10.938   6.022  0.00  0.00    -0.336 N 
ATOM     33  H   UNL     1      -2.444 -11.511   5.926  0.00  0.00    +0.144 HD
ATOM     34  H   UNL     1      -0.873 -11.267   6.471  0.00  0.00    +0.144 HD
ENDBRANCH  26  27
ENDBRANCH  25  26
ENDBRANCH   7  25
TORSDOF 6
