REMARK  Name = ZINC12246357
REMARK  9 active torsions:
REMARK  status: ('A' for Active; 'I' for Inactive)
REMARK    1  A    between atoms: C_1  and  N_69
REMARK    2  A    between atoms: C_2  and  C_3
REMARK    3  A    between atoms: C_2  and  N_69
REMARK    4  A    between atoms: C_7  and  O_9
REMARK    5  A    between atoms: O_9  and  C_10
REMARK    6  A    between atoms: C_10  and  C_11
REMARK    7  A    between atoms: C_18  and  C_20
REMARK    8  A    between atoms: C_28  and  C_29
REMARK    9  A    between atoms: C_28  and  N_69
REMARK                            x       y       z     vdW  Elec       q    Type
REMARK                         _______ _______ _______ _____ _____    ______ ____
ROOT
ATOM      1  C   UNL     1       0.906  -3.721  -2.437  0.00  0.00    -0.060 A 
ATOM      2  C   UNL     1       0.687  -4.562  -1.361  0.00  0.00    +0.002 A 
ATOM      3  C   UNL     1       0.408  -4.033  -0.114  0.00  0.00    +0.004 A 
ATOM      4  C   UNL     1       0.354  -2.664   0.061  0.00  0.00    +0.045 A 
ATOM      5  C   UNL     1       0.569  -1.819  -1.018  0.00  0.00    +0.121 A 
ATOM      6  C   UNL     1       0.848  -2.352  -2.269  0.00  0.00    +0.047 A 
ENDROOT
BRANCH   1   7
ATOM      7  C   UNL     1       1.209  -4.301  -3.795  0.00  0.00    -0.043 C 
BRANCH   7   9
ATOM      8  C   UNL     1       3.173  -5.480  -3.009  0.00  0.00    -0.095 C 
ATOM      9  N   UNL     1       2.674  -4.443  -3.936  0.00  0.00    +0.383 N 
ATOM     10  H   UNL     1       3.119  -3.547  -3.706  0.00  0.00    -0.081 HD
BRANCH   9  11
ATOM     11  C   UNL     1       3.014  -4.804  -5.329  0.00  0.00    -0.043 C 
BRANCH  11  12
ATOM     12  C   UNL     1       4.509  -4.727  -5.499  0.00  0.00    -0.063 A 
ATOM     13  C   UNL     1       5.287  -5.860  -5.269  0.00  0.00    +0.004 A 
ATOM     14  C   UNL     1       6.640  -5.824  -5.414  0.00  0.00    +0.028 A 
ATOM     15  C   UNL     1       7.269  -4.628  -5.803  0.00  0.00    +0.071 A 
ATOM     16  C   UNL     1       6.476  -3.478  -6.037  0.00  0.00    +0.001 A 
ATOM     17  C   UNL     1       5.082  -3.552  -5.882  0.00  0.00    +0.011 A 
ATOM     18  C   UNL     1       7.107  -2.281  -6.426  0.00  0.00    +0.011 A 
ATOM     19  C   UNL     1       8.466  -2.284  -6.561  0.00  0.00    +0.020 A 
ATOM     20  C   UNL     1       9.187  -3.451  -6.315  0.00  0.00    +0.111 A 
ATOM     21  N   UNL     1       8.595  -4.564  -5.954  0.00  0.00    -0.255 NA
ENDBRANCH  11  12
ENDBRANCH   9  11
ENDBRANCH   7   9
ENDBRANCH   1   7
BRANCH   5  22
ATOM     22  O   UNL     1       0.511  -0.472  -0.850  0.00  0.00    -0.492 OA
BRANCH  22  23
ATOM     23  C   UNL     1       0.219   0.006   0.465  0.00  0.00    +0.234 C 
BRANCH  23  24
ATOM     24  C   UNL     1       0.196   1.536   0.458  0.00  0.00    +0.044 C 
ATOM     25  C   UNL     1      -0.234   2.046   1.835  0.00  0.00    +0.010 C 
ATOM     26  C   UNL     1      -0.289   3.575   1.820  0.00  0.00    +0.019 C 
ATOM     27  C   UNL     1       1.106   4.129   1.514  0.00  0.00    +0.108 C 
ATOM     28  N   UNL     1       1.588   3.530   0.262  0.00  0.00    -0.296 N 
ATOM     29  C   UNL     1       1.597   2.066   0.137  0.00  0.00    +0.115 C 
ATOM     30  C   UNL     1       2.014   4.309  -0.752  0.00  0.00    +0.266 C 
ATOM     31  O   UNL     1       2.510   3.803  -1.740  0.00  0.00    -0.268 OA
BRANCH  30  32
ATOM     32  C   UNL     1       1.879   5.773  -0.663  0.00  0.00    +0.145 A 
ATOM     33  C   UNL     1       2.380   6.679  -1.547  0.00  0.00    +0.126 A 
ATOM     34  N   UNL     1       2.031   7.940  -1.099  0.00  0.00    -0.300 N 
ATOM     35  C   UNL     1       2.205   9.250  -1.493  0.00  0.00    +0.100 A 
ATOM     36  C   UNL     1       1.702  10.251  -0.774  0.00  0.00    +0.067 A 
ATOM     37  S   UNL     1       0.912   9.382   0.572  0.00  0.00    -0.058 S 
ATOM     38  C   UNL     1       1.323   7.730   0.058  0.00  0.00    +0.178 A 
ATOM     39  N   UNL     1       1.229   6.459   0.312  0.00  0.00    -0.217 NA
ENDBRANCH  30  32
ENDBRANCH  23  24
ENDBRANCH  22  23
ENDBRANCH   5  22
TORSDOF 8
