REMARK  Name = ZINC61865226
REMARK  6 active torsions:
REMARK  status: ('A' for Active; 'I' for Inactive)
REMARK    1  A    between atoms: C_3  and  C_9
REMARK    2  A    between atoms: C_6  and  C_7
REMARK    3  A    between atoms: N_11  and  N_12
REMARK    4  A    between atoms: N_15  and  C_16
REMARK    5  A    between atoms: C_16  and  C_17
REMARK    6  A    between atoms: C_17  and  N_22
REMARK                            x       y       z     vdW  Elec       q    Type
REMARK                         _______ _______ _______ _____ _____    ______ ____
ROOT
ATOM      1  N   UNL     1       5.976   2.192  -0.234  0.00  0.00    -0.218 N 
ATOM      2  C   UNL     1       7.162   1.555  -0.159  0.00  0.00    +0.316 C 
ATOM      3  O   UNL     1       8.193   2.195  -0.094  0.00  0.00    -0.251 OA
ATOM      4  N   UNL     1       7.203   0.208  -0.154  0.00  0.00    -0.300 N 
ATOM      5  H   UNL     1       5.947   3.162  -0.237  0.00  0.00    +0.174 HD
ATOM      6  H   UNL     1       6.380  -0.303  -0.206  0.00  0.00    +0.150 HD
ENDROOT
BRANCH   1   9
ATOM      7  C   UNL     1       3.603   2.092  -0.384  0.00  0.00    +0.260 C 
ATOM      8  O   UNL     1       3.565   3.307  -0.387  0.00  0.00    -0.269 OA
ATOM      9  N   UNL     1       4.788   1.455  -0.308  0.00  0.00    -0.229 N 
ATOM     10  H   UNL     1       4.818   0.485  -0.305  0.00  0.00    +0.173 HD
BRANCH   7  13
ATOM     11  C   UNL     1      -0.049   1.249  -0.613  0.00  0.00    +0.019 A 
ATOM     12  C   UNL     1       1.120   1.974  -0.540  0.00  0.00    +0.014 A 
ATOM     13  C   UNL     1       2.348   1.313  -0.462  0.00  0.00    +0.038 A 
ATOM     14  C   UNL     1       2.391  -0.082  -0.458  0.00  0.00    +0.014 A 
ATOM     15  C   UNL     1       1.222  -0.808  -0.531  0.00  0.00    +0.019 A 
ATOM     16  C   UNL     1      -0.006  -0.147  -0.609  0.00  0.00    +0.052 A 
BRANCH  16  17
ATOM     17  C   UNL     1      -1.221  -0.901  -0.685  0.00  0.00    +0.099 C 
ATOM     18  N   UNL     1      -2.185  -1.500  -0.745  0.00  0.00    -0.191 NA
ENDBRANCH  16  17
ENDBRANCH   7  13
ENDBRANCH   1   9
BRANCH   4  19
ATOM     19  C   UNL     1       8.491  -0.485  -0.072  0.00  0.00    +0.094 C 
BRANCH  19  20
ATOM     20  C   UNL     1       8.254  -1.992   0.038  0.00  0.00    -0.050 C 
ATOM     21  C   UNL     1       7.464  -2.310   1.325  0.00  0.00    -0.010 C 
ATOM     22  C   UNL     1       8.072  -3.643   1.825  0.00  0.00    -0.001 C 
ATOM     23  C   UNL     1       9.579  -3.471   1.508  0.00  0.00    -0.001 C 
ATOM     24  C   UNL     1       9.598  -2.731   0.155  0.00  0.00    -0.010 C 
BRANCH  20  25
ATOM     25  N   UNL     1       7.516  -2.473  -1.138  0.00  0.00    +0.386 N 
ATOM     26  C   UNL     1       7.142  -3.873  -0.931  0.00  0.00    -0.067 C 
ATOM     27  C   UNL     1       6.072  -4.283  -1.949  0.00  0.00    +0.050 C 
ATOM     28  S   UNL     1       6.783  -4.128  -3.618  0.00  0.00    -0.164 S 
ATOM     29  C   UNL     1       7.499  -2.454  -3.591  0.00  0.00    +0.050 C 
ATOM     30  C   UNL     1       8.356  -2.318  -2.327  0.00  0.00    -0.067 C 
ATOM     31  H   UNL     1       6.678  -1.921  -1.250  0.00  0.00    -0.081 HD
ENDBRANCH  20  25
ENDBRANCH  19  20
ENDBRANCH   4  19
TORSDOF 6
