REMARK  Name = ZINC13398041
REMARK  5 active torsions:
REMARK  status: ('A' for Active; 'I' for Inactive)
REMARK    1  A    between atoms: C_3  and  S_24
REMARK    2  A    between atoms: C_6  and  N_7
REMARK    3  A    between atoms: C_8  and  C_10
REMARK    4  A    between atoms: S_24  and  N_27
REMARK    5  A    between atoms: C_31  and  C_34
REMARK                            x       y       z     vdW  Elec       q    Type
REMARK                         _______ _______ _______ _____ _____    ______ ____
ROOT
ATOM      1  C   UNL     1      -0.013   1.374   0.194  0.00  0.00    +0.025 A 
ATOM      2  C   UNL     1       1.173   2.082   0.191  0.00  0.00    +0.030 A 
ATOM      3  C   UNL     1       2.374   1.421   0.003  0.00  0.00    +0.106 A 
ATOM      4  C   UNL     1       2.391   0.051  -0.182  0.00  0.00    +0.030 A 
ATOM      5  C   UNL     1       1.208  -0.662  -0.181  0.00  0.00    +0.025 A 
ATOM      6  C   UNL     1       0.001  -0.002   0.007  0.00  0.00    +0.034 A 
ENDROOT
BRANCH   6   7
ATOM      7  N   UNL     1      -1.198  -0.721   0.010  0.00  0.00    -0.282 N 
ATOM      8  C   UNL     1      -2.324  -0.156  -0.469  0.00  0.00    +0.248 C 
ATOM      9  O   UNL     1      -2.279   0.941  -0.991  0.00  0.00    -0.270 OA
ATOM     10  H   UNL     1      -1.220  -1.627   0.357  0.00  0.00    +0.155 HD
BRANCH   8  11
ATOM     11  C   UNL     1      -3.612  -0.869  -0.360  0.00  0.00    +0.038 A 
ATOM     12  C   UNL     1      -3.665  -2.132   0.247  0.00  0.00    +0.015 A 
ATOM     13  C   UNL     1      -4.847  -2.802   0.355  0.00  0.00    +0.027 A 
ATOM     14  C   UNL     1      -6.022  -2.239  -0.138  0.00  0.00    +0.047 A 
ATOM     15  C   UNL     1      -5.983  -0.970  -0.751  0.00  0.00    +0.004 A 
ATOM     16  C   UNL     1      -4.774  -0.285  -0.855  0.00  0.00    +0.023 A 
ATOM     17  C   UNL     1      -7.357  -0.678  -1.150  0.00  0.00    -0.019 A 
ATOM     18  C   UNL     1      -8.114  -1.728  -0.778  0.00  0.00    +0.020 A 
ATOM     19  N   UNL     1      -7.328  -2.667  -0.172  0.00  0.00    -0.358 N 
ATOM     20  H   UNL     1      -7.645  -3.513   0.181  0.00  0.00    +0.166 HD
ATOM     21  C   UNL     1      -9.604  -1.811  -1.014  0.00  0.00    +0.053 C 
ATOM     22  C   UNL     1     -10.128  -0.404  -1.323  0.00  0.00    +0.006 C 
ATOM     23  C   UNL     1      -9.267   0.234  -2.417  0.00  0.00    +0.005 C 
ATOM     24  C   UNL     1      -7.878   0.551  -1.849  0.00  0.00    +0.037 C 
ENDBRANCH   8  11
ENDBRANCH   6   7
BRANCH   3  25
ATOM     25  S   UNL     1       3.885   2.327   0.000  0.00  0.00    +0.061 S 
ATOM     26  O   UNL     1       4.821   1.554  -0.739  0.00  0.00    -0.153 OA
ATOM     27  O   UNL     1       3.556   3.664  -0.351  0.00  0.00    -0.153 OA
BRANCH  25  28
ATOM     28  N   UNL     1       4.434   2.370   1.562  0.00  0.00    -0.176 NA
ATOM     29  C   UNL     1       4.035   3.457   2.466  0.00  0.00    +0.109 C 
ATOM     30  C   UNL     1       3.446   2.845   3.742  0.00  0.00    +0.018 C 
ATOM     31  C   UNL     1       4.453   1.863   4.345  0.00  0.00    +0.017 C 
ATOM     32  C   UNL     1       4.725   0.734   3.349  0.00  0.00    +0.118 C 
ATOM     33  C   UNL     1       5.324   1.317   2.071  0.00  0.00    +0.124 C 
BRANCH  32  34
ATOM     34  C   UNL     1       5.691  -0.250   3.957  0.00  0.00    +0.360 C 
ATOM     35  O   UNL     1       5.402  -0.831   4.989  0.00  0.00    -0.246 OA
ATOM     36  O   UNL     1       6.763  -0.465   3.416  0.00  0.00    -0.246 OA
ENDBRANCH  32  34
ENDBRANCH  25  28
ENDBRANCH   3  25
TORSDOF 5
