REMARK  Name = ZINC25447193
REMARK  8 active torsions:
REMARK  status: ('A' for Active; 'I' for Inactive)
REMARK    1  A    between atoms: C_1  and  C_2
REMARK    2  A    between atoms: C_2  and  C_3
REMARK    3  A    between atoms: C_2  and  C_4
REMARK    4  A    between atoms: C_2  and  C_5
REMARK    5  A    between atoms: C_11  and  C_13
REMARK    6  A    between atoms: C_17  and  N_19
REMARK    7  A    between atoms: N_19  and  S_20
REMARK    8  A    between atoms: S_20  and  C_23
REMARK                            x       y       z     vdW  Elec       q    Type
REMARK                         _______ _______ _______ _____ _____    ______ ____
ROOT
ATOM      1  C   UNL     1       2.347   3.758  -4.500  0.00  0.00    +0.039 A 
ATOM      2  C   UNL     1       1.871   4.974  -4.006  0.00  0.00    +0.013 A 
ATOM      3  C   UNL     1       2.204   5.377  -2.729  0.00  0.00    +0.003 A 
ATOM      4  C   UNL     1       3.007   4.581  -1.934  0.00  0.00    +0.024 A 
ATOM      5  C   UNL     1       3.486   3.368  -2.417  0.00  0.00    +0.049 A 
ATOM      6  C   UNL     1       3.162   2.957  -3.701  0.00  0.00    +0.037 A 
ENDROOT
BRANCH   1  13
ATOM      7  C   UNL     1      -0.087   3.779 -10.010  0.00  0.00    +0.056 A 
ATOM      8  C   UNL     1       0.473   2.577 -10.293  0.00  0.00    +0.072 A 
ATOM      9  S   UNL     1       1.335   2.244  -8.763  0.00  0.00    -0.060 S 
ATOM     10  C   UNL     1       0.877   3.695  -7.926  0.00  0.00    +0.165 A 
ATOM     11  N   UNL     1       0.127   4.308  -8.822  0.00  0.00    -0.229 NA
ATOM     12  N   UNL     1       1.210   4.103  -6.640  0.00  0.00    -0.261 N 
ATOM     13  C   UNL     1       1.993   3.324  -5.868  0.00  0.00    +0.250 C 
ATOM     14  O   UNL     1       2.408   2.265  -6.296  0.00  0.00    -0.270 OA
ATOM     15  H   UNL     1       0.834   5.061  -6.253  0.00  0.00    +0.157 HD
BRANCH   7  17
ATOM     16  C   UNL     1      -2.306   3.807 -11.117  0.00  0.00    +0.017 C 
ATOM     17  C   UNL     1      -0.940   4.491 -11.029  0.00  0.00    +0.005 C 
ATOM     18  C   UNL     1      -1.125   5.950 -10.608  0.00  0.00    +0.017 C 
ATOM     19  C   UNL     1      -0.253   4.437 -12.395  0.00  0.00    +0.017 C 
ENDBRANCH   7  17
ENDBRANCH   1  13
BRANCH   5  20
ATOM     20  N   UNL     1       4.298   2.567  -1.610  0.00  0.00    -0.216 N 
ATOM     21  H   UNL     1       5.206   2.108  -2.028  0.00  0.00    +0.174 HD
BRANCH  20  22
ATOM     22  S   UNL     1       3.894   2.309  -0.025  0.00  0.00    +0.072 S 
ATOM     23  O   UNL     1       3.611   3.584   0.534  0.00  0.00    -0.150 OA
ATOM     24  O   UNL     1       4.887   1.445   0.511  0.00  0.00    -0.150 OA
BRANCH  22  25
ATOM     25  C   UNL     1       2.381   1.406  -0.014  0.00  0.00    +0.112 A 
ATOM     26  C   UNL     1       1.175   2.082   0.002  0.00  0.00    +0.032 A 
ATOM     27  C   UNL     1      -0.017   1.380   0.010  0.00  0.00    +0.051 A 
ATOM     28  C   UNL     1       0.002  -0.004   0.002  0.00  0.00    +0.162 A 
ATOM     29  C   UNL     1       1.212  -0.683  -0.013  0.00  0.00    +0.164 A 
ATOM     30  C   UNL     1       2.403   0.023  -0.021  0.00  0.00    +0.078 A 
ATOM     31  O   UNL     1       1.220  -2.047  -0.019  0.00  0.00    -0.488 OA
ATOM     32  C   UNL     1       0.758  -2.681   1.175  0.00  0.00    +0.232 C 
ATOM     33  C   UNL     1      -0.758  -2.801   1.171  0.00  0.00    +0.082 C 
ATOM     34  C   UNL     1      -1.446  -1.445   1.201  0.00  0.00    +0.232 C 
ATOM     35  O   UNL     1      -1.167  -0.709   0.008  0.00  0.00    -0.488 OA
ENDBRANCH  22  25
ENDBRANCH  20  22
ENDBRANCH   5  20
TORSDOF 5
