REMARK  Name = ZINC67204906
REMARK  7 active torsions:
REMARK  status: ('A' for Active; 'I' for Inactive)
REMARK    1  A    between atoms: C_1  and  O_2
REMARK    2  A    between atoms: O_2  and  C_3
REMARK    3  A    between atoms: C_3  and  C_5
REMARK    4  A    between atoms: C_6  and  C_20
REMARK    5  A    between atoms: C_11  and  C_13
REMARK    6  A    between atoms: C_20  and  N_21
REMARK    7  A    between atoms: N_24  and  C_27
REMARK                            x       y       z     vdW  Elec       q    Type
REMARK                         _______ _______ _______ _____ _____    ______ ____
ROOT
ATOM      1  C   UNL     1      -1.272  -2.025  -0.053  0.00  0.00    +0.079 C 
ATOM      2  C   UNL     1      -2.435  -2.688   0.122  0.00  0.00    +0.038 C 
ATOM      3  N   UNL     1      -2.466  -4.051   0.190  0.00  0.00    -0.271 N 
ATOM      4  C   UNL     1      -1.378  -4.825   0.092  0.00  0.00    +0.304 C 
ATOM      5  O   UNL     1      -1.505  -6.031   0.165  0.00  0.00    -0.252 OA
ATOM      6  N   UNL     1      -0.145  -4.309  -0.085  0.00  0.00    -0.288 N 
ATOM      7  C   UNL     1      -0.004  -2.846  -0.177  0.00  0.00    +0.144 C 
ATOM      8  H   UNL     1      -3.325  -4.484   0.317  0.00  0.00    +0.156 HD
ATOM      9  H   UNL     1       0.630  -4.888  -0.153  0.00  0.00    +0.151 HD
ENDROOT
BRANCH   7  10
ATOM     10  C   UNL     1       0.943  -2.406   0.909  0.00  0.00    -0.022 A 
ATOM     11  C   UNL     1       0.786  -2.882   2.197  0.00  0.00    +0.008 A 
ATOM     12  C   UNL     1       1.654  -2.479   3.194  0.00  0.00    +0.038 A 
ATOM     13  C   UNL     1       2.682  -1.598   2.902  0.00  0.00    +0.123 A 
ATOM     14  C   UNL     1       2.839  -1.123   1.611  0.00  0.00    +0.038 A 
ATOM     15  C   UNL     1       1.972  -1.531   0.615  0.00  0.00    +0.008 A 
ATOM     16  F   UNL     1       3.531  -1.204   3.876  0.00  0.00    -0.205 F 
ENDBRANCH   7  10
BRANCH   1  17
ATOM     17  C   UNL     1      -1.238  -0.613  -0.124  0.00  0.00    +0.339 C 
ATOM     18  O   UNL     1      -1.083  -0.061  -1.198  0.00  0.00    -0.245 OA
BRANCH  17  20
ATOM     19  C   UNL     1      -1.333   1.544   0.853  0.00  0.00    +0.280 C 
ATOM     20  O   UNL     1      -1.377   0.123   0.998  0.00  0.00    -0.465 OA
ENDBRANCH  17  20
ENDBRANCH   1  17
BRANCH   2  21
ATOM     21  C   UNL     1      -3.720  -1.910   0.245  0.00  0.00    +0.136 C 
BRANCH  21  22
ATOM     22  N   UNL     1      -4.598  -2.232  -0.887  0.00  0.00    -0.294 NA
ATOM     23  C   UNL     1      -4.018  -1.765  -2.153  0.00  0.00    +0.103 C 
ATOM     24  C   UNL     1      -4.869  -2.276  -3.321  0.00  0.00    +0.120 C 
ATOM     25  N   UNL     1      -6.265  -1.877  -3.091  0.00  0.00    -0.327 N 
ATOM     26  C   UNL     1      -6.874  -2.190  -1.790  0.00  0.00    +0.120 C 
ATOM     27  C   UNL     1      -5.945  -1.682  -0.683  0.00  0.00    +0.103 C 
BRANCH  25  28
ATOM     28  C   UNL     1      -6.994  -1.216  -4.084  0.00  0.00    +0.030 A 
ATOM     29  C   UNL     1      -6.446  -1.038  -5.348  0.00  0.00    +0.024 A 
ATOM     30  C   UNL     1      -7.169  -0.385  -6.327  0.00  0.00    +0.022 A 
ATOM     31  C   UNL     1      -8.438   0.092  -6.049  0.00  0.00    +0.041 A 
ATOM     32  C   UNL     1      -8.987  -0.085  -4.791  0.00  0.00    +0.022 A 
ATOM     33  C   UNL     1      -8.271  -0.742  -3.810  0.00  0.00    +0.024 A 
ATOM     34 CL   UNL     1      -9.344   0.913  -7.282  0.00  0.00    -0.084 Cl
ENDBRANCH  25  28
ENDBRANCH  21  22
ENDBRANCH   2  21
TORSDOF 6
