REMARK  Name = ZINC29635521
REMARK  9 active torsions:
REMARK  status: ('A' for Active; 'I' for Inactive)
REMARK    1  A    between atoms: C_1  and  C_2
REMARK    2  A    between atoms: C_5  and  N_33
REMARK    3  A    between atoms: C_7  and  S_8
REMARK    4  A    between atoms: S_8  and  N_11
REMARK    5  A    between atoms: N_11  and  C_12
REMARK    6  A    between atoms: C_15  and  N_18
REMARK    7  A    between atoms: C_19  and  C_21
REMARK    8  A    between atoms: C_23  and  C_27
REMARK    9  A    between atoms: C_30  and  C_32
REMARK                            x       y       z     vdW  Elec       q    Type
REMARK                         _______ _______ _______ _____ _____    ______ ____
ROOT
ATOM      1  C   UNL     1       7.384   1.538  -0.117  0.00  0.00    +0.048 A 
ATOM      2  C   UNL     1       7.135   2.881   0.135  0.00  0.00    +0.026 A 
ATOM      3  C   UNL     1       5.852   3.304   0.416  0.00  0.00    +0.025 A 
ATOM      4  C   UNL     1       4.809   2.388   0.446  0.00  0.00    +0.034 A 
ATOM      5  C   UNL     1       5.059   1.044   0.200  0.00  0.00    +0.025 A 
ATOM      6  C   UNL     1       6.341   0.621  -0.087  0.00  0.00    +0.026 A 
ENDROOT
BRANCH   4   7
ATOM      7  N   UNL     1       3.507   2.817   0.731  0.00  0.00    -0.280 N 
ATOM      8  C   UNL     1       3.306   3.834   1.593  0.00  0.00    +0.265 C 
ATOM      9  O   UNL     1       4.247   4.316   2.195  0.00  0.00    -0.268 OA
ATOM     10  H   UNL     1       2.648   2.325   0.252  0.00  0.00    +0.155 HD
BRANCH   8  11
ATOM     11  C   UNL     1       1.953   4.359   1.805  0.00  0.00    +0.103 A 
ATOM     12  C   UNL     1       1.610   5.381   2.646  0.00  0.00    +0.042 A 
ATOM     13  C   UNL     1       0.217   5.553   2.546  0.00  0.00    +0.019 A 
ATOM     14  C   UNL     1      -0.245   4.638   1.643  0.00  0.00    +0.093 A 
ATOM     15  N   UNL     1       0.805   3.909   1.193  0.00  0.00    -0.356 N 
ATOM     16  H   UNL     1       0.855   3.081   0.471  0.00  0.00    +0.165 HD
BRANCH  13  17
ATOM     17  C   UNL     1      -0.602   6.548   3.285  0.00  0.00    +0.080 A 
ATOM     18  C   UNL     1      -1.955   6.621   3.105  0.00  0.00    +0.075 A 
ATOM     19  S   UNL     1      -2.364   7.955   4.221  0.00  0.00    -0.080 S 
ATOM     20  C   UNL     1      -0.757   8.273   4.796  0.00  0.00    +0.076 A 
ATOM     21  N   UNL     1      -0.043   7.388   4.142  0.00  0.00    -0.244 NA
ATOM     22  C   UNL     1      -0.298   9.302   5.797  0.00  0.00    +0.073 C 
ENDBRANCH  13  17
ENDBRANCH   8  11
ENDBRANCH   4   7
BRANCH   1  23
ATOM     23  N   UNL     1       8.685   1.109  -0.402  0.00  0.00    -0.216 N 
ATOM     24  H   UNL     1       9.305   1.671  -1.116  0.00  0.00    +0.174 HD
BRANCH  23  25
ATOM     25  S   UNL     1       9.291  -0.244   0.336  0.00  0.00    +0.073 S 
ATOM     26  O   UNL     1       8.328  -1.273   0.151  0.00  0.00    -0.150 OA
ATOM     27  O   UNL     1      10.637  -0.375  -0.098  0.00  0.00    -0.150 OA
BRANCH  25  34
ATOM     28  C   UNL     1      10.972   1.932   1.595  0.00  0.00    +0.046 C 
ATOM     29  C   UNL     1      10.148   1.105   2.548  0.00  0.00    -0.024 A 
ATOM     30  C   UNL     1      10.190   1.368   3.905  0.00  0.00    +0.007 A 
ATOM     31  C   UNL     1       9.439   0.605   4.779  0.00  0.00    +0.033 A 
ATOM     32  C   UNL     1       8.643  -0.417   4.297  0.00  0.00    +0.128 A 
ATOM     33  C   UNL     1       8.597  -0.676   2.940  0.00  0.00    +0.061 A 
ATOM     34  C   UNL     1       9.348   0.086   2.065  0.00  0.00    +0.114 A 
BRANCH  32  35
ATOM     35  N   UNL     1       7.839  -1.234   5.234  0.00  0.00    +0.056 N 
ATOM     36  O   UNL     1       7.137  -2.135   4.809  0.00  0.00    -0.126 OA
ATOM     37  O   UNL     1       7.879  -1.005   6.430  0.00  0.00    -0.126 OA
ENDBRANCH  32  35
ENDBRANCH  25  34
ENDBRANCH  23  25
ENDBRANCH   1  23
TORSDOF 7
