REMARK  Name = ZINC15946859
REMARK  8 active torsions:
REMARK  status: ('A' for Active; 'I' for Inactive)
REMARK    1  A    between atoms: C_1  and  C_2
REMARK    2  A    between atoms: C_8  and  C_9
REMARK    3  A    between atoms: C_8  and  N_62
REMARK    4  A    between atoms: N_11  and  C_12
REMARK    5  A    between atoms: C_13  and  C_21
REMARK    6  A    between atoms: N_23  and  C_24
REMARK    7  A    between atoms: C_29  and  O_30
REMARK    8  A    between atoms: O_30  and  C_31
REMARK                            x       y       z     vdW  Elec       q    Type
REMARK                         _______ _______ _______ _____ _____    ______ ____
ROOT
ATOM      1  C   UNL     1      -4.257   1.675   5.652  0.00  0.00    +0.084 A 
ATOM      2  C   UNL     1      -2.952   2.145   5.625  0.00  0.00    +0.069 A 
ATOM      3  C   UNL     1      -2.056   1.703   6.681  0.00  0.00    -0.023 A 
ATOM      4  C   UNL     1      -2.609   0.875   7.594  0.00  0.00    -0.004 A 
ATOM      5  S   UNL     1      -4.285   0.669   7.063  0.00  0.00    -0.077 S 
ATOM      6  C   UNL     1      -1.936   0.266   8.785  0.00  0.00    +0.043 C 
ATOM      7  C   UNL     1      -0.418   0.428   8.618  0.00  0.00    +0.005 C 
ATOM      8  C   UNL     1      -0.117   1.876   8.222  0.00  0.00    +0.005 C 
ATOM      9  C   UNL     1      -0.600   2.136   6.794  0.00  0.00    +0.037 C 
ENDROOT
BRANCH   1  12
ATOM     10  C   UNL     1      -6.502   1.389   4.955  0.00  0.00    +0.201 C 
ATOM     11  O   UNL     1      -6.692   0.656   5.901  0.00  0.00    -0.278 OA
ATOM     12  N   UNL     1      -5.288   1.943   4.765  0.00  0.00    -0.281 N 
ATOM     13  H   UNL     1      -5.136   2.530   4.008  0.00  0.00    +0.155 HD
BRANCH  10  14
ATOM     14  C   UNL     1      -7.623   1.682   3.990  0.00  0.00    +0.019 C 
BRANCH  14  21
ATOM     15  C   UNL     1      -8.032  -0.971   3.146  0.00  0.00    -0.013 C 
ATOM     16  C   UNL     1      -8.589  -0.482   4.484  0.00  0.00    -0.071 C 
ATOM     17  C   UNL     1      -9.902  -1.208   4.785  0.00  0.00    -0.016 C 
ATOM     18  C   UNL     1     -10.467  -0.701   6.115  0.00  0.00    -0.003 C 
ATOM     19  C   UNL     1     -10.665   0.815   6.032  0.00  0.00    -0.019 C 
ATOM     20  C   UNL     1      -9.330   1.482   5.695  0.00  0.00    -0.078 C 
ATOM     21  N   UNL     1      -8.853   0.969   4.393  0.00  0.00    +0.387 N 
ATOM     22  H   UNL     1      -9.579   1.132   3.685  0.00  0.00    -0.081 HD
ENDBRANCH  14  21
ENDBRANCH  10  14
ENDBRANCH   1  12
BRANCH   2  23
ATOM     23  C   UNL     1      -2.491   3.051   4.568  0.00  0.00    +0.251 C 
ATOM     24  O   UNL     1      -2.587   4.255   4.714  0.00  0.00    -0.270 OA
ATOM     25  N   UNL     1      -1.963   2.549   3.434  0.00  0.00    -0.278 N 
ATOM     26  H   UNL     1      -1.946   1.590   3.290  0.00  0.00    +0.155 HD
BRANCH  25  27
ATOM     27  C   UNL     1      -1.437   3.413   2.465  0.00  0.00    +0.077 A 
ATOM     28  C   UNL     1      -2.022   4.652   2.247  0.00  0.00    +0.047 A 
ATOM     29  C   UNL     1      -1.502   5.503   1.289  0.00  0.00    +0.043 A 
ATOM     30  C   UNL     1      -0.398   5.121   0.546  0.00  0.00    +0.024 A 
ATOM     31  C   UNL     1       0.193   3.890   0.763  0.00  0.00    +0.049 A 
ATOM     32  C   UNL     1      -0.326   3.030   1.716  0.00  0.00    +0.141 A 
ATOM     33 CL   UNL     1      -2.234   7.053   1.017  0.00  0.00    -0.083 Cl
BRANCH  32  34
ATOM     34  O   UNL     1       0.251   1.816   1.926  0.00  0.00    -0.493 OA
ATOM     35  C   UNL     1       1.387   1.490   1.122  0.00  0.00    +0.277 C 
ENDBRANCH  32  34
ENDBRANCH  25  27
ENDBRANCH   2  23
TORSDOF 6
