REMARK  Name = ZINC64558185
REMARK  7 active torsions:
REMARK  status: ('A' for Active; 'I' for Inactive)
REMARK    1  A    between atoms: C_1  and  C_2
REMARK    2  A    between atoms: C_5  and  S_8
REMARK    3  A    between atoms: S_8  and  C_11
REMARK    4  A    between atoms: N_15  and  C_26
REMARK    5  A    between atoms: C_16  and  C_18
REMARK    6  A    between atoms: C_21  and  O_24
REMARK    7  A    between atoms: O_24  and  C_25
REMARK                            x       y       z     vdW  Elec       q    Type
REMARK                         _______ _______ _______ _____ _____    ______ ____
ROOT
ATOM      1  C   UNL     1       1.752  -5.029  -0.035  0.00  0.00    +0.148 C 
ATOM      2  C   UNL     1       2.389  -5.699   0.926  0.00  0.00    +0.264 C 
ATOM      3  C   UNL     1       3.788  -5.921   0.533  0.00  0.00    +0.293 C 
ATOM      4  O   UNL     1       4.617  -6.503   1.204  0.00  0.00    -0.266 OA
ATOM      5  N   UNL     1       4.014  -5.384  -0.681  0.00  0.00    -0.252 N 
ATOM      6  C   UNL     1       2.754  -4.786  -1.140  0.00  0.00    +0.164 C 
ATOM      7  O   UNL     1       1.829  -6.113   2.095  0.00  0.00    -0.281 OA
ENDROOT
BRANCH   5   8
ATOM      8  C   UNL     1       5.226  -5.398  -1.379  0.00  0.00    +0.038 A 
ATOM      9  C   UNL     1       5.317  -4.796  -2.627  0.00  0.00    +0.024 A 
ATOM     10  C   UNL     1       6.515  -4.810  -3.314  0.00  0.00    +0.017 A 
ATOM     11  C   UNL     1       7.624  -5.425  -2.759  0.00  0.00    +0.018 A 
ATOM     12  C   UNL     1       7.537  -6.025  -1.516  0.00  0.00    +0.017 A 
ATOM     13  C   UNL     1       6.343  -6.008  -0.822  0.00  0.00    +0.024 A 
ATOM     14 BR   UNL     1       9.263  -5.444  -3.703  0.00  0.00    -0.050 Br
ENDBRANCH   5   8
BRANCH   6  15
ATOM     15  C   UNL     1       2.294  -5.449  -2.413  0.00  0.00    -0.021 A 
ATOM     16  C   UNL     1       2.484  -6.807  -2.591  0.00  0.00    +0.009 A 
ATOM     17  C   UNL     1       2.064  -7.417  -3.757  0.00  0.00    +0.046 A 
ATOM     18  C   UNL     1       1.451  -6.666  -4.750  0.00  0.00    +0.120 A 
ATOM     19  C   UNL     1       1.261  -5.303  -4.568  0.00  0.00    +0.046 A 
ATOM     20  C   UNL     1       1.678  -4.699  -3.398  0.00  0.00    +0.009 A 
BRANCH  18  21
ATOM     21  O   UNL     1       1.037  -7.263  -5.898  0.00  0.00    -0.495 OA
ATOM     22  C   UNL     1       0.414  -6.428  -6.876  0.00  0.00    +0.277 C 
ENDBRANCH  18  21
ENDBRANCH   6  15
BRANCH   1  23
ATOM     23  S   UNL     1       0.063  -4.530  -0.023  0.00  0.00    +0.027 S 
ATOM     24  O   UNL     1      -0.476  -4.950   1.223  0.00  0.00    -0.164 OA
ATOM     25  O   UNL     1      -0.490  -4.937  -1.267  0.00  0.00    -0.164 OA
BRANCH  23  30
ATOM     26  C   UNL     1      -0.018   1.503   0.010  0.00  0.00    +0.044 C 
ATOM     27  C   UNL     1       0.002  -0.004   0.002  0.00  0.00    -0.050 A 
ATOM     28  C   UNL     1       0.006  -0.689  -1.199  0.00  0.00    +0.005 A 
ATOM     29  C   UNL     1       0.025  -2.071  -1.206  0.00  0.00    +0.027 A 
ATOM     30  C   UNL     1       0.040  -2.768  -0.013  0.00  0.00    +0.093 A 
ATOM     31  C   UNL     1       0.037  -2.084   1.188  0.00  0.00    +0.027 A 
ATOM     32  C   UNL     1       0.023  -0.702   1.195  0.00  0.00    +0.005 A 
ENDBRANCH  23  30
ENDBRANCH   1  23
TORSDOF 5
