REMARK  Name = ZINC08437641
REMARK  11 active torsions:
REMARK  status: ('A' for Active; 'I' for Inactive)
REMARK    1  A    between atoms: C_1  and  O_2
REMARK    2  A    between atoms: O_2  and  C_3
REMARK    3  A    between atoms: C_6  and  C_9
REMARK    4  A    between atoms: C_16  and  N_37
REMARK    5  A    between atoms: C_17  and  C_35
REMARK    6  A    between atoms: C_18  and  C_20
REMARK    7  A    between atoms: C_23  and  O_33
REMARK    8  A    between atoms: C_24  and  C_26
REMARK    9  A    between atoms: C_26  and  S_27
REMARK   10  A    between atoms: S_27  and  C_28
REMARK   11  A    between atoms: O_33  and  C_34
REMARK                            x       y       z     vdW  Elec       q    Type
REMARK                         _______ _______ _______ _____ _____    ______ ____
ROOT
ATOM      1  C   UNL     1      -4.964  -2.620   0.035  0.00  0.00    +0.100 A 
ATOM      2  C   UNL     1      -5.264  -3.825  -0.608  0.00  0.00    +0.054 A 
ATOM      3  C   UNL     1      -6.571  -4.124  -0.356  0.00  0.00    +0.223 A 
ATOM      4  N   UNL     1      -7.076  -3.141   0.417  0.00  0.00    -0.246 N 
ATOM      5  H   UNL     1      -7.985  -3.088   0.752  0.00  0.00    +0.192 HD
ATOM      6  N   UNL     1      -6.053  -2.210   0.657  0.00  0.00    -0.171 NA
ATOM      7  O   UNL     1      -7.173  -5.239  -0.840  0.00  0.00    -0.423 OA
ATOM      8  C   UNL     1      -6.383  -6.202  -1.356  0.00  0.00    +0.200 C 
ATOM      9  C   UNL     1      -5.078  -6.022  -1.658  0.00  0.00    +0.098 C 
ATOM     10  C   UNL     1      -4.374  -4.704  -1.448  0.00  0.00    +0.102 C 
ENDROOT
BRANCH   1  14
ATOM     11  C   UNL     1      -1.200  -0.637   0.010  0.00  0.00    +0.120 A 
ATOM     12  C   UNL     1      -2.374   0.104   0.019  0.00  0.00    +0.046 A 
ATOM     13  C   UNL     1      -3.595  -0.536   0.028  0.00  0.00    +0.013 A 
ATOM     14  C   UNL     1      -3.651  -1.928   0.026  0.00  0.00    +0.003 A 
ATOM     15  C   UNL     1      -2.471  -2.670   0.016  0.00  0.00    +0.013 A 
ATOM     16  C   UNL     1      -1.252  -2.025   0.003  0.00  0.00    +0.046 A 
BRANCH  11  18
ATOM     17  C   UNL     1      -0.017   1.425   0.010  0.00  0.00    +0.277 C 
ATOM     18  O   UNL     1       0.002  -0.004   0.002  0.00  0.00    -0.495 OA
ENDBRANCH  11  18
ENDBRANCH   1  14
BRANCH  10  19
ATOM     19  C   UNL     1      -4.119  -4.045  -2.779  0.00  0.00    -0.034 A 
ATOM     20  C   UNL     1      -5.179  -3.744  -3.615  0.00  0.00    +0.008 A 
ATOM     21  C   UNL     1      -4.948  -3.141  -4.835  0.00  0.00    +0.046 A 
ATOM     22  C   UNL     1      -3.651  -2.837  -5.223  0.00  0.00    +0.124 A 
ATOM     23  C   UNL     1      -2.590  -3.139  -4.383  0.00  0.00    +0.005 A 
ATOM     24  C   UNL     1      -2.826  -3.738  -3.161  0.00  0.00    +0.012 A 
BRANCH  22  25
ATOM     25  O   UNL     1      -3.421  -2.243  -6.424  0.00  0.00    -0.495 OA
ATOM     26  C   UNL     1      -4.562  -1.961  -7.237  0.00  0.00    +0.277 C 
ENDBRANCH  22  25
BRANCH  23  27
ATOM     27  C   UNL     1      -1.180  -2.810  -4.801  0.00  0.00    +0.115 C 
BRANCH  27  28
ATOM     28  S   UNL     1      -0.755  -1.140  -4.236  0.00  0.00    -0.095 S 
BRANCH  28  29
ATOM     29  C   UNL     1       0.900  -0.908  -4.794  0.00  0.00    +0.126 C 
ATOM     30  N   UNL     1       1.632  -1.753  -5.465  0.00  0.00    -0.270 NA
ATOM     31  C   UNL     1       2.997  -1.433  -5.840  0.00  0.00    +0.154 C 
ATOM     32  C   UNL     1       3.255   0.096  -5.765  0.00  0.00    +0.099 C 
ATOM     33  S   UNL     1       1.925   0.536  -4.568  0.00  0.00    -0.098 S 
ENDBRANCH  28  29
ENDBRANCH  27  28
ENDBRANCH  23  27
ENDBRANCH  10  19
BRANCH   8  34
ATOM     34  N   UNL     1      -6.935  -7.437  -1.587  0.00  0.00    -0.328 N 
ATOM     35  H   UNL     1      -7.869  -7.598  -1.380  0.00  0.00    +0.145 HD
ATOM     36  H   UNL     1      -6.391  -8.150  -1.958  0.00  0.00    +0.145 HD
ENDBRANCH   8  34
BRANCH   9  37
ATOM     37  C   UNL     1      -4.336  -7.122  -2.197  0.00  0.00    +0.101 C 
ATOM     38  N   UNL     1      -3.748  -7.994  -2.625  0.00  0.00    -0.191 NA
ENDBRANCH   9  37
TORSDOF 9
