REMARK  Name = ZINC62794671
REMARK  3 active torsions:
REMARK  status: ('A' for Active; 'I' for Inactive)
REMARK    1  A    between atoms: C_3  and  N_12
REMARK    2  A    between atoms: C_6  and  C_7
REMARK    3  A    between atoms: N_8  and  O_9
REMARK                            x       y       z     vdW  Elec       q    Type
REMARK                         _______ _______ _______ _____ _____    ______ ____
ROOT
ATOM      1  C   UNL     1       0.005   1.379   0.028  0.00  0.00    +0.013 A 
ATOM      2  C   UNL     1       1.195   2.072  -0.007  0.00  0.00    +0.025 A 
ATOM      3  C   UNL     1       2.400   1.384  -0.100  0.00  0.00    +0.049 A 
ATOM      4  C   UNL     1       2.407  -0.007  -0.157  0.00  0.00    +0.063 A 
ATOM      5  C   UNL     1       1.219  -0.705  -0.121  0.00  0.00    +0.033 A 
ATOM      6  C   UNL     1       0.009  -0.016  -0.028  0.00  0.00    +0.019 A 
ATOM      7 CL   UNL     1       3.913  -0.863  -0.274  0.00  0.00    -0.082 Cl
ENDROOT
BRANCH   3   8
ATOM      8  N   UNL     1       3.603   2.088  -0.136  0.00  0.00    -0.321 N 
ATOM      9  C   UNL     1       4.190   2.529  -1.411  0.00  0.00    +0.133 C 
ATOM     10  C   UNL     1       4.521   4.021  -1.308  0.00  0.00    +0.179 C 
ATOM     11  O   UNL     1       5.300   4.255  -0.131  0.00  0.00    -0.373 OA
ATOM     12  C   UNL     1       4.629   3.920   1.083  0.00  0.00    +0.139 C 
ATOM     13  C   UNL     1       4.329   2.423   1.103  0.00  0.00    +0.102 C 
ATOM     14  C   UNL     1       5.645   1.640   1.115  0.00  0.00    +0.025 C 
ATOM     15  C   UNL     1       6.470   2.034   2.341  0.00  0.00    +0.002 C 
ATOM     16  C   UNL     1       6.784   3.531   2.279  0.00  0.00    +0.003 C 
ATOM     17  C   UNL     1       5.485   4.296   2.288  0.00  0.00    +0.033 C 
ENDBRANCH   3   8
BRANCH   6  18
ATOM     18  C   UNL     1      -1.268  -0.762   0.011  0.00  0.00    +0.162 C 
ATOM     19  N   UNL     1      -1.298  -1.975   0.481  0.00  0.00    -0.072 NA
ATOM     20  N   UNL     1      -2.430  -0.170  -0.453  0.00  0.00    -0.340 N 
ATOM     21  H   UNL     1      -2.408   0.734  -0.804  0.00  0.00    +0.144 HD
ATOM     22  H   UNL     1      -3.268  -0.659  -0.428  0.00  0.00    +0.144 HD
BRANCH  19  23
ATOM     23  O   UNL     1      -0.142  -2.531   1.080  0.00  0.00    -0.408 OA
ATOM     24  H   UNL     1      -0.262  -3.437   1.399  0.00  0.00    +0.328 HD
ENDBRANCH  19  23
ENDBRANCH   6  18
TORSDOF 3
