REMARK  Name = ZINC43736330
REMARK  7 active torsions:
REMARK  status: ('A' for Active; 'I' for Inactive)
REMARK    1  A    between atoms: C_1  and  C_2
REMARK    2  A    between atoms: C_15  and  O_30
REMARK    3  A    between atoms: C_18  and  C_29
REMARK    4  A    between atoms: C_23  and  C_24
REMARK    5  A    between atoms: C_23  and  O_28
REMARK    6  A    between atoms: C_24  and  C_26
REMARK    7  A    between atoms: C_26  and  O_27
REMARK                            x       y       z     vdW  Elec       q    Type
REMARK                         _______ _______ _______ _____ _____    ______ ____
ROOT
ATOM      1  C   UNL     1      -0.128   0.825  -0.125  0.00  0.00    +0.016 C 
ATOM      2  C   UNL     1      -0.288  -0.689  -0.274  0.00  0.00    -0.005 C 
ATOM      3  C   UNL     1      -0.001  -1.053  -1.720  0.00  0.00    +0.019 C 
ATOM      4  C   UNL     1       1.500  -1.121  -1.998  0.00  0.00    +0.080 C 
ATOM      5  C   UNL     1       2.090  -2.146  -1.050  0.00  0.00    +0.156 C 
ATOM      6  O   UNL     1       2.825  -3.029  -1.441  0.00  0.00    -0.293 OA
ATOM      7  C   UNL     1       1.727  -2.015   0.365  0.00  0.00    +0.046 C 
ATOM      8  C   UNL     1       0.623  -1.351   0.714  0.00  0.00    -0.060 C 
ATOM      9  C   UNL     1       0.303  -1.228   2.193  0.00  0.00    +0.032 C 
ATOM     10  C   UNL     1      -1.168  -1.592   2.410  0.00  0.00    +0.008 C 
ATOM     11  C   UNL     1      -2.043  -0.713   1.512  0.00  0.00    -0.001 C 
ATOM     12  C   UNL     1      -1.746  -1.045   0.042  0.00  0.00    +0.031 C 
ATOM     13  C   UNL     1      -2.663  -0.297  -0.920  0.00  0.00    +0.119 C 
ATOM     14  C   UNL     1      -4.146  -0.514  -0.577  0.00  0.00    +0.041 C 
ATOM     15  C   UNL     1      -4.344  -0.056   0.856  0.00  0.00    +0.006 C 
ATOM     16  C   UNL     1      -3.508  -1.011   1.776  0.00  0.00    +0.002 C 
ATOM     17  C   UNL     1      -4.018  -0.656   3.177  0.00  0.00    +0.007 C 
ATOM     18  C   UNL     1      -5.548  -0.500   2.961  0.00  0.00    +0.040 C 
ATOM     19  C   UNL     1      -5.755  -0.181   1.420  0.00  0.00    +0.095 C 
ATOM     20  C   UNL     1      -3.848   1.382   1.014  0.00  0.00    +0.015 C 
ENDROOT
BRANCH  19  21
ATOM     21  C   UNL     1      -6.500   1.119   1.258  0.00  0.00    -0.020 C 
ATOM     22  C   UNL     1      -6.531   1.983   2.242  0.00  0.00    +0.013 C 
BRANCH  21  23
ATOM     23  C   UNL     1      -7.208   1.425  -0.037  0.00  0.00    +0.189 C 
BRANCH  23  24
ATOM     24  O   UNL     1      -7.730   2.755   0.009  0.00  0.00    -0.391 OA
ATOM     25  H   UNL     1      -8.200   3.020  -0.794  0.00  0.00    +0.210 HD
ENDBRANCH  23  24
ENDBRANCH  21  23
ENDBRANCH  19  21
BRANCH  19  26
ATOM     26  O   UNL     1      -6.458  -1.240   0.767  0.00  0.00    -0.384 OA
ATOM     27  H   UNL     1      -7.363  -1.367   1.085  0.00  0.00    +0.211 HD
ENDBRANCH  19  26
BRANCH  13  28
ATOM     28  O   UNL     1      -2.371   1.100  -0.852  0.00  0.00    -0.391 OA
ATOM     29  H   UNL     1      -2.915   1.645  -1.437  0.00  0.00    +0.210 HD
ENDBRANCH  13  28
TORSDOF 5
