REMARK  Name = ZINC19631798
REMARK  7 active torsions:
REMARK  status: ('A' for Active; 'I' for Inactive)
REMARK    1  A    between atoms: C_1  and  O_2
REMARK    2  A    between atoms: O_2  and  C_3
REMARK    3  A    between atoms: C_8  and  N_9
REMARK    4  A    between atoms: C_10  and  C_12
REMARK    5  A    between atoms: C_16  and  N_17
REMARK    6  A    between atoms: C_18  and  C_20
REMARK    7  A    between atoms: C_26  and  C_28
REMARK                            x       y       z     vdW  Elec       q    Type
REMARK                         _______ _______ _______ _____ _____    ______ ____
ROOT
ATOM      1  C   UNL     1       1.143  -1.889  -0.789  0.00  0.00    +0.069 A 
ATOM      2  C   UNL     1       1.108  -0.456  -0.502  0.00  0.00    -0.023 A 
ATOM      3  C   UNL     1       0.006  -0.029   0.140  0.00  0.00    -0.004 A 
ATOM      4  S   UNL     1      -0.981  -1.488   0.364  0.00  0.00    -0.077 S 
ATOM      5  C   UNL     1       0.061  -2.651  -0.384  0.00  0.00    +0.084 A 
ATOM      6  C   UNL     1       0.044   1.452   0.403  0.00  0.00    +0.043 C 
ATOM      7  C   UNL     1       1.528   1.842   0.217  0.00  0.00    +0.010 C 
ATOM      8  C   UNL     1       2.022   0.746  -0.747  0.00  0.00    +0.037 C 
ENDROOT
BRANCH   1  10
ATOM      9  N   UNL     1       2.287  -2.584  -2.827  0.00  0.00    -0.278 N 
ATOM     10  C   UNL     1       2.284  -2.498  -1.482  0.00  0.00    +0.251 C 
ATOM     11  O   UNL     1       3.227  -2.924  -0.842  0.00  0.00    -0.270 OA
ATOM     12  H   UNL     1       1.471  -2.132  -3.409  0.00  0.00    +0.155 HD
BRANCH   9  18
ATOM     13  C   UNL     1       3.103  -3.860  -4.715  0.00  0.00    +0.141 A 
ATOM     14  C   UNL     1       4.139  -4.513  -5.363  0.00  0.00    +0.047 A 
ATOM     15  C   UNL     1       5.392  -4.569  -4.781  0.00  0.00    +0.004 A 
ATOM     16  C   UNL     1       5.616  -3.969  -3.555  0.00  0.00    +0.002 A 
ATOM     17  C   UNL     1       4.589  -3.311  -2.905  0.00  0.00    +0.027 A 
ATOM     18  C   UNL     1       3.329  -3.251  -3.483  0.00  0.00    +0.076 A 
BRANCH  13  20
ATOM     19  C   UNL     1       1.710  -4.456  -6.548  0.00  0.00    +0.277 C 
ATOM     20  O   UNL     1       1.869  -3.809  -5.284  0.00  0.00    -0.493 OA
ENDBRANCH  13  20
ENDBRANCH   9  18
ENDBRANCH   1  10
BRANCH   5  21
ATOM     21  N   UNL     1      -0.140  -4.014  -0.539  0.00  0.00    -0.279 N 
ATOM     22  C   UNL     1      -1.268  -4.586  -0.074  0.00  0.00    +0.222 C 
ATOM     23  O   UNL     1      -2.108  -3.909   0.479  0.00  0.00    -0.275 OA
ATOM     24  H   UNL     1       0.622  -4.629  -1.041  0.00  0.00    +0.155 HD
BRANCH  22  25
ATOM     25  C   UNL     1      -1.487  -6.068  -0.243  0.00  0.00    +0.093 C 
ATOM     26  C   UNL     1      -2.968  -6.343  -0.508  0.00  0.00    +0.040 C 
ATOM     27  C   UNL     1      -3.772  -6.086   0.734  0.00  0.00    -0.030 C 
ATOM     28  C   UNL     1      -3.264  -6.003   1.922  0.00  0.00    -0.030 C 
ATOM     29  C   UNL     1      -1.800  -6.141   2.222  0.00  0.00    +0.042 C 
ATOM     30  C   UNL     1      -1.080  -6.798   1.043  0.00  0.00    +0.118 C 
BRANCH  30  31
ATOM     31  C   UNL     1       0.411  -6.696   1.234  0.00  0.00    +0.360 C 
ATOM     32  O   UNL     1       1.084  -6.100   0.427  0.00  0.00    -0.246 OA
ATOM     33  O   UNL     1       0.992  -7.266   2.301  0.00  0.00    -0.246 OA
ENDBRANCH  30  31
ENDBRANCH  22  25
ENDBRANCH   5  21
TORSDOF 6
