REMARK  Name = ZINC10075313
REMARK  7 active torsions:
REMARK  status: ('A' for Active; 'I' for Inactive)
REMARK    1  A    between atoms: C_1  and  O_2
REMARK    2  A    between atoms: O_2  and  C_3
REMARK    3  A    between atoms: C_6  and  C_9
REMARK    4  A    between atoms: C_14  and  C_20
REMARK    5  A    between atoms: N_22  and  C_23
REMARK    6  A    between atoms: C_26  and  O_29
REMARK    7  A    between atoms: O_29  and  C_30
REMARK                            x       y       z     vdW  Elec       q    Type
REMARK                         _______ _______ _______ _____ _____    ______ ____
ROOT
ATOM      1  C   UNL     1       1.658  -3.649  -5.277  0.00  0.00    +0.032 C 
ATOM      2  C   UNL     1       2.876  -3.869  -4.378  0.00  0.00    +0.059 C 
ATOM      3  C   UNL     1       4.054  -4.303  -5.214  0.00  0.00    +0.018 C 
ATOM      4  C   UNL     1       3.872  -4.998  -6.356  0.00  0.00    +0.024 C 
ATOM      5  C   UNL     1       5.059  -5.396  -7.203  0.00  0.00    +0.119 C 
ATOM      6  C   UNL     1       6.262  -5.679  -6.303  0.00  0.00    +0.113 C 
ATOM      7  C   UNL     1       6.408  -4.553  -5.310  0.00  0.00    +0.218 C 
ATOM      8  O   UNL     1       7.511  -4.175  -4.980  0.00  0.00    -0.275 OA
ATOM      9  N   UNL     1       5.315  -3.969  -4.793  0.00  0.00    -0.289 N 
ATOM     10  C   UNL     1       2.587  -5.364  -6.793  0.00  0.00    +0.162 C 
ATOM     11  O   UNL     1       2.464  -6.021  -7.807  0.00  0.00    -0.292 OA
ATOM     12  C   UNL     1       1.358  -4.952  -6.026  0.00  0.00    +0.088 C 
ATOM     13  H   UNL     1       5.421  -3.293  -4.105  0.00  0.00    +0.155 HD
ENDROOT
BRANCH   1  17
ATOM     14  C   UNL     1      -1.714  -2.560  -2.888  0.00  0.00    +0.120 A 
ATOM     15  C   UNL     1      -1.255  -1.700  -3.875  0.00  0.00    +0.046 A 
ATOM     16  C   UNL     1      -0.165  -2.054  -4.646  0.00  0.00    +0.007 A 
ATOM     17  C   UNL     1       0.469  -3.265  -4.435  0.00  0.00    -0.043 A 
ATOM     18  C   UNL     1       0.013  -4.124  -3.452  0.00  0.00    +0.007 A 
ATOM     19  C   UNL     1      -1.073  -3.771  -2.675  0.00  0.00    +0.046 A 
BRANCH  14  21
ATOM     20  C   UNL     1      -3.396  -0.951  -2.404  0.00  0.00    +0.277 C 
ATOM     21  O   UNL     1      -2.786  -2.213  -2.128  0.00  0.00    -0.495 OA
ENDBRANCH  14  21
ENDBRANCH   1  17
BRANCH   5  22
ATOM     22  C   UNL     1       5.396  -4.274  -8.151  0.00  0.00    +0.225 C 
ATOM     23  O   UNL     1       4.740  -3.254  -8.142  0.00  0.00    -0.275 OA
ATOM     24  N   UNL     1       6.427  -4.404  -9.010  0.00  0.00    -0.285 N 
ATOM     25  H   UNL     1       7.022  -5.167  -8.941  0.00  0.00    +0.155 HD
BRANCH  24  26
ATOM     26  C   UNL     1       6.638  -3.438 -10.002  0.00  0.00    +0.034 A 
ATOM     27  C   UNL     1       7.272  -3.787 -11.187  0.00  0.00    +0.027 A 
ATOM     28  C   UNL     1       7.480  -2.835 -12.165  0.00  0.00    +0.048 A 
ATOM     29  C   UNL     1       7.057  -1.529 -11.963  0.00  0.00    +0.129 A 
ATOM     30  C   UNL     1       6.424  -1.179 -10.778  0.00  0.00    +0.048 A 
ATOM     31  C   UNL     1       6.210  -2.133  -9.803  0.00  0.00    +0.027 A 
BRANCH  29  32
ATOM     32  O   UNL     1       7.263  -0.591 -12.925  0.00  0.00    -0.456 OA
BRANCH  32  33
ATOM     33  C   UNL     1       7.713  -1.009 -14.137  0.00  0.00    +0.128 A 
ATOM     34  C   UNL     1       6.840  -1.605 -15.036  0.00  0.00    +0.046 A 
ATOM     35  C   UNL     1       7.300  -2.029 -16.267  0.00  0.00    +0.004 A 
ATOM     36  C   UNL     1       8.630  -1.861 -16.605  0.00  0.00    +0.000 A 
ATOM     37  C   UNL     1       9.503  -1.268 -15.711  0.00  0.00    +0.004 A 
ATOM     38  C   UNL     1       9.046  -0.836 -14.481  0.00  0.00    +0.046 A 
ENDBRANCH  32  33
ENDBRANCH  29  32
ENDBRANCH  24  26
ENDBRANCH   5  22
TORSDOF 6
