REMARK  Name = ZINC39657124
REMARK  5 active torsions:
REMARK  status: ('A' for Active; 'I' for Inactive)
REMARK    1  A    between atoms: C_1  and  C_2
REMARK    2  A    between atoms: C_2  and  C_4
REMARK    3  A    between atoms: C_2  and  N_11
REMARK    4  A    between atoms: C_12  and  C_14
REMARK    5  A    between atoms: C_25  and  C_27
REMARK                            x       y       z     vdW  Elec       q    Type
REMARK                         _______ _______ _______ _____ _____    ______ ____
ROOT
ATOM      1  C   UNL     1       2.912  -1.625   2.560  0.00  0.00    +0.100 C 
ATOM      2  C   UNL     1       2.696  -0.478   3.573  0.00  0.00    +0.121 C 
ATOM      3  N   UNL     1       4.012  -0.309   4.232  0.00  0.00    -0.296 N 
ATOM      4  C   UNL     1       4.997  -0.480   3.138  0.00  0.00    +0.115 C 
ATOM      5  C   UNL     1       4.423  -1.622   2.276  0.00  0.00    -0.004 C 
ATOM      6  C   UNL     1       4.683  -1.348   0.798  0.00  0.00    -0.010 C 
ATOM      7  C   UNL     1       6.189  -1.409   0.529  0.00  0.00    -0.082 C 
ATOM      8  N   UNL     1       6.702  -2.733   0.900  0.00  0.00    +0.379 N 
ATOM      9  C   UNL     1       6.532  -2.950   2.342  0.00  0.00    -0.082 C 
ATOM     10  C   UNL     1       5.040  -2.955   2.687  0.00  0.00    -0.010 C 
ATOM     11  C   UNL     1       4.258  -0.057   5.533  0.00  0.00    +0.248 C 
ATOM     12  O   UNL     1       5.397   0.150   5.908  0.00  0.00    -0.270 OA
ATOM     13  H   UNL     1       6.195  -3.443   0.392  0.00  0.00    -0.086 HD
ATOM     14  H   UNL     1       7.681  -2.791   0.665  0.00  0.00    -0.086 HD
ENDROOT
BRANCH  11  15
ATOM     15  C   UNL     1       3.151  -0.031   6.498  0.00  0.00    +0.052 A 
ATOM     16  C   UNL     1       1.922   0.425   6.142  0.00  0.00    +0.059 A 
ATOM     17  S   UNL     1       0.977   0.281   7.520  0.00  0.00    -0.096 S 
ATOM     18  C   UNL     1       2.165  -0.395   8.646  0.00  0.00    +0.020 A 
ATOM     19  C   UNL     1       3.336  -0.503   7.872  0.00  0.00    +0.001 A 
ATOM     20  C   UNL     1       4.481  -1.025   8.503  0.00  0.00    +0.010 A 
ATOM     21  C   UNL     1       4.434  -1.412   9.819  0.00  0.00    +0.001 A 
ATOM     22  C   UNL     1       3.265  -1.301  10.559  0.00  0.00    +0.001 A 
ATOM     23  C   UNL     1       2.129  -0.782   9.969  0.00  0.00    +0.015 A 
ENDBRANCH  11  15
BRANCH   1  25
ATOM     24  N   UNL     1       1.698  -2.387   0.544  0.00  0.00    -0.308 N 
ATOM     25  C   UNL     1       2.139  -1.358   1.293  0.00  0.00    +0.219 C 
ATOM     26  O   UNL     1       1.916  -0.217   0.948  0.00  0.00    -0.275 OA
ATOM     27  H   UNL     1       1.877  -3.300   0.820  0.00  0.00    +0.149 HD
BRANCH  24  29
ATOM     28  C   UNL     1      -0.532  -1.929  -0.351  0.00  0.00    +0.033 C 
ATOM     29  C   UNL     1       0.947  -2.128  -0.687  0.00  0.00    +0.100 C 
BRANCH  29  30
ATOM     30  C   UNL     1       1.097  -3.300  -1.623  0.00  0.00    -0.027 A 
ATOM     31  C   UNL     1       1.067  -4.589  -1.126  0.00  0.00    +0.006 A 
ATOM     32  C   UNL     1       1.203  -5.664  -1.984  0.00  0.00    +0.015 A 
ATOM     33  C   UNL     1       1.370  -5.450  -3.340  0.00  0.00    +0.018 A 
ATOM     34  C   UNL     1       1.400  -4.159  -3.837  0.00  0.00    +0.015 A 
ATOM     35  C   UNL     1       1.258  -3.085  -2.979  0.00  0.00    +0.006 A 
ATOM     36 BR   UNL     1       1.557  -6.920  -4.514  0.00  0.00    -0.050 Br
ENDBRANCH  29  30
ENDBRANCH  24  29
ENDBRANCH   1  25
TORSDOF 4
