REMARK  Name = ZINC33264493
REMARK  7 active torsions:
REMARK  status: ('A' for Active; 'I' for Inactive)
REMARK    1  A    between atoms: C_1  and  C_2
REMARK    2  A    between atoms: C_2  and  C_3
REMARK    3  A    between atoms: C_2  and  C_4
REMARK    4  A    between atoms: C_7  and  N_10
REMARK    5  A    between atoms: C_11  and  C_13
REMARK    6  A    between atoms: C_17  and  C_19
REMARK    7  A    between atoms: N_28  and  C_29
REMARK                            x       y       z     vdW  Elec       q    Type
REMARK                         _______ _______ _______ _____ _____    ______ ____
ROOT
ATOM      1  C   UNL     1       5.265   4.220   2.192  0.00  0.00    +0.037 A 
ATOM      2  C   UNL     1       6.043   4.157   1.034  0.00  0.00    +0.013 A 
ATOM      3  C   UNL     1       5.622   3.396  -0.036  0.00  0.00    +0.001 A 
ATOM      4  C   UNL     1       4.430   2.696   0.035  0.00  0.00    +0.004 A 
ATOM      5  C   UNL     1       3.654   2.754   1.179  0.00  0.00    -0.042 A 
ATOM      6  C   UNL     1       4.061   3.515   2.255  0.00  0.00    +0.017 A 
ENDROOT
BRANCH   5   7
ATOM      7  C   UNL     1       2.358   1.988   1.247  0.00  0.00    +0.036 C 
ATOM      8  C   UNL     1       2.636   0.494   1.064  0.00  0.00    +0.011 C 
ATOM      9  C   UNL     1       1.325  -0.287   1.167  0.00  0.00    +0.020 C 
ATOM     10  C   UNL     1       0.375   0.168   0.054  0.00  0.00    +0.109 C 
ATOM     11  N   UNL     1       0.216   1.626   0.135  0.00  0.00    -0.285 N 
ATOM     12  C   UNL     1       1.420   2.469   0.135  0.00  0.00    +0.117 C 
ATOM     13  C   UNL     1      -1.010   2.181   0.201  0.00  0.00    +0.302 C 
ATOM     14  O   UNL     1      -1.127   3.380   0.364  0.00  0.00    -0.253 OA
ATOM     15  N   UNL     1      -2.107   1.406   0.086  0.00  0.00    -0.302 N 
ATOM     16  C   UNL     1      -3.438   1.990   0.271  0.00  0.00    +0.129 C 
ATOM     17  H   UNL     1      -2.003   0.336  -0.145  0.00  0.00    +0.150 HD
ENDBRANCH   5   7
BRANCH   1  19
ATOM     18  N   UNL     1       6.870   5.717   3.276  0.00  0.00    -0.282 N 
ATOM     19  C   UNL     1       5.710   5.033   3.342  0.00  0.00    +0.248 C 
ATOM     20  O   UNL     1       5.030   5.085   4.349  0.00  0.00    -0.270 OA
ATOM     21  H   UNL     1       7.441   5.741   2.337  0.00  0.00    +0.155 HD
BRANCH  18  25
ATOM     22  C   UNL     1       8.291   7.738   6.630  0.00  0.00    -0.045 A 
ATOM     23  C   UNL     1       7.613   6.542   6.781  0.00  0.00    +0.006 A 
ATOM     24  C   UNL     1       7.140   5.870   5.671  0.00  0.00    +0.023 A 
ATOM     25  C   UNL     1       7.347   6.395   4.402  0.00  0.00    +0.034 A 
ATOM     26  C   UNL     1       8.033   7.593   4.253  0.00  0.00    +0.023 A 
ATOM     27  C   UNL     1       8.499   8.264   5.368  0.00  0.00    +0.006 A 
BRANCH  22  29
ATOM     28  C   UNL     1      10.325   8.612   7.746  0.00  0.00    +0.012 C 
ATOM     29  C   UNL     1       8.805   8.469   7.843  0.00  0.00    +0.013 C 
ATOM     30  C   UNL     1       8.166   9.857   7.910  0.00  0.00    +0.012 C 
ENDBRANCH  22  29
ENDBRANCH  18  25
ENDBRANCH   1  19
TORSDOF 4
