REMARK  Name = ZINC67174443
REMARK  6 active torsions:
REMARK  status: ('A' for Active; 'I' for Inactive)
REMARK    1  A    between atoms: C_1  and  C_2
REMARK    2  A    between atoms: C_5  and  C_7
REMARK    3  A    between atoms: C_13  and  C_15
REMARK    4  A    between atoms: C_18  and  S_20
REMARK    5  A    between atoms: S_20  and  N_23
REMARK    6  A    between atoms: N_23  and  C_24
REMARK                            x       y       z     vdW  Elec       q    Type
REMARK                         _______ _______ _______ _____ _____    ______ ____
ROOT
ATOM      1  C   UNL     1       1.039  -4.034  -0.026  0.00  0.00    +0.177 A 
ATOM      2  N   UNL     1       2.341  -4.268  -0.029  0.00  0.00    -0.203 NA
ATOM      3  C   UNL     1       2.737  -5.528  -0.037  0.00  0.00    +0.185 A 
ATOM      4  S   UNL     1       1.285  -6.373  -0.042  0.00  0.00    +0.050 S 
ATOM      5  N   UNL     1       0.226  -5.074  -0.027  0.00  0.00    -0.187 NA
ATOM      6  N   UNL     1       4.029  -6.028  -0.042  0.00  0.00    -0.257 N 
ATOM      7  C   UNL     1       4.236  -7.360  -0.051  0.00  0.00    +0.285 C 
ATOM      8  O   UNL     1       3.288  -8.123  -0.054  0.00  0.00    -0.266 OA
ATOM      9  H   UNL     1       4.785  -5.420  -0.039  0.00  0.00    +0.157 HD
ENDROOT
BRANCH   1  14
ATOM     10  C   UNL     1      -0.018   1.503   0.010  0.00  0.00    +0.051 C 
ATOM     11  C   UNL     1       0.002  -0.004   0.002  0.00  0.00    -0.013 A 
ATOM     12  C   UNL     1      -1.042  -0.872   0.002  0.00  0.00    +0.011 A 
ATOM     13  C   UNL     1      -0.789  -2.226  -0.007  0.00  0.00    +0.019 A 
ATOM     14  C   UNL     1       0.512  -2.653  -0.016  0.00  0.00    +0.057 A 
ATOM     15  S   UNL     1       1.405  -1.107  -0.018  0.00  0.00    -0.090 S 
ENDBRANCH   1  14
BRANCH   7  16
ATOM     16  C   UNL     1       5.603  -7.889  -0.056  0.00  0.00    +0.192 A 
ATOM     17  C   UNL     1       5.953  -9.210  -0.070  0.00  0.00    +0.057 A 
ATOM     18  C   UNL     1       7.356  -9.256  -0.070  0.00  0.00    +0.072 A 
ATOM     19  C   UNL     1       7.796  -7.978  -0.056  0.00  0.00    +0.258 A 
ATOM     20  O   UNL     1       6.737  -7.158  -0.053  0.00  0.00    -0.432 OA
BRANCH  19  21
ATOM     21  S   UNL     1       9.484  -7.475  -0.049  0.00  0.00    +0.091 S 
ATOM     22  O   UNL     1       9.517  -6.171   0.516  0.00  0.00    -0.150 OA
ATOM     23  O   UNL     1      10.229  -8.558   0.490  0.00  0.00    -0.150 OA
BRANCH  21  24
ATOM     24  N   UNL     1       9.954  -7.317  -1.629  0.00  0.00    -0.190 NA
ATOM     25  C   UNL     1       9.343  -6.290  -2.477  0.00  0.00    +0.128 C 
ATOM     26  H   UNL     1      10.634  -7.905  -1.994  0.00  0.00    +0.148 HD
ENDBRANCH  21  24
ENDBRANCH  19  21
ENDBRANCH   7  16
TORSDOF 4
