REMARK  Name = ZINC20940882
REMARK  6 active torsions:
REMARK  status: ('A' for Active; 'I' for Inactive)
REMARK    1  A    between atoms: C_1  and  C_2
REMARK    2  A    between atoms: C_5  and  N_9
REMARK    3  A    between atoms: C_7  and  C_8
REMARK    4  A    between atoms: C_10  and  C_25
REMARK    5  A    between atoms: C_11  and  C_14
REMARK    6  A    between atoms: N_16  and  C_17
REMARK                            x       y       z     vdW  Elec       q    Type
REMARK                         _______ _______ _______ _____ _____    ______ ____
ROOT
ATOM      1  N   UNL     1      -1.198   2.241  -0.112  0.00  0.00    -0.236 N 
ATOM      2  C   UNL     1      -1.543   3.266   0.688  0.00  0.00    +0.060 A 
ATOM      3  C   UNL     1      -2.894   3.491   0.511  0.00  0.00    +0.078 A 
ATOM      4  C   UNL     1      -3.353   2.550  -0.438  0.00  0.00    +0.148 A 
ATOM      5  N   UNL     1      -2.337   1.817  -0.805  0.00  0.00    -0.174 NA
ENDROOT
BRANCH   1  10
ATOM      6  C   UNL     1       4.002   0.025  -0.627  0.00  0.00    +0.044 C 
ATOM      7  C   UNL     1       2.621   0.614  -0.489  0.00  0.00    -0.047 A 
ATOM      8  C   UNL     1       2.457   1.986  -0.447  0.00  0.00    +0.006 A 
ATOM      9  C   UNL     1       1.193   2.528  -0.320  0.00  0.00    +0.028 A 
ATOM     10  C   UNL     1       0.086   1.694  -0.235  0.00  0.00    +0.066 A 
ATOM     11  C   UNL     1       0.254   0.316  -0.278  0.00  0.00    +0.031 A 
ATOM     12  C   UNL     1       1.521  -0.220  -0.405  0.00  0.00    -0.046 A 
ATOM     13  C   UNL     1       1.704  -1.715  -0.452  0.00  0.00    +0.044 C 
ENDBRANCH   1  10
BRANCH   2  14
ATOM     14  C   UNL     1      -0.624   4.029   1.608  0.00  0.00    +0.035 C 
ATOM     15  C   UNL     1      -1.142   3.930   3.045  0.00  0.00    -0.010 C 
ATOM     16  C   UNL     1      -0.240   4.756   3.965  0.00  0.00    -0.082 C 
ATOM     17  N   UNL     1      -0.237   6.156   3.521  0.00  0.00    +0.379 N 
ATOM     18  C   UNL     1       0.301   6.281   2.160  0.00  0.00    -0.082 C 
ATOM     19  C   UNL     1      -0.585   5.500   1.187  0.00  0.00    -0.010 C 
ATOM     20  H   UNL     1      -1.266   6.545   3.529  0.00  0.00    -0.086 HD
ATOM     21  H   UNL     1       0.387   6.755   4.201  0.00  0.00    -0.086 HD
ENDBRANCH   2  14
BRANCH   3  22
ATOM     22  C   UNL     1      -3.705   4.520   1.186  0.00  0.00    +0.252 C 
ATOM     23  O   UNL     1      -3.174   5.321   1.932  0.00  0.00    -0.270 OA
ATOM     24  N   UNL     1      -5.035   4.573   0.978  0.00  0.00    -0.279 N 
ATOM     25  H   UNL     1      -5.506   3.891   0.255  0.00  0.00    +0.155 HD
BRANCH  24  26
ATOM     26  C   UNL     1      -5.818   5.497   1.681  0.00  0.00    +0.069 A 
ATOM     27  C   UNL     1      -5.298   6.741   2.010  0.00  0.00    +0.027 A 
ATOM     28  C   UNL     1      -6.072   7.651   2.703  0.00  0.00    +0.017 A 
ATOM     29  C   UNL     1      -7.365   7.324   3.070  0.00  0.00    +0.021 A 
ATOM     30  C   UNL     1      -7.888   6.086   2.744  0.00  0.00    +0.055 A 
ATOM     31  C   UNL     1      -7.120   5.172   2.046  0.00  0.00    +0.146 A 
ATOM     32  F   UNL     1      -7.632   3.964   1.723  0.00  0.00    -0.204 F 
ATOM     33 BR   UNL     1      -8.421   8.574   4.020  0.00  0.00    -0.050 Br
ENDBRANCH  24  26
ENDBRANCH   3  22
TORSDOF 4
