REMARK  Name = ZINC14885806
REMARK  7 active torsions:
REMARK  status: ('A' for Active; 'I' for Inactive)
REMARK    1  A    between atoms: C_10  and  C_11
REMARK    2  A    between atoms: C_11  and  N_12
REMARK    3  A    between atoms: N_12  and  C_13
REMARK    4  A    between atoms: C_13  and  C_14
REMARK    5  A    between atoms: C_14  and  C_15
REMARK    6  A    between atoms: C_25  and  C_28
REMARK    7  A    between atoms: C_28  and  O_29
REMARK                            x       y       z     vdW  Elec       q    Type
REMARK                         _______ _______ _______ _____ _____    ______ ____
ROOT
ATOM      1  C   UNL     1      -1.744  -2.759  -1.089  0.00  0.00    +0.015 A 
ATOM      2  C   UNL     1      -1.522  -4.150  -1.104  0.00  0.00    +0.004 A 
ATOM      3  C   UNL     1      -1.798  -4.918  -2.246  0.00  0.00    +0.059 A 
ATOM      4  C   UNL     1      -1.576  -6.265  -2.229  0.00  0.00    +0.167 A 
ATOM      5  C   UNL     1      -1.073  -6.892  -1.077  0.00  0.00    +0.168 A 
ATOM      6  C   UNL     1      -0.797  -6.168   0.047  0.00  0.00    +0.078 A 
ATOM      7  C   UNL     1      -1.015  -4.780   0.059  0.00  0.00    +0.077 A 
ATOM      8  N   UNL     1      -0.748  -4.052   1.150  0.00  0.00    -0.232 NA
ATOM      9  C   UNL     1      -0.948  -2.750   1.168  0.00  0.00    +0.123 A 
ATOM     10  C   UNL     1      -1.448  -2.070   0.049  0.00  0.00    -0.024 A 
ATOM     11  N   UNL     1      -0.658  -2.036   2.322  0.00  0.00    -0.315 N 
ATOM     12  C   UNL     1      -1.494  -2.484   3.443  0.00  0.00    +0.106 C 
ATOM     13  C   UNL     1      -1.251  -1.581   4.655  0.00  0.00    +0.019 C 
ATOM     14  C   UNL     1       0.229  -1.641   5.042  0.00  0.00    +0.009 C 
ATOM     15  C   UNL     1       1.080  -1.216   3.842  0.00  0.00    +0.032 C 
ATOM     16  C   UNL     1       0.770  -2.129   2.654  0.00  0.00    +0.112 C 
ATOM     17  O   UNL     1      -0.948  -8.227  -1.333  0.00  0.00    -0.453 OA
ATOM     18  C   UNL     1      -0.983  -8.350  -2.767  0.00  0.00    +0.466 C 
ATOM     19  O   UNL     1      -1.759  -7.215  -3.193  0.00  0.00    -0.453 OA
ENDROOT
BRANCH  10  20
ATOM     20  C   UNL     1      -1.664  -0.579   0.107  0.00  0.00    -0.043 C 
BRANCH  20  21
ATOM     21  N   UNL     1      -0.372   0.108  -0.019  0.00  0.00    +0.382 N 
ATOM     22  H   UNL     1       0.288  -0.199   0.806  0.00  0.00    -0.085 HD
ATOM     23  H   UNL     1       0.093  -0.158  -0.980  0.00  0.00    -0.085 HD
BRANCH  21  24
ATOM     24  C   UNL     1      -0.544   1.566   0.033  0.00  0.00    -0.078 C 
BRANCH  24  25
ATOM     25  C   UNL     1       0.821   2.245  -0.101  0.00  0.00    +0.011 C 
BRANCH  25  26
ATOM     26  C   UNL     1       0.644   3.741  -0.048  0.00  0.00    -0.075 C 
ATOM     27  C   UNL     1       0.790   4.329   1.096  0.00  0.00    -0.028 C 
ATOM     28  C   UNL     1       0.641   5.808   1.306  0.00  0.00    +0.027 C 
ATOM     29  C   UNL     1       0.710   6.542  -0.034  0.00  0.00    +0.004 C 
ATOM     30  C   UNL     1      -0.244   5.850  -1.016  0.00  0.00    +0.005 C 
ATOM     31  C   UNL     1       0.305   4.455  -1.323  0.00  0.00    +0.030 C 
ENDBRANCH  25  26
ENDBRANCH  24  25
ENDBRANCH  21  24
ENDBRANCH  20  21
ENDBRANCH  10  20
BRANCH  15  32
ATOM     32  C   UNL     1       2.563  -1.331   4.201  0.00  0.00    +0.160 C 
BRANCH  32  33
ATOM     33  O   UNL     1       2.876  -0.396   5.236  0.00  0.00    -0.395 OA
ATOM     34  H   UNL     1       3.902  -0.333   5.627  0.00  0.00    +0.209 HD
ENDBRANCH  32  33
ENDBRANCH  15  32
TORSDOF 7
