REMARK  Name = ZINC20435660
REMARK  6 active torsions:
REMARK  status: ('A' for Active; 'I' for Inactive)
REMARK    1  A    between atoms: C_2  and  C_9
REMARK    2  A    between atoms: N_10  and  N_11
REMARK    3  A    between atoms: C_12  and  C_14
REMARK    4  A    between atoms: C_14  and  C_15
REMARK    5  A    between atoms: N_17  and  N_18
REMARK    6  A    between atoms: C_19  and  C_20
REMARK                            x       y       z     vdW  Elec       q    Type
REMARK                         _______ _______ _______ _____ _____    ______ ____
ROOT
ATOM      1  C   UNL     1       3.422   7.814   0.010  0.00  0.00    +0.194 C 
ENDROOT
BRANCH   1   3
ATOM      2  N   UNL     1       2.276   5.622   0.010  0.00  0.00    -0.207 N 
ATOM      3  C   UNL     1       3.437   6.307   0.002  0.00  0.00    +0.241 C 
ATOM      4  O   UNL     1       4.493   5.710  -0.011  0.00  0.00    -0.274 OA
ATOM      5  H   UNL     1       1.431   6.099   0.020  0.00  0.00    +0.177 HD
BRANCH   2   7
ATOM      6  C   UNL     1       1.171   3.562   0.009  0.00  0.00    +0.138 C 
ATOM      7  N   UNL     1       2.289   4.221   0.002  0.00  0.00    -0.188 NA
BRANCH   6   9
ATOM      8  C   UNL     1      -0.017   1.375   0.010  0.00  0.00    +0.012 A 
ATOM      9  C   UNL     1       1.185   2.087   0.002  0.00  0.00    -0.004 A 
ATOM     10  C   UNL     1       2.400   1.397  -0.013  0.00  0.00    +0.027 A 
ATOM     11  C   UNL     1       2.406   0.018  -0.021  0.00  0.00    +0.054 A 
ATOM     12  C   UNL     1       1.210  -0.683  -0.014  0.00  0.00    +0.137 A 
ATOM     13  C   UNL     1       0.002  -0.004   0.002  0.00  0.00    +0.040 A 
ATOM     14  F   UNL     1       1.222  -2.034  -0.021  0.00  0.00    -0.204 F 
ATOM     15 BR   UNL     1       4.049  -0.918  -0.042  0.00  0.00    -0.047 Br
ENDBRANCH   6   9
ENDBRANCH   2   7
ENDBRANCH   1   3
BRANCH   1  16
ATOM     16  C   UNL     1       4.838   8.329  -0.001  0.00  0.00    +0.241 C 
ATOM     17  O   UNL     1       5.768   7.550  -0.013  0.00  0.00    -0.274 OA
ATOM     18  N   UNL     1       5.072   9.657   0.004  0.00  0.00    -0.207 N 
ATOM     19  H   UNL     1       4.329  10.280   0.014  0.00  0.00    +0.177 HD
BRANCH  18  20
ATOM     20  N   UNL     1       6.389  10.136  -0.006  0.00  0.00    -0.188 NA
ATOM     21  C   UNL     1       6.614  11.414  -0.002  0.00  0.00    +0.138 C 
BRANCH  21  22
ATOM     22  C   UNL     1       7.999  11.919  -0.012  0.00  0.00    -0.004 A 
ATOM     23  C   UNL     1       9.072  11.023  -0.033  0.00  0.00    +0.027 A 
ATOM     24  C   UNL     1      10.366  11.502  -0.042  0.00  0.00    +0.054 A 
ATOM     25  C   UNL     1      10.603  12.868  -0.031  0.00  0.00    +0.137 A 
ATOM     26  C   UNL     1       9.543  13.760  -0.011  0.00  0.00    +0.040 A 
ATOM     27  C   UNL     1       8.245  13.294  -0.008  0.00  0.00    +0.012 A 
ATOM     28  F   UNL     1      11.872  13.331  -0.040  0.00  0.00    -0.204 F 
ATOM     29 BR   UNL     1      11.819  10.292  -0.070  0.00  0.00    -0.047 Br
ENDBRANCH  21  22
ENDBRANCH  18  20
ENDBRANCH   1  16
TORSDOF 6
