REMARK  Name = ZINC12705362
REMARK  8 active torsions:
REMARK  status: ('A' for Active; 'I' for Inactive)
REMARK    1  A    between atoms: C_4  and  C_7
REMARK    2  A    between atoms: C_10  and  C_13
REMARK    3  A    between atoms: N_15  and  C_16
REMARK    4  A    between atoms: N_15  and  C_22
REMARK    5  A    between atoms: C_16  and  C_17
REMARK    6  A    between atoms: C_22  and  C_24
REMARK    7  A    between atoms: C_22  and  C_31
REMARK    8  A    between atoms: N_33  and  C_34
REMARK                            x       y       z     vdW  Elec       q    Type
REMARK                         _______ _______ _______ _____ _____    ______ ____
ROOT
ATOM      1  C   UNL     1       2.791   3.726   3.239  0.00  0.00    +0.264 C 
ATOM      2  O   UNL     1       2.265   3.154   4.176  0.00  0.00    -0.268 OA
ATOM      3  N   UNL     1       2.074   4.010   2.134  0.00  0.00    -0.273 N 
ENDROOT
BRANCH   1   7
ATOM      4  C   UNL     1       6.135   5.142   2.922  0.00  0.00    +0.047 A 
ATOM      5  C   UNL     1       6.362   4.193   3.895  0.00  0.00    +0.028 A 
ATOM      6  C   UNL     1       5.155   3.543   4.141  0.00  0.00    +0.033 A 
ATOM      7  C   UNL     1       4.205   4.106   3.313  0.00  0.00    +0.102 A 
ATOM      8  N   UNL     1       4.820   5.084   2.563  0.00  0.00    -0.351 N 
ATOM      9  H   UNL     1       4.390   5.640   1.895  0.00  0.00    +0.166 HD
BRANCH   4  13
ATOM     10  C   UNL     1       9.039   7.784   1.299  0.00  0.00    +0.000 A 
ATOM     11  C   UNL     1       9.404   6.875   2.277  0.00  0.00    +0.001 A 
ATOM     12  C   UNL     1       8.466   6.015   2.808  0.00  0.00    +0.010 A 
ATOM     13  C   UNL     1       7.146   6.061   2.357  0.00  0.00    -0.002 A 
ATOM     14  C   UNL     1       6.785   6.976   1.367  0.00  0.00    +0.010 A 
ATOM     15  C   UNL     1       7.732   7.835   0.848  0.00  0.00    +0.001 A 
ENDBRANCH   4  13
ENDBRANCH   1   7
BRANCH   3  16
ATOM     16  C   UNL     1       2.729   4.612   0.970  0.00  0.00    +0.183 C 
BRANCH  16  17
ATOM     17  C   UNL     1       2.524   6.105   0.995  0.00  0.00    +0.122 A 
ATOM     18  C   UNL     1       2.293   6.849   2.092  0.00  0.00    +0.046 A 
ATOM     19  C   UNL     1       2.164   8.188   1.658  0.00  0.00    +0.041 A 
ATOM     20  C   UNL     1       2.324   8.183   0.323  0.00  0.00    +0.195 A 
ATOM     21  O   UNL     1       2.542   6.918  -0.073  0.00  0.00    -0.466 OA
ENDBRANCH  16  17
ENDBRANCH   3  16
BRANCH   3  22
ATOM     22  C   UNL     1       0.639   3.716   2.096  0.00  0.00    +0.193 C 
BRANCH  22  23
ATOM     23  C   UNL     1       0.428   2.304   1.611  0.00  0.00    -0.018 A 
ATOM     24  C   UNL     1       1.166   1.823   0.546  0.00  0.00    +0.009 A 
ATOM     25  C   UNL     1       0.977   0.527   0.104  0.00  0.00    +0.038 A 
ATOM     26  C   UNL     1       0.040  -0.285   0.721  0.00  0.00    +0.123 A 
ATOM     27  C   UNL     1      -0.702   0.201   1.784  0.00  0.00    +0.038 A 
ATOM     28  C   UNL     1      -0.507   1.495   2.228  0.00  0.00    +0.009 A 
ATOM     29  F   UNL     1      -0.149  -1.550   0.285  0.00  0.00    -0.205 F 
ENDBRANCH  22  23
BRANCH  22  30
ATOM     30  C   UNL     1      -0.046   4.677   1.159  0.00  0.00    +0.238 C 
ATOM     31  O   UNL     1       0.398   4.858   0.045  0.00  0.00    -0.273 OA
ATOM     32  N   UNL     1      -1.152   5.335   1.560  0.00  0.00    -0.311 N 
ATOM     33  H   UNL     1      -1.507   5.190   2.451  0.00  0.00    +0.149 HD
BRANCH  32  34
ATOM     34  C   UNL     1      -1.818   6.269   0.649  0.00  0.00    +0.073 C 
ATOM     35  C   UNL     1      -1.146   7.640   0.743  0.00  0.00    +0.022 C 
ATOM     36  C   UNL     1      -1.842   8.616  -0.208  0.00  0.00    +0.002 C 
ATOM     37  C   UNL     1      -3.317   8.743   0.180  0.00  0.00    +0.000 C 
ATOM     38  C   UNL     1      -3.989   7.372   0.086  0.00  0.00    +0.002 C 
ATOM     39  C   UNL     1      -3.293   6.396   1.037  0.00  0.00    +0.022 C 
ENDBRANCH  32  34
ENDBRANCH  22  30
ENDBRANCH   3  22
TORSDOF 8
