REMARK  Name = ZINC04964122
REMARK  13 active torsions:
REMARK  status: ('A' for Active; 'I' for Inactive)
REMARK    1  A    between atoms: C_1  and  C_2
REMARK    2  A    between atoms: C_18  and  C_39
REMARK    3  A    between atoms: C_20  and  O_37
REMARK    4  A    between atoms: C_23  and  C_36
REMARK    5  A    between atoms: C_24  and  C_25
REMARK    6  A    between atoms: C_24  and  O_35
REMARK    7  A    between atoms: C_25  and  C_27
REMARK    8  A    between atoms: C_27  and  O_28
REMARK    9  A    between atoms: O_28  and  C_29
REMARK   10  A    between atoms: C_29  and  C_31
REMARK   11  A    between atoms: C_31  and  C_32
REMARK   12  A    between atoms: C_31  and  C_33
REMARK   13  A    between atoms: C_31  and  C_34
REMARK                            x       y       z     vdW  Elec       q    Type
REMARK                         _______ _______ _______ _____ _____    ______ ____
ROOT
ATOM      1  C   UNL     1       3.635   0.787  -1.443  0.00  0.00    +0.011 C 
ATOM      2  C   UNL     1       2.385   1.655  -1.595  0.00  0.00    +0.026 C 
ATOM      3  C   UNL     1       2.788   3.138  -1.822  0.00  0.00    +0.011 C 
ATOM      4  C   UNL     1       2.448   3.802  -0.479  0.00  0.00    +0.005 C 
ATOM      5  C   UNL     1       2.376   5.316  -0.487  0.00  0.00    +0.037 C 
ATOM      6  C   UNL     1       3.734   5.777   0.064  0.00  0.00    +0.048 C 
ATOM      7  C   UNL     1       3.823   7.292   0.229  0.00  0.00    +0.194 C 
ATOM      8  C   UNL     1       2.673   7.669   1.146  0.00  0.00    -0.020 C 
ATOM      9  C   UNL     1       2.918   8.295   2.288  0.00  0.00    +0.054 C 
ATOM     10  C   UNL     1       1.800   8.693   3.163  0.00  0.00    +0.179 C 
ATOM     11  O   UNL     1       2.009   9.256   4.223  0.00  0.00    -0.288 OA
ATOM     12  C   UNL     1       0.423   8.392   2.731  0.00  0.00    +0.047 C 
ATOM     13  C   UNL     1       0.213   7.754   1.587  0.00  0.00    -0.009 C 
ATOM     14  C   UNL     1       1.304   7.304   0.680  0.00  0.00    +0.047 C 
ATOM     15  C   UNL     1       1.192   5.825   0.315  0.00  0.00    +0.153 C 
ATOM     16  C   UNL     1       0.878   4.995   1.543  0.00  0.00    +0.154 C 
ATOM     17  C   UNL     1       0.695   3.497   1.281  0.00  0.00    +0.044 C 
ATOM     18  C   UNL     1       1.142   3.098  -0.093  0.00  0.00    +0.010 C 
ATOM     19  C   UNL     1       1.556   1.620  -0.283  0.00  0.00    +0.135 C 
ATOM     20  C   UNL     1       0.025   3.320  -1.124  0.00  0.00    +0.015 C 
ATOM     21  F   UNL     1       0.048   5.814  -0.522  0.00  0.00    -0.238 F 
ATOM     22  C   UNL     1       1.067   8.068  -0.630  0.00  0.00    +0.023 C 
ATOM     23  F   UNL     1       5.041   7.638   0.830  0.00  0.00    -0.241 F 
ENDROOT
BRANCH  19  24
ATOM     24  C   UNL     1       2.393   1.111   0.851  0.00  0.00    +0.202 C 
ATOM     25  O   UNL     1       3.007   1.886   1.543  0.00  0.00    -0.291 OA
BRANCH  24  26
ATOM     26  C   UNL     1       2.467  -0.369   1.126  0.00  0.00    +0.309 C 
BRANCH  26  27
ATOM     27  O   UNL     1       3.335  -0.606   2.266  0.00  0.00    -0.456 OA
BRANCH  27  28
ATOM     28  C   UNL     1       3.509  -1.881   2.645  0.00  0.00    +0.313 C 
ATOM     29  O   UNL     1       2.954  -2.771   2.044  0.00  0.00    -0.250 OA
BRANCH  28  30
ATOM     30  C   UNL     1       4.396  -2.204   3.820  0.00  0.00    +0.059 C 
ATOM     31  C   UNL     1       4.421  -3.719   4.038  0.00  0.00    +0.022 C 
ATOM     32  C   UNL     1       5.814  -1.705   3.540  0.00  0.00    +0.022 C 
ATOM     33  C   UNL     1       3.851  -1.518   5.074  0.00  0.00    +0.022 C 
ENDBRANCH  28  30
ENDBRANCH  27  28
ENDBRANCH  26  27
ENDBRANCH  24  26
ENDBRANCH  19  24
BRANCH  19  34
ATOM     34  O   UNL     1       0.388   0.818  -0.456  0.00  0.00    -0.380 OA
ATOM     35  H   UNL     1       0.574  -0.113  -0.641  0.00  0.00    +0.211 HD
ENDBRANCH  19  34
BRANCH  16  36
ATOM     36  O   UNL     1       1.908   5.179   2.527  0.00  0.00    -0.389 OA
ATOM     37  H   UNL     1       1.719   4.759   3.377  0.00  0.00    +0.210 HD
ENDBRANCH  16  36
TORSDOF 7
