REMARK  Name = ZINC03012106
REMARK  10 active torsions:
REMARK  status: ('A' for Active; 'I' for Inactive)
REMARK    1  A    between atoms: C_1  and  C_2
REMARK    2  A    between atoms: C_4  and  C_36
REMARK    3  A    between atoms: C_6  and  N_8
REMARK    4  A    between atoms: C_9  and  C_11
REMARK    5  A    between atoms: C_16  and  C_32
REMARK    6  A    between atoms: C_19  and  C_22
REMARK    7  A    between atoms: C_25  and  O_30
REMARK    8  A    between atoms: C_26  and  O_28
REMARK    9  A    between atoms: O_28  and  C_29
REMARK   10  A    between atoms: O_30  and  C_31
REMARK                            x       y       z     vdW  Elec       q    Type
REMARK                         _______ _______ _______ _____ _____    ______ ____
ROOT
ATOM      1  C   UNL     1       0.277  -2.885   4.827  0.00  0.00    +0.149 A 
ATOM      2  C   UNL     1       0.382  -2.321   6.119  0.00  0.00    +0.078 A 
ATOM      3  C   UNL     1       0.478  -3.336   7.000  0.00  0.00    +0.119 A 
ATOM      4  N   UNL     1       0.438  -4.510   6.302  0.00  0.00    -0.238 N 
ATOM      5  N   UNL     1       0.305  -4.200   4.949  0.00  0.00    -0.164 NA
ATOM      6  C   UNL     1       0.521  -5.832   6.930  0.00  0.00    +0.215 C 
ATOM      7  C   UNL     1       1.127  -5.679   8.329  0.00  0.00    +0.063 C 
ATOM      8  C   UNL     1       0.394  -4.575   9.098  0.00  0.00    +0.104 C 
ATOM      9  N   UNL     1       0.599  -3.295   8.392  0.00  0.00    -0.322 N 
ATOM     10  H   UNL     1       0.805  -2.474   8.866  0.00  0.00    +0.148 HD
ENDROOT
BRANCH   8  11
ATOM     11  C   UNL     1      -1.078  -4.894   9.160  0.00  0.00    -0.024 A 
ATOM     12  C   UNL     1      -1.887  -4.630   8.070  0.00  0.00    +0.009 A 
ATOM     13  C   UNL     1      -3.238  -4.921   8.122  0.00  0.00    +0.050 A 
ATOM     14  C   UNL     1      -3.783  -5.478   9.268  0.00  0.00    +0.162 A 
ATOM     15  C   UNL     1      -2.969  -5.743  10.364  0.00  0.00    +0.162 A 
ATOM     16  C   UNL     1      -1.615  -5.454  10.304  0.00  0.00    +0.054 A 
BRANCH  15  17
ATOM     17  O   UNL     1      -3.499  -6.289  11.491  0.00  0.00    -0.491 OA
ATOM     18  C   UNL     1      -2.604  -6.534  12.577  0.00  0.00    +0.277 C 
ENDBRANCH  15  17
BRANCH  14  19
ATOM     19  O   UNL     1      -5.112  -5.763   9.321  0.00  0.00    -0.491 OA
ATOM     20  C   UNL     1      -5.886  -5.464   8.158  0.00  0.00    +0.277 C 
ENDBRANCH  14  19
ENDBRANCH   8  11
BRANCH   1  22
ATOM     21  N   UNL     1       0.051  -2.797   2.392  0.00  0.00    -0.280 N 
ATOM     22  C   UNL     1       0.149  -2.134   3.562  0.00  0.00    +0.268 C 
ATOM     23  O   UNL     1       0.134  -0.919   3.575  0.00  0.00    -0.268 OA
ATOM     24  H   UNL     1      -0.014  -3.765   2.387  0.00  0.00    +0.155 HD
BRANCH  21  30
ATOM     25  C   UNL     1      -1.514  -2.364  -2.248  0.00  0.00    +0.044 C 
ATOM     26  C   UNL     1      -0.708  -1.857  -1.080  0.00  0.00    -0.048 A 
ATOM     27  C   UNL     1       0.025  -0.690  -1.201  0.00  0.00    +0.006 A 
ATOM     28  C   UNL     1       0.766  -0.221  -0.132  0.00  0.00    -0.048 A 
ATOM     29  C   UNL     1       0.776  -0.917   1.061  0.00  0.00    +0.026 A 
ATOM     30  C   UNL     1       0.042  -2.089   1.186  0.00  0.00    +0.034 A 
ATOM     31  C   UNL     1      -0.706  -2.554   0.112  0.00  0.00    +0.026 A 
ATOM     32  C   UNL     1       1.563   1.050  -0.268  0.00  0.00    +0.044 C 
ENDBRANCH  21  30
ENDBRANCH   1  22
BRANCH   6  33
ATOM     33  C   UNL     1       1.408  -6.747   6.082  0.00  0.00    +0.412 C 
ATOM     34  F   UNL     1       2.690  -6.195   5.986  0.00  0.00    -0.168 F 
ATOM     35  F   UNL     1       1.486  -8.008   6.682  0.00  0.00    -0.168 F 
ATOM     36  F   UNL     1       0.857  -6.873   4.802  0.00  0.00    -0.168 F 
ENDBRANCH   6  33
TORSDOF 6
