REMARK  Name = ZINC35077695
REMARK  8 active torsions:
REMARK  status: ('A' for Active; 'I' for Inactive)
REMARK    1  A    between atoms: C_4  and  N_26
REMARK    2  A    between atoms: C_5  and  N_7
REMARK    3  A    between atoms: C_8  and  C_10
REMARK    4  A    between atoms: C_10  and  S_11
REMARK    5  A    between atoms: S_11  and  C_12
REMARK    6  A    between atoms: C_15  and  C_17
REMARK    7  A    between atoms: C_21  and  N_23
REMARK    8  A    between atoms: N_29  and  C_32
REMARK                            x       y       z     vdW  Elec       q    Type
REMARK                         _______ _______ _______ _____ _____    ______ ____
ROOT
ATOM      1  N   UNL     1       1.234  -2.082  -0.021  0.00  0.00    -0.283 N 
ATOM      2  C   UNL     1       0.181  -2.769  -0.509  0.00  0.00    +0.228 C 
ATOM      3  O   UNL     1      -0.744  -2.178  -1.023  0.00  0.00    -0.275 OA
ATOM      4  H   UNL     1       2.009  -2.558   0.317  0.00  0.00    +0.155 HD
ENDROOT
BRANCH   1   9
ATOM      5  C   UNL     1      -0.028   1.374   0.036  0.00  0.00    +0.002 A 
ATOM      6  C   UNL     1       1.155   2.089   0.033  0.00  0.00    +0.002 A 
ATOM      7  C   UNL     1       2.368   1.427   0.011  0.00  0.00    +0.025 A 
ATOM      8  C   UNL     1       2.401   0.040  -0.007  0.00  0.00    +0.051 A 
ATOM      9  C   UNL     1       1.208  -0.681  -0.003  0.00  0.00    +0.055 A 
ATOM     10  C   UNL     1      -0.005  -0.008   0.019  0.00  0.00    +0.025 A 
BRANCH   8  11
ATOM     11  N   UNL     1       3.627  -0.632  -0.029  0.00  0.00    -0.332 N 
ATOM     12  C   UNL     1       4.279  -0.974  -1.302  0.00  0.00    +0.086 C 
ATOM     13  C   UNL     1       5.734  -0.495  -1.248  0.00  0.00    -0.059 C 
ATOM     14  N   UNL     1       6.389  -1.058  -0.061  0.00  0.00    +0.384 N 
ATOM     15  C   UNL     1       5.755  -0.535   1.156  0.00  0.00    -0.059 C 
ATOM     16  C   UNL     1       4.305  -1.012   1.220  0.00  0.00    +0.086 C 
ATOM     17  H   UNL     1       6.306  -2.063  -0.077  0.00  0.00    -0.081 HD
BRANCH  14  18
ATOM     18  C   UNL     1       7.811  -0.688  -0.068  0.00  0.00    -0.068 C 
ATOM     19  C   UNL     1       8.476  -1.242  -1.329  0.00  0.00    -0.015 C 
ATOM     20  C   UNL     1       9.957  -0.856  -1.336  0.00  0.00    -0.002 C 
ATOM     21  C   UNL     1      10.642  -1.442  -0.100  0.00  0.00    -0.000 C 
ATOM     22  C   UNL     1       9.977  -0.889   1.162  0.00  0.00    -0.002 C 
ATOM     23  C   UNL     1       8.496  -1.274   1.169  0.00  0.00    -0.015 C 
ENDBRANCH  14  18
ENDBRANCH   8  11
ENDBRANCH   1   9
BRANCH   2  24
ATOM     24  C   UNL     1       0.155  -4.273  -0.415  0.00  0.00    +0.175 C 
BRANCH  24  25
ATOM     25  S   UNL     1      -1.380  -4.898  -1.153  0.00  0.00    -0.056 S 
BRANCH  25  26
ATOM     26  C   UNL     1      -1.261  -6.646  -0.968  0.00  0.00    +0.278 A 
ATOM     27  N   UNL     1      -0.270  -7.303  -0.409  0.00  0.00    -0.101 NA
ATOM     28  N   UNL     1      -0.518  -8.565  -0.447  0.00  0.00    -0.106 NA
ATOM     29  C   UNL     1      -1.675  -8.765  -1.030  0.00  0.00    +0.249 A 
ATOM     30  O   UNL     1      -2.172  -7.554  -1.367  0.00  0.00    -0.411 OA
BRANCH  29  31
ATOM     31  C   UNL     1      -2.319 -10.072  -1.271  0.00  0.00    +0.041 A 
ATOM     32  C   UNL     1      -3.557 -10.137  -1.913  0.00  0.00    +0.013 A 
ATOM     33  C   UNL     1      -4.153 -11.361  -2.135  0.00  0.00    +0.003 A 
ATOM     34  C   UNL     1      -3.526 -12.524  -1.722  0.00  0.00    +0.033 A 
ATOM     35  C   UNL     1      -2.299 -12.467  -1.085  0.00  0.00    +0.127 A 
ATOM     36  C   UNL     1      -1.690 -11.250  -0.862  0.00  0.00    +0.046 A 
BRANCH  35  37
ATOM     37  N   UNL     1      -1.636 -13.716  -0.647  0.00  0.00    +0.056 N 
ATOM     38  O   UNL     1      -2.167 -14.784  -0.846  0.00  0.00    -0.126 OA
ATOM     39  O   UNL     1      -0.564 -13.668  -0.090  0.00  0.00    -0.126 OA
ENDBRANCH  35  37
ENDBRANCH  29  31
ENDBRANCH  25  26
ENDBRANCH  24  25
ENDBRANCH   2  24
TORSDOF 8
