REMARK  Name = ZINC67426703
REMARK  7 active torsions:
REMARK  status: ('A' for Active; 'I' for Inactive)
REMARK    1  A    between atoms: C_1  and  C_2
REMARK    2  A    between atoms: C_2  and  C_4
REMARK    3  A    between atoms: C_2  and  N_17
REMARK    4  A    between atoms: C_7  and  N_10
REMARK    5  A    between atoms: N_13  and  C_16
REMARK    6  A    between atoms: C_18  and  C_20
REMARK    7  A    between atoms: N_22  and  C_23
REMARK                            x       y       z     vdW  Elec       q    Type
REMARK                         _______ _______ _______ _____ _____    ______ ____
ROOT
ATOM      1  C   UNL     1      -0.486   1.435   0.151  0.00  0.00    +0.033 C 
ATOM      2  C   UNL     1      -0.461  -0.095   0.196  0.00  0.00    +0.101 C 
ENDROOT
BRANCH   2   3
ATOM      3  C   UNL     1       0.184  -0.549   1.480  0.00  0.00    -0.027 A 
ATOM      4  C   UNL     1      -0.550  -0.566   2.652  0.00  0.00    +0.007 A 
ATOM      5  C   UNL     1       0.037  -0.981   3.831  0.00  0.00    +0.023 A 
ATOM      6  C   UNL     1       1.367  -1.383   3.839  0.00  0.00    +0.030 A 
ATOM      7  C   UNL     1       2.102  -1.365   2.660  0.00  0.00    +0.023 A 
ATOM      8  C   UNL     1       1.506  -0.953   1.483  0.00  0.00    +0.007 A 
BRANCH   6   9
ATOM      9  N   UNL     1       1.965  -1.803   5.029  0.00  0.00    -0.333 N 
ATOM     10  C   UNL     1       3.336  -2.336   5.040  0.00  0.00    +0.086 C 
ATOM     11  C   UNL     1       4.133  -1.602   6.124  0.00  0.00    -0.060 C 
ATOM     12  N   UNL     1       3.429  -1.713   7.408  0.00  0.00    +0.380 N 
ATOM     13  C   UNL     1       2.137  -1.021   7.331  0.00  0.00    -0.060 C 
ATOM     14  C   UNL     1       1.243  -1.721   6.308  0.00  0.00    +0.086 C 
ATOM     15  C   UNL     1       4.246  -1.105   8.466  0.00  0.00    -0.096 C 
ATOM     16  H   UNL     1       3.276  -2.687   7.622  0.00  0.00    -0.082 HD
ENDBRANCH   6   9
ENDBRANCH   2   3
BRANCH   2  17
ATOM     17  N   UNL     1      -1.831  -0.608   0.129  0.00  0.00    -0.301 N 
ATOM     18  C   UNL     1      -2.428  -0.782  -1.066  0.00  0.00    +0.300 C 
ATOM     19  O   UNL     1      -1.831  -0.513  -2.088  0.00  0.00    -0.265 OA
ATOM     20  H   UNL     1      -2.309  -0.823   0.946  0.00  0.00    +0.150 HD
BRANCH  18  21
ATOM     21  C   UNL     1      -3.825  -1.305  -1.135  0.00  0.00    +0.303 C 
ATOM     22  O   UNL     1      -4.423  -1.574  -0.113  0.00  0.00    -0.265 OA
ATOM     23  N   UNL     1      -4.422  -1.479  -2.330  0.00  0.00    -0.278 N 
ATOM     24  H   UNL     1      -3.920  -1.340  -3.148  0.00  0.00    +0.155 HD
BRANCH  23  25
ATOM     25  C   UNL     1      -5.765  -1.860  -2.392  0.00  0.00    +0.037 A 
ATOM     26  C   UNL     1      -6.203  -2.706  -3.404  0.00  0.00    +0.023 A 
ATOM     27  C   UNL     1      -7.531  -3.081  -3.463  0.00  0.00    +0.005 A 
ATOM     28  C   UNL     1      -8.425  -2.617  -2.517  0.00  0.00    +0.038 A 
ATOM     29  C   UNL     1      -7.994  -1.774  -1.506  0.00  0.00    +0.125 A 
ATOM     30  C   UNL     1      -6.663  -1.399  -1.438  0.00  0.00    +0.061 A 
ATOM     31  F   UNL     1      -8.870  -1.321  -0.584  0.00  0.00    -0.205 F 
ENDBRANCH  23  25
ENDBRANCH  18  21
ENDBRANCH   2  17
TORSDOF 5
