REMARK  Name = ZINC60369341
REMARK  6 active torsions:
REMARK  status: ('A' for Active; 'I' for Inactive)
REMARK    1  A    between atoms: C_3  and  C_8
REMARK    2  A    between atoms: C_8  and  N_9
REMARK    3  A    between atoms: C_13  and  C_16
REMARK    4  A    between atoms: C_22  and  C_25
REMARK    5  A    between atoms: C_25  and  N_26
REMARK    6  A    between atoms: N_29  and  C_30
REMARK                            x       y       z     vdW  Elec       q    Type
REMARK                         _______ _______ _______ _____ _____    ______ ____
ROOT
ATOM      1  C   UNL     1       7.501   3.662   2.384  0.00  0.00    +0.217 C 
ATOM      2  O   UNL     1       8.134   3.713   1.351  0.00  0.00    -0.275 OA
ATOM      3  N   UNL     1       8.029   4.152   3.523  0.00  0.00    -0.301 N 
ATOM      4  C   UNL     1       7.327   3.991   4.803  0.00  0.00    +0.108 C 
ATOM      5  C   UNL     1       8.282   3.344   5.811  0.00  0.00    +0.019 C 
ATOM      6  C   UNL     1       9.565   4.174   5.898  0.00  0.00    +0.008 C 
ATOM      7  C   UNL     1      10.251   4.200   4.530  0.00  0.00    +0.024 C 
ATOM      8  C   UNL     1       9.321   4.851   3.509  0.00  0.00    +0.112 C 
ENDROOT
BRANCH   1  13
ATOM      9  N   UNL     1       4.892   0.946   2.628  0.00  0.00    +0.383 N 
ATOM     10  C   UNL     1       4.258   1.129   1.317  0.00  0.00    -0.078 C 
ATOM     11  C   UNL     1       4.072   2.623   1.040  0.00  0.00    -0.018 C 
ATOM     12  C   UNL     1       5.439   3.312   1.048  0.00  0.00    +0.009 C 
ATOM     13  C   UNL     1       6.123   3.052   2.393  0.00  0.00    +0.059 C 
ATOM     14  C   UNL     1       6.233   1.543   2.620  0.00  0.00    -0.066 C 
ATOM     15  H   UNL     1       4.330   1.394   3.336  0.00  0.00    -0.081 HD
BRANCH   9  16
ATOM     16  C   UNL     1       4.998  -0.489   2.922  0.00  0.00    -0.043 C 
BRANCH  16  19
ATOM     17  C   UNL     1       1.710  -2.131   2.057  0.00  0.00    +0.003 A 
ATOM     18  C   UNL     1       2.977  -1.590   1.939  0.00  0.00    +0.002 A 
ATOM     19  C   UNL     1       3.617  -1.078   3.052  0.00  0.00    -0.061 A 
ATOM     20  C   UNL     1       2.991  -1.107   4.285  0.00  0.00    +0.040 A 
ATOM     21  C   UNL     1       1.723  -1.649   4.404  0.00  0.00    +0.124 A 
ATOM     22  C   UNL     1       1.082  -2.161   3.288  0.00  0.00    +0.038 A 
ATOM     23  F   UNL     1       1.111  -1.678   5.607  0.00  0.00    -0.205 F 
ENDBRANCH  16  19
ENDBRANCH   9  16
ENDBRANCH   1  13
BRANCH   7  24
ATOM     24  C   UNL     1      11.550   5.002   4.626  0.00  0.00    +0.110 C 
BRANCH  24  25
ATOM     25  N   UNL     1      12.486   4.310   5.516  0.00  0.00    -0.299 N 
ATOM     26  C   UNL     1      13.705   4.836   5.753  0.00  0.00    +0.304 C 
ATOM     27  O   UNL     1      14.027   5.884   5.227  0.00  0.00    -0.253 OA
ATOM     28  N   UNL     1      14.566   4.200   6.572  0.00  0.00    -0.269 N 
ATOM     29  H   UNL     1      12.229   3.474   5.936  0.00  0.00    +0.150 HD
ATOM     30  H   UNL     1      14.339   3.328   6.932  0.00  0.00    +0.156 HD
BRANCH  28  31
ATOM     31  C   UNL     1      15.787   4.797   6.903  0.00  0.00    +0.037 A 
ATOM     32  C   UNL     1      16.915   4.011   7.103  0.00  0.00    +0.023 A 
ATOM     33  C   UNL     1      18.119   4.602   7.429  0.00  0.00    +0.005 A 
ATOM     34  C   UNL     1      18.205   5.976   7.558  0.00  0.00    +0.038 A 
ATOM     35  C   UNL     1      17.084   6.763   7.360  0.00  0.00    +0.125 A 
ATOM     36  C   UNL     1      15.876   6.177   7.026  0.00  0.00    +0.061 A 
ATOM     37  F   UNL     1      17.170   8.106   7.487  0.00  0.00    -0.205 F 
ENDBRANCH  28  31
ENDBRANCH  24  25
ENDBRANCH   7  24
TORSDOF 6
