REMARK  Name = ZINC19636546
REMARK  5 active torsions:
REMARK  status: ('A' for Active; 'I' for Inactive)
REMARK    1  A    between atoms: C_1  and  C_2
REMARK    2  A    between atoms: C_4  and  C_7
REMARK    3  A    between atoms: C_13  and  C_16
REMARK    4  A    between atoms: N_18  and  C_19
REMARK    5  A    between atoms: C_23  and  C_25
REMARK                            x       y       z     vdW  Elec       q    Type
REMARK                         _______ _______ _______ _____ _____    ______ ____
ROOT
ATOM      1  C   UNL     1      -5.362  -5.596  -0.398  0.00  0.00    +0.222 C 
ATOM      2  O   UNL     1      -4.775  -6.632  -0.627  0.00  0.00    -0.275 OA
ATOM      3  N   UNL     1      -4.670  -4.489  -0.061  0.00  0.00    -0.285 N 
ATOM      4  H   UNL     1      -5.203  -3.556   0.172  0.00  0.00    +0.155 HD
ENDROOT
BRANCH   1  11
ATOM      5  C   UNL     1      -9.677  -4.175   1.146  0.00  0.00    +0.268 C 
ATOM      6  O   UNL     1      -9.157  -3.110   1.412  0.00  0.00    -0.268 OA
ATOM      7  N   UNL     1      -8.913  -5.229   0.799  0.00  0.00    -0.295 N 
ATOM      8  C   UNL     1      -9.529  -6.482   0.341  0.00  0.00    +0.108 C 
ATOM      9  C   UNL     1      -8.923  -6.864  -1.013  0.00  0.00    +0.020 C 
ATOM     10  C   UNL     1      -7.399  -6.923  -0.887  0.00  0.00    +0.016 C 
ATOM     11  C   UNL     1      -6.865  -5.545  -0.490  0.00  0.00    +0.093 C 
ATOM     12  C   UNL     1      -7.448  -5.148   0.870  0.00  0.00    +0.121 C 
BRANCH   5  16
ATOM     13  C   UNL     1     -14.655  -3.294   1.571  0.00  0.00    +0.089 C 
ATOM     14  C   UNL     1     -13.295  -3.917   1.390  0.00  0.00    +0.135 A 
ATOM     15  C   UNL     1     -12.102  -3.280   1.431  0.00  0.00    +0.080 A 
ATOM     16  C   UNL     1     -11.153  -4.315   1.204  0.00  0.00    +0.168 A 
ATOM     17  N   UNL     1     -11.845  -5.417   1.051  0.00  0.00    -0.073 NA
ATOM     18  O   UNL     1     -13.032  -5.211   1.157  0.00  0.00    -0.359 OA
ENDBRANCH   5  16
ENDBRANCH   1  11
BRANCH   3  19
ATOM     19  C   UNL     1      -3.272  -4.528  -0.006  0.00  0.00    +0.034 A 
ATOM     20  C   UNL     1      -2.627  -5.646   0.510  0.00  0.00    +0.023 A 
ATOM     21  C   UNL     1      -1.247  -5.689   0.567  0.00  0.00    +0.002 A 
ATOM     22  C   UNL     1      -0.499  -4.624   0.105  0.00  0.00    +0.010 A 
ATOM     23  C   UNL     1      -1.137  -3.495  -0.410  0.00  0.00    +0.000 A 
ATOM     24  C   UNL     1      -2.530  -3.452  -0.467  0.00  0.00    +0.033 A 
BRANCH  23  25
ATOM     25  C   UNL     1      -0.339  -2.350  -0.899  0.00  0.00    +0.048 A 
ATOM     26  C   UNL     1       1.016  -2.282  -0.893  0.00  0.00    +0.036 A 
ATOM     27  C   UNL     1       1.379  -0.985  -1.461  0.00  0.00    +0.000 A 
ATOM     28  C   UNL     1       2.596  -0.345  -1.713  0.00  0.00    +0.010 A 
ATOM     29  C   UNL     1       2.605   0.902  -2.269  0.00  0.00    +0.001 A 
ATOM     30  C   UNL     1       1.414   1.541  -2.587  0.00  0.00    +0.002 A 
ATOM     31  C   UNL     1       0.202   0.930  -2.347  0.00  0.00    +0.026 A 
ATOM     32  C   UNL     1       0.169  -0.341  -1.781  0.00  0.00    +0.047 A 
ATOM     33  N   UNL     1      -0.856  -1.191  -1.430  0.00  0.00    -0.354 N 
ATOM     34  H   UNL     1      -1.945  -1.064  -1.516  0.00  0.00    +0.166 HD
ENDBRANCH  23  25
ENDBRANCH   3  19
TORSDOF 4
