REMARK  Name = ZINC32530212
REMARK  9 active torsions:
REMARK  status: ('A' for Active; 'I' for Inactive)
REMARK    1  A    between atoms: C_1  and  C_2
REMARK    2  A    between atoms: C_4  and  S_14
REMARK    3  A    between atoms: C_11  and  O_12
REMARK    4  A    between atoms: O_12  and  C_13
REMARK    5  A    between atoms: S_14  and  C_15
REMARK    6  A    between atoms: C_15  and  C_16
REMARK    7  A    between atoms: C_16  and  C_17
REMARK    8  A    between atoms: N_19  and  C_20
REMARK    9  A    between atoms: C_21  and  C_29
REMARK                            x       y       z     vdW  Elec       q    Type
REMARK                         _______ _______ _______ _____ _____    ______ ____
ROOT
ATOM      1  C   UNL     1      -6.250   2.113   0.073  0.00  0.00    +0.218 C 
ATOM      2  O   UNL     1      -5.799   0.987   0.063  0.00  0.00    -0.275 OA
ATOM      3  N   UNL     1      -7.584   2.305   0.087  0.00  0.00    -0.279 N 
ATOM      4  H   UNL     1      -7.992   3.327   0.097  0.00  0.00    +0.155 HD
ENDROOT
BRANCH   3   5
ATOM      5  C   UNL     1      -8.441   1.216   0.089  0.00  0.00    +0.084 A 
ATOM      6  C   UNL     1      -9.829   1.210   0.108  0.00  0.00    +0.068 A 
ATOM      7  C   UNL     1     -10.495  -0.080   0.103  0.00  0.00    -0.023 A 
ATOM      8  C   UNL     1      -9.674  -1.152   0.090  0.00  0.00    -0.004 A 
ATOM      9  S   UNL     1      -8.040  -0.470   0.077  0.00  0.00    -0.077 S 
ATOM     10  C   UNL     1     -10.072  -2.596   0.088  0.00  0.00    +0.043 C 
ATOM     11  C   UNL     1     -11.553  -2.689   0.481  0.00  0.00    +0.005 C 
ATOM     12  C   UNL     1     -12.348  -1.672  -0.343  0.00  0.00    +0.005 C 
ATOM     13  C   UNL     1     -12.009  -0.253   0.117  0.00  0.00    +0.037 C 
BRANCH   6  14
ATOM     14  C   UNL     1     -10.594   2.461   0.129  0.00  0.00    +0.244 C 
ATOM     15  O   UNL     1     -10.926   2.989  -0.917  0.00  0.00    -0.270 OA
ATOM     16  N   UNL     1     -10.929   3.027   1.305  0.00  0.00    -0.325 N 
ATOM     17  H   UNL     1     -11.502   3.965   1.321  0.00  0.00    +0.145 HD
ATOM     18  H   UNL     1     -10.628   2.551   2.250  0.00  0.00    +0.145 HD
ENDBRANCH   6  14
ENDBRANCH   3   5
BRANCH   1  19
ATOM     19  C   UNL     1      -5.318   3.298   0.071  0.00  0.00    +0.107 C 
BRANCH  19  20
ATOM     20  C   UNL     1      -3.869   2.806   0.054  0.00  0.00    +0.085 C 
BRANCH  20  21
ATOM     21  S   UNL     1      -2.749   4.229   0.051  0.00  0.00    -0.105 S 
BRANCH  21  25
ATOM     22  C   UNL     1       2.477   4.309   0.002  0.00  0.00    +0.044 C 
ATOM     23  C   UNL     1       1.193   3.520   0.009  0.00  0.00    -0.039 A 
ATOM     24  C   UNL     1      -0.015   4.151   0.024  0.00  0.00    +0.038 A 
ATOM     25  C   UNL     1      -1.197   3.396   0.032  0.00  0.00    +0.098 A 
ATOM     26  N   UNL     1      -1.173   2.079   0.019  0.00  0.00    -0.237 NA
ATOM     27  C   UNL     1      -0.017   1.406   0.010  0.00  0.00    +0.114 A 
ATOM     28  C   UNL     1       1.210   2.111   0.002  0.00  0.00    +0.007 A 
ATOM     29  C   UNL     1       2.420   1.398  -0.013  0.00  0.00    +0.010 A 
ATOM     30  C   UNL     1       2.402   0.036  -0.020  0.00  0.00    +0.004 A 
ATOM     31  C   UNL     1       1.198  -0.664  -0.013  0.00  0.00    +0.048 A 
ATOM     32  C   UNL     1       0.002  -0.004   0.002  0.00  0.00    +0.146 A 
BRANCH  32  33
ATOM     33  O   UNL     1      -1.163  -0.703   0.010  0.00  0.00    -0.493 OA
ATOM     34  C   UNL     1      -1.065  -2.128   0.001  0.00  0.00    +0.277 C 
ENDBRANCH  32  33
ENDBRANCH  21  25
ENDBRANCH  20  21
ENDBRANCH  19  20
ENDBRANCH   1  19
TORSDOF 7
