REMARK  Name = ZINC33058463
REMARK  13 active torsions:
REMARK  status: ('A' for Active; 'I' for Inactive)
REMARK    1  A    between atoms: C_1  and  C_2
REMARK    2  A    between atoms: C_5  and  C_36
REMARK    3  A    between atoms: C_6  and  N_8
REMARK    4  A    between atoms: N_8  and  C_9
REMARK    5  A    between atoms: C_10  and  S_25
REMARK    6  A    between atoms: C_11  and  N_24
REMARK    7  A    between atoms: C_12  and  C_14
REMARK    8  A    between atoms: C_14  and  C_16
REMARK    9  A    between atoms: C_19  and  O_22
REMARK   10  A    between atoms: O_22  and  C_23
REMARK   11  A    between atoms: S_25  and  C_28
REMARK   12  A    between atoms: C_31  and  O_34
REMARK   13  A    between atoms: O_34  and  C_35
REMARK                            x       y       z     vdW  Elec       q    Type
REMARK                         _______ _______ _______ _____ _____    ______ ____
ROOT
ATOM      1  C   UNL     1      -5.365   1.976   1.736  0.00  0.00    +0.098 A 
ATOM      2  C   UNL     1      -6.599   2.292   1.203  0.00  0.00    +0.143 A 
ATOM      3  C   UNL     1      -6.798   2.141  -0.147  0.00  0.00    +0.070 A 
ATOM      4  C   UNL     1      -5.732   1.670  -0.923  0.00  0.00    +0.084 A 
ATOM      5  S   UNL     1      -4.447   1.455   0.297  0.00  0.00    -0.066 S 
ENDROOT
BRANCH   3   6
ATOM      6  N   UNL     1      -8.024   2.447  -0.727  0.00  0.00    -0.355 N 
ATOM      7  H   UNL     1      -8.166   2.321  -1.810  0.00  0.00    +0.142 HD
ATOM      8  H   UNL     1      -8.851   2.817  -0.103  0.00  0.00    +0.142 HD
ENDBRANCH   3   6
BRANCH   2   9
ATOM      9  S   UNL     1      -7.898   2.880   2.239  0.00  0.00    +0.029 S 
ATOM     10  O   UNL     1      -9.117   2.487   1.624  0.00  0.00    -0.164 OA
ATOM     11  O   UNL     1      -7.559   2.505   3.567  0.00  0.00    -0.164 OA
BRANCH   9  12
ATOM     12  C   UNL     1      -7.851   4.640   2.185  0.00  0.00    +0.094 A 
ATOM     13  C   UNL     1      -7.088   5.339   3.102  0.00  0.00    +0.031 A 
ATOM     14  C   UNL     1      -7.045   6.719   3.059  0.00  0.00    +0.047 A 
ATOM     15  C   UNL     1      -7.778   7.404   2.101  0.00  0.00    +0.120 A 
ATOM     16  C   UNL     1      -8.547   6.701   1.185  0.00  0.00    +0.047 A 
ATOM     17  C   UNL     1      -8.582   5.321   1.229  0.00  0.00    +0.031 A 
BRANCH  15  18
ATOM     18  O   UNL     1      -7.742   8.762   2.059  0.00  0.00    -0.495 OA
ATOM     19  C   UNL     1      -6.928   9.420   3.032  0.00  0.00    +0.277 C 
ENDBRANCH  15  18
ENDBRANCH   9  12
ENDBRANCH   2   9
BRANCH   1  20
ATOM     20  N   UNL     1      -4.945   2.049   3.052  0.00  0.00    -0.307 N 
ATOM     21  H   UNL     1      -5.662   2.308   3.845  0.00  0.00    +0.153 HD
BRANCH  20  27
ATOM     22  C   UNL     1      -0.217   1.937   1.712  0.00  0.00    +0.044 C 
ATOM     23  C   UNL     1      -1.296   1.732   2.744  0.00  0.00    -0.049 A 
ATOM     24  C   UNL     1      -0.964   1.293   4.012  0.00  0.00    +0.004 A 
ATOM     25  C   UNL     1      -1.950   1.104   4.963  0.00  0.00    +0.005 A 
ATOM     26  C   UNL     1      -3.272   1.354   4.647  0.00  0.00    -0.029 A 
ATOM     27  C   UNL     1      -3.609   1.795   3.374  0.00  0.00    +0.035 A 
ATOM     28  C   UNL     1      -2.615   1.989   2.423  0.00  0.00    +0.027 A 
ATOM     29  C   UNL     1      -4.346   1.148   5.684  0.00  0.00    +0.045 C 
ENDBRANCH  20  27
ENDBRANCH   1  20
BRANCH   4  30
ATOM     30  C   UNL     1      -5.685   1.433  -2.309  0.00  0.00    +0.202 C 
ATOM     31  O   UNL     1      -6.628   1.751  -3.015  0.00  0.00    -0.286 OA
BRANCH  30  32
ATOM     32  C   UNL     1      -4.492   0.799  -2.910  0.00  0.00    +0.023 A 
ATOM     33  C   UNL     1      -4.192   1.010  -4.258  0.00  0.00    +0.015 A 
ATOM     34  C   UNL     1      -3.076   0.423  -4.813  0.00  0.00    +0.046 A 
ATOM     35  C   UNL     1      -2.256  -0.388  -4.037  0.00  0.00    +0.120 A 
ATOM     36  C   UNL     1      -2.555  -0.605  -2.697  0.00  0.00    +0.046 A 
ATOM     37  C   UNL     1      -3.666  -0.016  -2.134  0.00  0.00    +0.015 A 
BRANCH  35  38
ATOM     38  O   UNL     1      -1.161  -0.970  -4.589  0.00  0.00    -0.495 OA
ATOM     39  C   UNL     1      -0.913  -0.705  -5.971  0.00  0.00    +0.277 C 
ENDBRANCH  35  38
ENDBRANCH  30  32
ENDBRANCH   4  30
TORSDOF 9
