REMARK  Name = ZINC34900218
REMARK  6 active torsions:
REMARK  status: ('A' for Active; 'I' for Inactive)
REMARK    1  A    between atoms: C_4  and  C_7
REMARK    2  A    between atoms: C_10  and  C_13
REMARK    3  A    between atoms: C_19  and  C_22
REMARK    4  A    between atoms: N_24  and  C_25
REMARK    5  A    between atoms: C_31  and  N_33
REMARK    6  A    between atoms: C_34  and  C_36
REMARK                            x       y       z     vdW  Elec       q    Type
REMARK                         _______ _______ _______ _____ _____    ______ ____
ROOT
ATOM      1  C   UNL     1      10.006  -6.722  -0.830  0.00  0.00    +0.218 C 
ATOM      2  O   UNL     1       9.912  -7.917  -0.645  0.00  0.00    -0.275 OA
ATOM      3  N   UNL     1      11.222  -6.143  -0.885  0.00  0.00    -0.310 N 
ATOM      4  H   UNL     1      11.297  -5.187  -1.033  0.00  0.00    +0.149 HD
ENDROOT
BRANCH   1  11
ATOM      5  C   UNL     1       7.412  -2.754  -0.088  0.00  0.00    +0.247 C 
ATOM      6  O   UNL     1       8.451  -2.134  -0.198  0.00  0.00    -0.270 OA
ATOM      7  N   UNL     1       7.436  -4.099   0.001  0.00  0.00    -0.297 N 
ATOM      8  C   UNL     1       6.186  -4.872   0.000  0.00  0.00    +0.108 C 
ATOM      9  C   UNL     1       6.266  -5.937  -1.098  0.00  0.00    +0.020 C 
ATOM     10  C   UNL     1       7.527  -6.780  -0.894  0.00  0.00    +0.016 C 
ATOM     11  C   UNL     1       8.764  -5.886  -0.998  0.00  0.00    +0.092 C 
ATOM     12  C   UNL     1       8.713  -4.820   0.095  0.00  0.00    +0.120 C 
BRANCH   5  16
ATOM     13  C   UNL     1       3.701  -0.685   0.016  0.00  0.00    -0.018 A 
ATOM     14  C   UNL     1       4.696  -0.287  -0.876  0.00  0.00    +0.009 A 
ATOM     15  C   UNL     1       5.899  -0.956  -0.911  0.00  0.00    +0.013 A 
ATOM     16  C   UNL     1       6.122  -2.035  -0.052  0.00  0.00    +0.037 A 
ATOM     17  C   UNL     1       5.124  -2.433   0.842  0.00  0.00    +0.013 A 
ATOM     18  C   UNL     1       3.925  -1.759   0.878  0.00  0.00    +0.009 A 
BRANCH  13  22
ATOM     19  C   UNL     1      -0.012   1.384   0.118  0.00  0.00    +0.000 A 
ATOM     20  C   UNL     1       0.972   1.778  -0.771  0.00  0.00    +0.001 A 
ATOM     21  C   UNL     1       2.179   1.110  -0.808  0.00  0.00    +0.008 A 
ATOM     22  C   UNL     1       2.406   0.037   0.052  0.00  0.00    -0.018 A 
ATOM     23  C   UNL     1       1.411  -0.356   0.946  0.00  0.00    +0.008 A 
ATOM     24  C   UNL     1       0.208   0.320   0.974  0.00  0.00    +0.001 A 
ENDBRANCH  13  22
ENDBRANCH   5  16
ENDBRANCH   1  11
BRANCH   3  25
ATOM     25  C   UNL     1      12.429  -6.956  -0.722  0.00  0.00    +0.093 C 
ATOM     26  C   UNL     1      12.736  -7.119   0.768  0.00  0.00    +0.024 C 
ATOM     27  C   UNL     1      13.997  -7.969   0.939  0.00  0.00    +0.002 C 
ATOM     28  C   UNL     1      15.175  -7.279   0.248  0.00  0.00    +0.002 C 
ATOM     29  C   UNL     1      14.867  -7.116  -1.242  0.00  0.00    +0.024 C 
ATOM     30  C   UNL     1      13.607  -6.266  -1.413  0.00  0.00    +0.093 C 
BRANCH  30  31
ATOM     31  N   UNL     1      13.312  -6.110  -2.840  0.00  0.00    -0.307 N 
ATOM     32  C   UNL     1      13.911  -5.132  -3.548  0.00  0.00    +0.244 C 
ATOM     33  O   UNL     1      14.695  -4.380  -3.004  0.00  0.00    -0.270 OA
ATOM     34  H   UNL     1      12.686  -6.711  -3.274  0.00  0.00    +0.149 HD
BRANCH  32  35
ATOM     35  C   UNL     1      13.614  -4.975  -4.987  0.00  0.00    +0.037 A 
ATOM     36  C   UNL     1      12.709  -5.835  -5.614  0.00  0.00    +0.016 A 
ATOM     37  C   UNL     1      12.436  -5.684  -6.956  0.00  0.00    +0.039 A 
ATOM     38  C   UNL     1      13.058  -4.681  -7.684  0.00  0.00    +0.123 A 
ATOM     39  C   UNL     1      13.957  -3.825  -7.067  0.00  0.00    +0.039 A 
ATOM     40  C   UNL     1      14.233  -3.963  -5.723  0.00  0.00    +0.016 A 
ATOM     41  F   UNL     1      12.787  -4.538  -9.000  0.00  0.00    -0.205 F 
ENDBRANCH  32  35
ENDBRANCH  30  31
ENDBRANCH   3  25
TORSDOF 6
