REMARK  Name = ZINC09298139
REMARK  6 active torsions:
REMARK  status: ('A' for Active; 'I' for Inactive)
REMARK    1  A    between atoms: C_1  and  C_2
REMARK    2  A    between atoms: C_9  and  N_18
REMARK    3  A    between atoms: C_10  and  C_11
REMARK    4  A    between atoms: C_14  and  O_16
REMARK    5  A    between atoms: O_16  and  C_17
REMARK    6  A    between atoms: C_19  and  C_21
REMARK                            x       y       z     vdW  Elec       q    Type
REMARK                         _______ _______ _______ _____ _____    ______ ____
ROOT
ATOM      1  C   UNL     1      -0.019   1.526   0.010  0.00  0.00    +0.008 C 
ATOM      2  C   UNL     1       0.002  -0.004   0.002  0.00  0.00    -0.009 C 
ATOM      3  C   UNL     1       0.742  -0.514   1.242  0.00  0.00    +0.008 C 
ATOM      4  C   UNL     1       0.984  -2.020   1.120  0.00  0.00    +0.037 C 
ATOM      5  C   UNL     1      -0.340  -2.706   0.809  0.00  0.00    -0.023 A 
ATOM      6  C   UNL     1      -1.390  -2.006   0.327  0.00  0.00    -0.004 A 
ATOM      7  S   UNL     1      -2.678  -3.203   0.124  0.00  0.00    -0.077 S 
ATOM      8  C   UNL     1      -1.837  -4.615   0.672  0.00  0.00    +0.085 A 
ATOM      9  C   UNL     1      -0.579  -4.127   0.999  0.00  0.00    +0.069 A 
ATOM     10  C   UNL     1      -1.437  -0.538   0.030  0.00  0.00    +0.046 C 
ENDROOT
BRANCH   9  11
ATOM     11  C   UNL     1       0.469  -5.011   1.515  0.00  0.00    +0.255 C 
ATOM     12  O   UNL     1       0.577  -5.192   2.714  0.00  0.00    -0.270 OA
ATOM     13  N   UNL     1       1.314  -5.624   0.663  0.00  0.00    -0.217 N 
ATOM     14  C   UNL     1       2.278  -6.437   1.138  0.00  0.00    +0.407 C 
ATOM     15  O   UNL     1       2.385  -6.618   2.334  0.00  0.00    -0.226 OA
ATOM     16  H   UNL     1       1.228  -5.480  -0.293  0.00  0.00    +0.161 HD
BRANCH  14  17
ATOM     17  O   UNL     1       3.121  -7.050   0.286  0.00  0.00    -0.453 OA
ATOM     18  C   UNL     1       4.135  -7.912   0.868  0.00  0.00    +0.282 C 
ENDBRANCH  14  17
ENDBRANCH   9  11
BRANCH   8  19
ATOM     19  N   UNL     1      -2.306  -5.915   0.763  0.00  0.00    -0.275 N 
ATOM     20  C   UNL     1      -3.571  -6.202   0.397  0.00  0.00    +0.250 C 
ATOM     21  O   UNL     1      -4.300  -5.320  -0.013  0.00  0.00    -0.270 OA
ATOM     22  H   UNL     1      -1.724  -6.619   1.090  0.00  0.00    +0.156 HD
BRANCH  20  23
ATOM     23  C   UNL     1      -4.071  -7.589   0.493  0.00  0.00    +0.050 A 
ATOM     24  C   UNL     1      -3.236  -8.605   0.964  0.00  0.00    +0.014 A 
ATOM     25  C   UNL     1      -3.709  -9.897   1.051  0.00  0.00    +0.001 A 
ATOM     26  C   UNL     1      -5.009 -10.189   0.675  0.00  0.00    +0.001 A 
ATOM     27  C   UNL     1      -5.842  -9.188   0.208  0.00  0.00    +0.015 A 
ATOM     28  C   UNL     1      -5.383  -7.889   0.120  0.00  0.00    +0.025 A 
ATOM     29  I   UNL     1      -6.649  -6.373  -0.578  0.00  0.00    -0.043 I 
ENDBRANCH  20  23
ENDBRANCH   8  19
TORSDOF 4
