REMARK  Name = ZINC03417564
REMARK  7 active torsions:
REMARK  status: ('A' for Active; 'I' for Inactive)
REMARK    1  A    between atoms: C_1  and  C_2
REMARK    2  A    between atoms: C_2  and  O_3
REMARK    3  A    between atoms: O_3  and  C_4
REMARK    4  A    between atoms: C_4  and  C_6
REMARK    5  A    between atoms: C_20  and  C_22
REMARK    6  A    between atoms: N_25  and  S_28
REMARK    7  A    between atoms: S_28  and  C_31
REMARK                            x       y       z     vdW  Elec       q    Type
REMARK                         _______ _______ _______ _____ _____    ______ ____
ROOT
ATOM      1  C   UNL     1      -4.369   2.484  -0.028  0.00  0.00    +0.204 C 
ATOM      2  C   UNL     1      -3.588   1.312   0.493  0.00  0.00    +0.022 C 
ATOM      3  C   UNL     1      -4.063   0.605   1.502  0.00  0.00    +0.030 C 
ATOM      4  N   UNL     1      -2.384   0.969  -0.071  0.00  0.00    -0.316 N 
ATOM      5  C   UNL     1      -1.234   1.747   0.017  0.00  0.00    +0.057 A 
ATOM      6  C   UNL     1      -0.013   1.076   0.008  0.00  0.00    +0.025 A 
ATOM      7  C   UNL     1       1.177   1.772   0.000  0.00  0.00    +0.002 A 
ATOM      8  C   UNL     1       1.160   3.156   0.013  0.00  0.00    +0.002 A 
ATOM      9  C   UNL     1      -0.035   3.833   0.054  0.00  0.00    +0.029 A 
ATOM     10  C   UNL     1      -1.263   3.143   0.073  0.00  0.00    +0.087 A 
ATOM     11  N   UNL     1      -2.368   3.900   0.173  0.00  0.00    -0.234 NA
ATOM     12  C   UNL     1      -3.614   3.753   0.203  0.00  0.00    +0.122 C 
ATOM     13  N   UNL     1      -4.362   4.875   0.476  0.00  0.00    -0.273 N 
ATOM     14  C   UNL     1      -3.750   6.056   0.694  0.00  0.00    +0.221 C 
ATOM     15  O   UNL     1      -2.541   6.129   0.651  0.00  0.00    -0.275 OA
ATOM     16  H   UNL     1      -2.332   0.136  -0.564  0.00  0.00    +0.152 HD
ATOM     17  H   UNL     1      -5.330   4.817   0.510  0.00  0.00    +0.156 HD
ENDROOT
BRANCH  14  18
ATOM     18  C   UNL     1      -4.569   7.285   0.993  0.00  0.00    +0.078 C 
ATOM     19  C   UNL     1      -5.511   7.567  -0.180  0.00  0.00    +0.030 C 
ATOM     20  C   UNL     1      -6.367   8.797   0.142  0.00  0.00    +0.110 C 
ATOM     21  N   UNL     1      -5.477   9.915   0.483  0.00  0.00    -0.177 NA
ATOM     22  C   UNL     1      -4.471   9.722   1.536  0.00  0.00    +0.110 C 
ATOM     23  C   UNL     1      -3.637   8.481   1.199  0.00  0.00    +0.030 C 
BRANCH  21  24
ATOM     24  S   UNL     1      -5.606  11.367  -0.303  0.00  0.00    +0.061 S 
ATOM     25  O   UNL     1      -6.934  11.440  -0.805  0.00  0.00    -0.153 OA
ATOM     26  O   UNL     1      -5.067  12.351   0.569  0.00  0.00    -0.153 OA
BRANCH  24  27
ATOM     27  C   UNL     1      -4.541  11.297  -1.705  0.00  0.00    +0.106 A 
ATOM     28  C   UNL     1      -3.227  11.713  -1.595  0.00  0.00    +0.030 A 
ATOM     29  C   UNL     1      -2.389  11.653  -2.693  0.00  0.00    +0.022 A 
ATOM     30  C   UNL     1      -2.869  11.187  -3.904  0.00  0.00    +0.041 A 
ATOM     31  C   UNL     1      -4.185  10.776  -4.015  0.00  0.00    +0.022 A 
ATOM     32  C   UNL     1      -5.021  10.832  -2.915  0.00  0.00    +0.030 A 
ATOM     33 CL   UNL     1      -1.819  11.117  -5.285  0.00  0.00    -0.084 Cl
ENDBRANCH  24  27
ENDBRANCH  21  24
ENDBRANCH  14  18
BRANCH   1  34
ATOM     34  C   UNL     1      -4.609   2.307  -1.505  0.00  0.00    +0.323 C 
ATOM     35  O   UNL     1      -4.203   3.135  -2.286  0.00  0.00    -0.250 OA
BRANCH  34  36
ATOM     36  O   UNL     1      -5.273   1.230  -1.953  0.00  0.00    -0.464 OA
BRANCH  36  38
ATOM     37  C   UNL     1      -6.239  -0.157  -3.707  0.00  0.00    +0.048 C 
ATOM     38  C   UNL     1      -5.467   1.125  -3.388  0.00  0.00    +0.229 C 
ENDBRANCH  36  38
ENDBRANCH  34  36
ENDBRANCH   1  34
TORSDOF 6
