REMARK  Name = ZINC03320340
REMARK  8 active torsions:
REMARK  status: ('A' for Active; 'I' for Inactive)
REMARK    1  A    between atoms: C_1  and  C_2
REMARK    2  A    between atoms: C_5  and  N_9
REMARK    3  A    between atoms: C_6  and  C_8
REMARK    4  A    between atoms: C_10  and  N_21
REMARK    5  A    between atoms: C_11  and  C_15
REMARK    6  A    between atoms: N_17  and  C_18
REMARK    7  A    between atoms: C_18  and  C_19
REMARK    8  A    between atoms: C_18  and  C_20
REMARK                            x       y       z     vdW  Elec       q    Type
REMARK                         _______ _______ _______ _____ _____    ______ ____
ROOT
ATOM      1  N   UNL     1       2.398   1.532  -0.013  0.00  0.00    -0.285 N 
ATOM      2  C   UNL     1       3.001   1.196   1.147  0.00  0.00    +0.121 A 
ATOM      3  C   UNL     1       4.199   0.528   1.075  0.00  0.00    +0.114 A 
ATOM      4  S   UNL     1       4.429   0.400  -0.690  0.00  0.00    -0.055 S 
ATOM      5  C   UNL     1       2.976   1.204  -1.189  0.00  0.00    +0.132 A 
ATOM      6  S   UNL     1       2.414   1.509  -2.777  0.00  0.00    -0.024 S 
ENDROOT
BRANCH   1  11
ATOM      7  C   UNL     1      -2.559   4.294   0.050  0.00  0.00    +0.044 C 
ATOM      8  C   UNL     1      -1.243   3.560   0.033  0.00  0.00    -0.050 A 
ATOM      9  C   UNL     1      -0.057   4.271   0.026  0.00  0.00    +0.005 A 
ATOM     10  C   UNL     1       1.151   3.602   0.011  0.00  0.00    +0.027 A 
ATOM     11  C   UNL     1       1.174   2.214   0.003  0.00  0.00    +0.052 A 
ATOM     12  C   UNL     1      -0.018   1.503   0.010  0.00  0.00    -0.026 A 
ATOM     13  C   UNL     1      -1.224   2.178   0.020  0.00  0.00    +0.008 A 
ATOM     14  C   UNL     1       0.002  -0.004   0.002  0.00  0.00    +0.046 C 
ENDBRANCH   1  11
BRANCH   3  15
ATOM     15  C   UNL     1       5.028   0.065   2.120  0.00  0.00    +0.254 C 
ATOM     16  O   UNL     1       4.703   0.246   3.280  0.00  0.00    -0.270 OA
ATOM     17  N   UNL     1       6.178  -0.576   1.834  0.00  0.00    -0.308 N 
ATOM     18  H   UNL     1       6.436  -0.720   0.910  0.00  0.00    +0.149 HD
BRANCH  17  19
ATOM     19  C   UNL     1       7.038  -1.056   2.918  0.00  0.00    +0.067 C 
ATOM     20  C   UNL     1       6.557  -2.433   3.380  0.00  0.00    +0.027 C 
ATOM     21  C   UNL     1       8.480  -1.162   2.417  0.00  0.00    +0.027 C 
ENDBRANCH  17  19
ENDBRANCH   3  15
BRANCH   2  22
ATOM     22  N   UNL     1       2.434   1.511   2.362  0.00  0.00    -0.343 N 
ATOM     23  H   UNL     1       1.587   1.983   2.394  0.00  0.00    +0.144 HD
ATOM     24  H   UNL     1       2.881   1.262   3.186  0.00  0.00    +0.144 HD
ENDBRANCH   2  22
TORSDOF 4
