REMARK  Name = ZINC12292119
REMARK  8 active torsions:
REMARK  status: ('A' for Active; 'I' for Inactive)
REMARK    1  A    between atoms: C_1  and  O_2
REMARK    2  A    between atoms: O_2  and  C_3
REMARK    3  A    between atoms: C_6  and  C_9
REMARK    4  A    between atoms: C_9  and  O_28
REMARK    5  A    between atoms: C_14  and  C_15
REMARK    6  A    between atoms: C_14  and  N_55
REMARK    7  A    between atoms: C_15  and  C_17
REMARK    8  A    between atoms: C_15  and  O_27
REMARK                            x       y       z     vdW  Elec       q    Type
REMARK                         _______ _______ _______ _____ _____    ______ ____
ROOT
ATOM      1  C   UNL     1      -8.190  -2.508   1.644  0.00  0.00    +0.088 C 
ATOM      2  C   UNL     1      -7.095  -3.054   2.565  0.00  0.00    +0.021 C 
ATOM      3  C   UNL     1      -5.972  -2.021   2.683  0.00  0.00    -0.076 C 
ATOM      4  C   UNL     1      -6.443  -1.171   0.464  0.00  0.00    -0.076 C 
ATOM      5  C   UNL     1      -7.580  -2.178   0.279  0.00  0.00    +0.021 C 
ATOM      6  N   UNL     1      -5.412  -1.766   1.339  0.00  0.00    +0.382 N 
ATOM      7  H   UNL     1      -5.103  -2.657   0.932  0.00  0.00    -0.082 HD
ENDROOT
BRANCH   1  11
ATOM      8  C   UNL     1     -11.256  -5.446   1.171  0.00  0.00    +0.120 A 
ATOM      9  C   UNL     1     -11.570  -4.097   1.102  0.00  0.00    +0.046 A 
ATOM     10  C   UNL     1     -10.577  -3.149   1.255  0.00  0.00    +0.010 A 
ATOM     11  C   UNL     1      -9.271  -3.544   1.478  0.00  0.00    -0.016 A 
ATOM     12  C   UNL     1      -8.955  -4.888   1.541  0.00  0.00    +0.010 A 
ATOM     13  C   UNL     1      -9.945  -5.840   1.394  0.00  0.00    +0.046 A 
BRANCH   8  15
ATOM     14  C   UNL     1     -11.835  -7.751   1.104  0.00  0.00    +0.277 C 
ATOM     15  O   UNL     1     -12.232  -6.381   1.021  0.00  0.00    -0.495 OA
ENDBRANCH   8  15
ENDBRANCH   1  11
BRANCH   1  16
ATOM     16  O   UNL     1      -8.748  -1.323   2.217  0.00  0.00    -0.384 OA
ATOM     17  H   UNL     1      -9.449  -0.922   1.685  0.00  0.00    +0.211 HD
ENDBRANCH   1  16
BRANCH   6  18
ATOM     18  C   UNL     1      -4.250  -0.858   1.441  0.00  0.00    -0.042 C 
BRANCH  18  19
ATOM     19  C   UNL     1      -3.044  -1.661   1.932  0.00  0.00    +0.128 C 
BRANCH  19  20
ATOM     20  C   UNL     1      -1.845  -0.753   2.036  0.00  0.00    -0.017 A 
ATOM     21  C   UNL     1      -1.125  -0.428   0.902  0.00  0.00    +0.010 A 
ATOM     22  C   UNL     1      -0.023   0.401   0.994  0.00  0.00    +0.050 A 
ATOM     23  C   UNL     1       0.359   0.914   2.224  0.00  0.00    +0.162 A 
ATOM     24  C   UNL     1      -0.366   0.590   3.364  0.00  0.00    +0.162 A 
ATOM     25  C   UNL     1      -1.469  -0.246   3.266  0.00  0.00    +0.055 A 
ATOM     26  O   UNL     1      -0.009   1.083   4.582  0.00  0.00    -0.485 OA
ATOM     27  C   UNL     1       1.317   1.611   4.698  0.00  0.00    +0.270 C 
ATOM     28  C   UNL     1       1.581   2.517   3.487  0.00  0.00    +0.270 C 
ATOM     29  O   UNL     1       1.448   1.728   2.300  0.00  0.00    -0.485 OA
ENDBRANCH  19  20
BRANCH  19  30
ATOM     30  O   UNL     1      -2.764  -2.714   1.008  0.00  0.00    -0.389 OA
ATOM     31  H   UNL     1      -2.559  -2.409   0.114  0.00  0.00    +0.210 HD
ENDBRANCH  19  30
ENDBRANCH  18  19
ENDBRANCH   6  18
TORSDOF 7
