REMARK  Name = ZINC12691969
REMARK  9 active torsions:
REMARK  status: ('A' for Active; 'I' for Inactive)
REMARK    1  A    between atoms: C_1  and  O_2
REMARK    2  A    between atoms: O_2  and  C_3
REMARK    3  A    between atoms: C_6  and  C_9
REMARK    4  A    between atoms: C_9  and  C_11
REMARK    5  A    between atoms: C_9  and  N_17
REMARK    6  A    between atoms: C_18  and  C_20
REMARK    7  A    between atoms: C_20  and  N_65
REMARK    8  A    between atoms: C_23  and  C_26
REMARK    9  A    between atoms: N_28  and  C_29
REMARK                            x       y       z     vdW  Elec       q    Type
REMARK                         _______ _______ _______ _____ _____    ______ ____
ROOT
ATOM      1  N   UNL     1       4.487   4.713   1.916  0.00  0.00    -0.306 N 
ATOM      2  C   UNL     1       3.278   4.118   1.876  0.00  0.00    +0.197 C 
ATOM      3  O   UNL     1       2.274   4.790   1.770  0.00  0.00    -0.278 OA
ATOM      4  H   UNL     1       5.290   4.176   2.001  0.00  0.00    +0.150 HD
ENDROOT
BRANCH   1   5
ATOM      5  C   UNL     1       4.588   6.172   1.831  0.00  0.00    +0.133 C 
BRANCH   5   9
ATOM      6  C   UNL     1       8.213   7.460   3.692  0.00  0.00    +0.120 A 
ATOM      7  C   UNL     1       7.045   8.189   3.866  0.00  0.00    +0.046 A 
ATOM      8  C   UNL     1       5.875   7.771   3.263  0.00  0.00    +0.009 A 
ATOM      9  C   UNL     1       5.866   6.627   2.487  0.00  0.00    -0.023 A 
ATOM     10  C   UNL     1       7.027   5.895   2.317  0.00  0.00    +0.009 A 
ATOM     11  C   UNL     1       8.201   6.312   2.912  0.00  0.00    +0.046 A 
BRANCH   6  13
ATOM     12  C   UNL     1      10.529   7.070   4.061  0.00  0.00    +0.277 C 
ATOM     13  O   UNL     1       9.366   7.869   4.284  0.00  0.00    -0.495 OA
ENDBRANCH   6  13
ENDBRANCH   5   9
BRANCH   5  14
ATOM     14  C   UNL     1       4.589   6.592   0.384  0.00  0.00    -0.023 A 
ATOM     15  C   UNL     1       5.295   5.856  -0.549  0.00  0.00    +0.006 A 
ATOM     16  C   UNL     1       5.293   6.238  -1.877  0.00  0.00    +0.000 A 
ATOM     17  C   UNL     1       4.592   7.363  -2.271  0.00  0.00    +0.000 A 
ATOM     18  C   UNL     1       3.890   8.102  -1.338  0.00  0.00    +0.000 A 
ATOM     19  C   UNL     1       3.889   7.717  -0.010  0.00  0.00    +0.006 A 
ENDBRANCH   5  14
ENDBRANCH   1   5
BRANCH   2  20
ATOM     20  C   UNL     1       3.175   2.617   1.964  0.00  0.00    +0.019 C 
BRANCH  20  26
ATOM     21  C   UNL     1       1.603   0.777   1.874  0.00  0.00    -0.077 C 
ATOM     22  C   UNL     1       0.115   0.427   1.816  0.00  0.00    -0.006 C 
ATOM     23  C   UNL     1      -0.563   0.885   3.110  0.00  0.00    +0.072 C 
ATOM     24  C   UNL     1      -0.344   2.391   3.287  0.00  0.00    -0.006 C 
ATOM     25  C   UNL     1       1.158   2.684   3.302  0.00  0.00    -0.077 C 
ATOM     26  N   UNL     1       1.747   2.242   2.020  0.00  0.00    +0.385 N 
ATOM     27  H   UNL     1       1.250   2.704   1.249  0.00  0.00    -0.081 HD
BRANCH  23  28
ATOM     28  C   UNL     1      -2.040   0.598   3.034  0.00  0.00    +0.220 C 
ATOM     29  O   UNL     1      -2.507   0.077   2.043  0.00  0.00    -0.275 OA
ATOM     30  N   UNL     1      -2.843   0.918   4.068  0.00  0.00    -0.285 N 
ATOM     31  H   UNL     1      -2.485   1.402   4.829  0.00  0.00    +0.155 HD
BRANCH  30  32
ATOM     32  C   UNL     1      -4.194   0.554   4.044  0.00  0.00    +0.033 A 
ATOM     33  C   UNL     1      -5.145   1.366   4.649  0.00  0.00    +0.023 A 
ATOM     34  C   UNL     1      -6.478   1.005   4.619  0.00  0.00    +0.002 A 
ATOM     35  C   UNL     1      -6.865  -0.168   3.998  0.00  0.00    +0.000 A 
ATOM     36  C   UNL     1      -5.920  -0.981   3.399  0.00  0.00    +0.002 A 
ATOM     37  C   UNL     1      -4.586  -0.624   3.421  0.00  0.00    +0.023 A 
ENDBRANCH  30  32
ENDBRANCH  23  28
ENDBRANCH  20  26
ENDBRANCH   2  20
TORSDOF 8
