REMARK  Name = ZINC09159190
REMARK  5 active torsions:
REMARK  status: ('A' for Active; 'I' for Inactive)
REMARK    1  A    between atoms: C_1  and  O_2
REMARK    2  A    between atoms: O_2  and  C_3
REMARK    3  A    between atoms: C_8  and  N_9
REMARK    4  A    between atoms: C_10  and  C_12
REMARK    5  A    between atoms: N_30  and  C_33
REMARK                            x       y       z     vdW  Elec       q    Type
REMARK                         _______ _______ _______ _____ _____    ______ ____
ROOT
ATOM      1  C   UNL     1       4.821   4.646   0.202  0.00  0.00    +0.156 C 
ATOM      2  C   UNL     1       5.263   5.137  -1.193  0.00  0.00    +0.118 C 
ATOM      3  C   UNL     1       6.159   3.977  -1.722  0.00  0.00    +0.113 C 
ATOM      4  C   UNL     1       6.616   3.222  -0.472  0.00  0.00    +0.100 C 
ATOM      5  C   UNL     1       6.274   3.538   1.996  0.00  0.00    +0.054 C 
ATOM      6  C   UNL     1       7.593   3.384   2.225  0.00  0.00    +0.022 C 
ATOM      7  C   UNL     1       8.542   3.507   1.101  0.00  0.00    -0.019 A 
ATOM      8  C   UNL     1       8.088   3.424  -0.221  0.00  0.00    -0.021 A 
ATOM      9  C   UNL     1       8.977   3.526  -1.266  0.00  0.00    +0.006 A 
ATOM     10  C   UNL     1      10.325   3.717  -1.012  0.00  0.00    +0.000 A 
ATOM     11  C   UNL     1      10.783   3.804   0.291  0.00  0.00    +0.001 A 
ATOM     12  C   UNL     1       9.902   3.700   1.348  0.00  0.00    +0.008 A 
ATOM     13  C   UNL     1       5.167   3.136  -2.500  0.00  0.00    +0.232 C 
ATOM     14  O   UNL     1       5.331   1.985  -2.843  0.00  0.00    -0.274 OA
ATOM     15  N   UNL     1       4.077   3.879  -2.746  0.00  0.00    -0.210 N 
ATOM     16  C   UNL     1       4.076   5.072  -2.134  0.00  0.00    +0.232 C 
ATOM     17  O   UNL     1       3.261   5.954  -2.304  0.00  0.00    -0.274 OA
ATOM     18  N   UNL     1       5.690   3.506   0.593  0.00  0.00    -0.383 NA
ATOM     19  H   UNL     1       5.062   2.694   0.611  0.00  0.00    +0.127 HD
ENDROOT
BRANCH  15  20
ATOM     20  C   UNL     1       3.030   3.445  -3.572  0.00  0.00    +0.044 A 
ATOM     21  C   UNL     1       3.040   2.156  -4.087  0.00  0.00    +0.027 A 
ATOM     22  C   UNL     1       2.005   1.728  -4.896  0.00  0.00    +0.040 A 
ATOM     23  C   UNL     1       0.964   2.589  -5.202  0.00  0.00    +0.124 A 
ATOM     24  C   UNL     1       0.956   3.877  -4.694  0.00  0.00    +0.040 A 
ATOM     25  C   UNL     1       1.986   4.306  -3.881  0.00  0.00    +0.027 A 
ATOM     26  F   UNL     1      -0.045   2.171  -5.997  0.00  0.00    -0.205 F 
ENDBRANCH  15  20
BRANCH   1  28
ATOM     27  N   UNL     1       2.358   4.510   0.015  0.00  0.00    -0.281 N 
ATOM     28  C   UNL     1       3.538   3.863   0.094  0.00  0.00    +0.237 C 
ATOM     29  O   UNL     1       3.567   2.650   0.078  0.00  0.00    -0.273 OA
ATOM     30  H   UNL     1       2.338   5.478  -0.037  0.00  0.00    +0.155 HD
BRANCH  27  36
ATOM     31  C   UNL     1       0.024   4.305   0.622  0.00  0.00    +0.141 A 
ATOM     32  C   UNL     1      -1.159   3.583   0.613  0.00  0.00    +0.049 A 
ATOM     33  C   UNL     1      -1.211   2.349  -0.009  0.00  0.00    +0.024 A 
ATOM     34  C   UNL     1      -0.081   1.827  -0.614  0.00  0.00    +0.043 A 
ATOM     35  C   UNL     1       1.102   2.543  -0.609  0.00  0.00    +0.047 A 
ATOM     36  C   UNL     1       1.160   3.783   0.008  0.00  0.00    +0.077 A 
ATOM     37 CL   UNL     1      -0.152   0.275  -1.388  0.00  0.00    -0.083 Cl
BRANCH  31  39
ATOM     38  C   UNL     1      -1.129   5.993   1.838  0.00  0.00    +0.277 C 
ATOM     39  O   UNL     1       0.075   5.521   1.229  0.00  0.00    -0.493 OA
ENDBRANCH  31  39
ENDBRANCH  27  36
ENDBRANCH   1  28
TORSDOF 4
