REMARK  Name = ZINC36648091
REMARK  11 active torsions:
REMARK  status: ('A' for Active; 'I' for Inactive)
REMARK    1  A    between atoms: C_1  and  C_2
REMARK    2  A    between atoms: C_5  and  C_35
REMARK    3  A    between atoms: N_11  and  C_12
REMARK    4  A    between atoms: C_12  and  C_13
REMARK    5  A    between atoms: C_13  and  C_14
REMARK    6  A    between atoms: C_14  and  N_15
REMARK    7  A    between atoms: N_15  and  C_16
REMARK    8  A    between atoms: N_15  and  C_17
REMARK    9  A    between atoms: C_18  and  C_20
REMARK   10  A    between atoms: N_26  and  S_27
REMARK   11  A    between atoms: S_27  and  C_30
REMARK                            x       y       z     vdW  Elec       q    Type
REMARK                         _______ _______ _______ _____ _____    ______ ____
ROOT
ATOM      1  C   UNL     1      -0.023   1.091   0.101  0.00  0.00    +0.046 C 
ATOM      2  C   UNL     1       0.080  -0.412   0.149  0.00  0.00    -0.024 A 
ATOM      3  C   UNL     1       0.086  -1.129  -1.019  0.00  0.00    +0.006 A 
ATOM      4  C   UNL     1       0.179  -2.513  -1.019  0.00  0.00    +0.005 A 
ATOM      5  C   UNL     1       0.269  -3.186   0.185  0.00  0.00    -0.035 A 
ATOM      6  C   UNL     1       0.264  -2.477   1.360  0.00  0.00    +0.044 A 
ATOM      7  C   UNL     1       0.176  -1.066   1.399  0.00  0.00    +0.083 A 
ATOM      8  N   UNL     1       0.189  -0.513   2.631  0.00  0.00    -0.224 NA
ATOM      9  C   UNL     1       0.282  -1.231   3.726  0.00  0.00    +0.168 A 
ATOM     10  S   UNL     1       0.356  -2.898   3.084  0.00  0.00    -0.052 S 
ATOM     11  N   UNL     1       0.307  -0.806   5.044  0.00  0.00    -0.249 N 
ATOM     12  C   UNL     1       0.231   0.508   5.330  0.00  0.00    +0.240 C 
ATOM     13  O   UNL     1       0.056   1.313   4.440  0.00  0.00    -0.273 OA
ATOM     14  C   UNL     1       0.371  -4.690   0.208  0.00  0.00    +0.045 C 
ENDROOT
BRANCH  12  15
ATOM     15  C   UNL     1       0.363   0.979   6.756  0.00  0.00    +0.166 C 
ATOM     16  C   UNL     1      -0.954   1.617   7.210  0.00  0.00    +0.030 C 
ATOM     17  C   UNL     1      -0.770   2.215   8.607  0.00  0.00    +0.003 C 
ATOM     18  C   UNL     1       0.303   3.305   8.559  0.00  0.00    +0.017 C 
ATOM     19  C   UNL     1       1.634   2.686   8.120  0.00  0.00    +0.110 C 
ATOM     20  N   UNL     1       1.433   1.981   6.847  0.00  0.00    -0.164 NA
BRANCH  20  21
ATOM     21  S   UNL     1       2.393   2.312   5.538  0.00  0.00    +0.068 S 
ATOM     22  O   UNL     1       3.618   2.818   6.050  0.00  0.00    -0.152 OA
ATOM     23  O   UNL     1       2.333   1.172   4.692  0.00  0.00    -0.152 OA
BRANCH  21  24
ATOM     24  C   UNL     1       1.632   3.635   4.656  0.00  0.00    +0.143 A 
ATOM     25  C   UNL     1       1.810   4.971   4.799  0.00  0.00    +0.036 A 
ATOM     26  C   UNL     1       1.098   5.833   3.987  0.00  0.00    +0.010 A 
ATOM     27  C   UNL     1       0.242   5.317   3.072  0.00  0.00    +0.047 A 
ATOM     28  S   UNL     1       0.431   3.562   3.337  0.00  0.00    -0.077 S 
ENDBRANCH  21  24
ENDBRANCH  20  21
ENDBRANCH  12  15
BRANCH  11  29
ATOM     29  C   UNL     1       0.417  -1.786   6.128  0.00  0.00    +0.114 C 
BRANCH  29  30
ATOM     30  C   UNL     1       1.894  -2.073   6.408  0.00  0.00    +0.001 C 
BRANCH  30  31
ATOM     31  C   UNL     1       2.009  -3.096   7.540  0.00  0.00    -0.078 C 
BRANCH  31  32
ATOM     32  N   UNL     1       3.426  -3.371   7.809  0.00  0.00    +0.376 N 
ATOM     33  C   UNL     1       3.540  -4.261   8.973  0.00  0.00    -0.097 C 
ATOM     34  C   UNL     1       4.031  -4.018   6.637  0.00  0.00    -0.097 C 
ATOM     35  H   UNL     1       3.907  -2.504   8.000  0.00  0.00    -0.083 HD
ENDBRANCH  31  32
ENDBRANCH  30  31
ENDBRANCH  29  30
ENDBRANCH  11  29
TORSDOF 7
