REMARK  Name = ZINC14005141
REMARK  9 active torsions:
REMARK  status: ('A' for Active; 'I' for Inactive)
REMARK    1  A    between atoms: C_1  and  C_2
REMARK    2  A    between atoms: C_6  and  C_31
REMARK    3  A    between atoms: C_7  and  N_8
REMARK    4  A    between atoms: N_8  and  S_9
REMARK    5  A    between atoms: S_9  and  C_12
REMARK    6  A    between atoms: C_15  and  N_18
REMARK    7  A    between atoms: N_18  and  C_19
REMARK    8  A    between atoms: C_19  and  N_21
REMARK    9  A    between atoms: C_22  and  C_24
REMARK                            x       y       z     vdW  Elec       q    Type
REMARK                         _______ _______ _______ _____ _____    ______ ____
ROOT
ATOM      1  C   UNL     1      -7.131   0.026  -0.126  0.00  0.00    +0.109 A 
ATOM      2  C   UNL     1      -7.643   1.309  -0.182  0.00  0.00    +0.030 A 
ATOM      3  C   UNL     1      -6.808   2.377  -0.445  0.00  0.00    +0.025 A 
ATOM      4  C   UNL     1      -5.452   2.161  -0.655  0.00  0.00    +0.033 A 
ATOM      5  C   UNL     1      -4.941   0.870  -0.603  0.00  0.00    +0.025 A 
ATOM      6  C   UNL     1      -5.781  -0.193  -0.334  0.00  0.00    +0.030 A 
ENDROOT
BRANCH   1   7
ATOM      7  S   UNL     1      -8.200  -1.333   0.210  0.00  0.00    +0.072 S 
ATOM      8  O   UNL     1      -7.407  -2.327   0.844  0.00  0.00    -0.150 OA
ATOM      9  O   UNL     1      -9.368  -0.792   0.814  0.00  0.00    -0.150 OA
BRANCH   7  10
ATOM     10  N   UNL     1      -8.669  -1.961  -1.249  0.00  0.00    -0.216 N 
ATOM     11  H   UNL     1      -9.566  -1.798  -1.581  0.00  0.00    +0.174 HD
BRANCH  10  18
ATOM     12  C   UNL     1      -7.520  -0.779  -3.568  0.00  0.00    +0.046 C 
ATOM     13  C   UNL     1      -7.188  -2.186  -3.141  0.00  0.00    -0.028 A 
ATOM     14  C   UNL     1      -6.299  -2.941  -3.881  0.00  0.00    +0.005 A 
ATOM     15  C   UNL     1      -5.998  -4.234  -3.493  0.00  0.00    +0.001 A 
ATOM     16  C   UNL     1      -6.582  -4.773  -2.361  0.00  0.00    +0.005 A 
ATOM     17  C   UNL     1      -7.468  -4.022  -1.615  0.00  0.00    -0.028 A 
ATOM     18  C   UNL     1      -7.773  -2.723  -2.001  0.00  0.00    +0.054 A 
ATOM     19  C   UNL     1      -8.104  -4.611  -0.382  0.00  0.00    +0.046 C 
ENDBRANCH  10  18
ENDBRANCH   7  10
ENDBRANCH   1   7
BRANCH   4  20
ATOM     20  N   UNL     1      -4.603   3.240  -0.922  0.00  0.00    -0.297 N 
ATOM     21  H   UNL     1      -3.946   3.175  -1.633  0.00  0.00    +0.154 HD
BRANCH  20  22
ATOM     22  C   UNL     1      -4.698   4.369  -0.193  0.00  0.00    +0.141 C 
ATOM     23  S   UNL     1      -5.924   4.522   0.993  0.00  0.00    -0.018 S 
BRANCH  22  24
ATOM     24  N   UNL     1      -3.829   5.378  -0.397  0.00  0.00    -0.264 N 
ATOM     25  C   UNL     1      -3.924   6.508   0.332  0.00  0.00    +0.250 C 
ATOM     26  O   UNL     1      -4.794   6.616   1.174  0.00  0.00    -0.270 OA
ATOM     27  H   UNL     1      -3.134   5.292  -1.069  0.00  0.00    +0.157 HD
BRANCH  25  28
ATOM     28  C   UNL     1      -2.967   7.612   0.113  0.00  0.00    +0.038 A 
ATOM     29  C   UNL     1      -1.963   7.489  -0.850  0.00  0.00    +0.013 A 
ATOM     30  C   UNL     1      -1.076   8.525  -1.054  0.00  0.00    +0.002 A 
ATOM     31  C   UNL     1      -1.172   9.681  -0.300  0.00  0.00    +0.020 A 
ATOM     32  C   UNL     1      -2.162   9.809   0.659  0.00  0.00    +0.042 A 
ATOM     33  C   UNL     1      -3.059   8.781   0.870  0.00  0.00    +0.033 A 
ATOM     34 CL   UNL     1      -2.274  11.263   1.601  0.00  0.00    -0.084 Cl
ENDBRANCH  25  28
ENDBRANCH  22  24
ENDBRANCH  20  22
ENDBRANCH   4  20
TORSDOF 7
