REMARK  Name = ZINC65006615
REMARK  11 active torsions:
REMARK  status: ('A' for Active; 'I' for Inactive)
REMARK    1  A    between atoms: C_1  and  C_2
REMARK    2  A    between atoms: C_5  and  C_8
REMARK    3  A    between atoms: C_10  and  C_36
REMARK    4  A    between atoms: C_11  and  C_13
REMARK    5  A    between atoms: C_18  and  C_21
REMARK    6  A    between atoms: C_21  and  C_23
REMARK    7  A    between atoms: C_21  and  C_24
REMARK    8  A    between atoms: N_26  and  C_27
REMARK    9  A    between atoms: C_27  and  C_28
REMARK   10  A    between atoms: C_28  and  N_29
REMARK   11  A    between atoms: N_32  and  C_35
REMARK                            x       y       z     vdW  Elec       q    Type
REMARK                         _______ _______ _______ _____ _____    ______ ____
ROOT
ATOM      1  C   UNL     1       0.113  -8.216   0.881  0.00  0.00    +0.255 C 
ATOM      2  O   UNL     1       0.204  -7.073   0.475  0.00  0.00    -0.269 OA
ATOM      3  N   UNL     1       0.014  -8.455   2.204  0.00  0.00    -0.297 N 
ATOM      4  C   UNL     1      -0.118  -7.345   3.157  0.00  0.00    +0.108 C 
ATOM      5  C   UNL     1       0.972  -7.480   4.226  0.00  0.00    +0.023 C 
ATOM      6  C   UNL     1       0.887  -8.869   4.862  0.00  0.00    +0.004 C 
ATOM      7  C   UNL     1       1.124  -9.938   3.793  0.00  0.00    +0.023 C 
ATOM      8  C   UNL     1       0.030  -9.831   2.719  0.00  0.00    +0.108 C 
ENDROOT
BRANCH   1  12
ATOM      9  C   UNL     1      -0.196 -11.542  -1.440  0.00  0.00    +0.109 A 
ATOM     10  N   UNL     1       0.586 -10.591  -1.924  0.00  0.00    -0.243 NA
ATOM     11  C   UNL     1       0.775  -9.470  -1.281  0.00  0.00    +0.058 A 
ATOM     12  C   UNL     1       0.111  -9.334  -0.068  0.00  0.00    +0.097 A 
ATOM     13  S   UNL     1      -0.750 -10.896   0.012  0.00  0.00    -0.062 S 
ATOM     14  C   UNL     1       1.665  -8.382  -1.825  0.00  0.00    +0.067 C 
BRANCH   9  19
ATOM     15  C   UNL     1      -1.427 -16.662  -3.760  0.00  0.00    +0.044 C 
ATOM     16  C   UNL     1      -1.104 -15.321  -3.152  0.00  0.00    -0.050 A 
ATOM     17  C   UNL     1      -0.251 -14.454  -3.811  0.00  0.00    +0.004 A 
ATOM     18  C   UNL     1       0.048 -13.225  -3.260  0.00  0.00    +0.011 A 
ATOM     19  C   UNL     1      -0.512 -12.857  -2.036  0.00  0.00    +0.007 A 
ATOM     20  C   UNL     1      -1.372 -13.737  -1.376  0.00  0.00    +0.011 A 
ATOM     21  C   UNL     1      -1.667 -14.961  -1.940  0.00  0.00    +0.004 A 
ENDBRANCH   9  19
ENDBRANCH   1  12
BRANCH   6  22
ATOM     22  C   UNL     1       1.952  -8.995   5.954  0.00  0.00    +0.075 C 
ATOM     23  C   UNL     1       1.714  -7.928   7.024  0.00  0.00    +0.017 C 
BRANCH  22  24
ATOM     24  C   UNL     1       1.869 -10.363   6.581  0.00  0.00    +0.216 C 
ATOM     25  O   UNL     1       1.039 -11.159   6.194  0.00  0.00    -0.276 OA
ATOM     26  N   UNL     1       2.716 -10.702   7.573  0.00  0.00    -0.314 N 
ATOM     27  H   UNL     1       3.379 -10.066   7.883  0.00  0.00    +0.149 HD
BRANCH  26  28
ATOM     28  C   UNL     1       2.635 -12.032   8.183  0.00  0.00    +0.119 C 
BRANCH  28  29
ATOM     29  C   UNL     1       3.700 -12.158   9.274  0.00  0.00    +0.103 C 
BRANCH  29  30
ATOM     30  N   UNL     1       3.619 -13.491   9.886  0.00  0.00    -0.304 NA
ATOM     31  C   UNL     1       2.355 -13.659  10.617  0.00  0.00    +0.066 C 
ATOM     32  C   UNL     1       2.284 -15.077  11.187  0.00  0.00    -0.064 C 
ATOM     33  N   UNL     1       3.423 -15.302  12.086  0.00  0.00    +0.379 N 
ATOM     34  C   UNL     1       4.677 -15.154  11.336  0.00  0.00    -0.064 C 
ATOM     35  C   UNL     1       4.768 -13.737  10.768  0.00  0.00    +0.066 C 
ATOM     36  C   UNL     1       3.344 -16.657  12.647  0.00  0.00    -0.096 C 
ATOM     37  H   UNL     1       3.398 -14.626  12.835  0.00  0.00    -0.082 HD
ENDBRANCH  29  30
ENDBRANCH  28  29
ENDBRANCH  26  28
ENDBRANCH  22  24
ENDBRANCH   6  22
TORSDOF 7
