REMARK  Name = ZINC06771089
REMARK  9 active torsions:
REMARK  status: ('A' for Active; 'I' for Inactive)
REMARK    1  A    between atoms: C_1  and  C_2
REMARK    2  A    between atoms: C_3  and  S_9
REMARK    3  A    between atoms: C_4  and  C_8
REMARK    4  A    between atoms: S_9  and  N_12
REMARK    5  A    between atoms: C_16  and  C_19
REMARK    6  A    between atoms: N_21  and  C_22
REMARK    7  A    between atoms: C_25  and  C_28
REMARK    8  A    between atoms: C_28  and  C_29
REMARK    9  A    between atoms: C_28  and  C_30
REMARK                            x       y       z     vdW  Elec       q    Type
REMARK                         _______ _______ _______ _____ _____    ______ ____
ROOT
ATOM      1  N   UNL     1       1.543  -0.080  -3.302  0.00  0.00    -0.176 NA
ATOM      2  C   UNL     1       2.244   1.201  -3.140  0.00  0.00    +0.109 C 
ATOM      3  C   UNL     1       3.555   0.948  -2.381  0.00  0.00    +0.018 C 
ATOM      4  C   UNL     1       4.365  -0.124  -3.116  0.00  0.00    +0.015 C 
ATOM      5  C   UNL     1       3.569  -1.431  -3.153  0.00  0.00    +0.091 C 
ATOM      6  C   UNL     1       2.260  -1.206  -3.916  0.00  0.00    +0.122 C 
ENDROOT
BRANCH   5   7
ATOM      7  C   UNL     1       4.380  -2.494  -3.848  0.00  0.00    +0.222 C 
ATOM      8  O   UNL     1       3.954  -3.020  -4.854  0.00  0.00    -0.275 OA
ATOM      9  N   UNL     1       5.579  -2.859  -3.352  0.00  0.00    -0.285 N 
ATOM     10  H   UNL     1       5.950  -2.393  -2.587  0.00  0.00    +0.155 HD
BRANCH   9  11
ATOM     11  C   UNL     1       6.288  -3.912  -3.940  0.00  0.00    +0.033 A 
ATOM     12  C   UNL     1       7.055  -4.760  -3.153  0.00  0.00    +0.023 A 
ATOM     13  C   UNL     1       7.750  -5.801  -3.736  0.00  0.00    +0.006 A 
ATOM     14  C   UNL     1       7.691  -5.993  -5.104  0.00  0.00    -0.045 A 
ATOM     15  C   UNL     1       6.932  -5.147  -5.892  0.00  0.00    +0.006 A 
ATOM     16  C   UNL     1       6.231  -4.108  -5.314  0.00  0.00    +0.023 A 
BRANCH  14  17
ATOM     17  C   UNL     1       8.456  -7.127  -5.738  0.00  0.00    +0.013 C 
ATOM     18  C   UNL     1       9.949  -6.958  -5.452  0.00  0.00    +0.012 C 
ATOM     19  C   UNL     1       7.972  -8.457  -5.156  0.00  0.00    +0.012 C 
ENDBRANCH  14  17
ENDBRANCH   9  11
ENDBRANCH   5   7
BRANCH   1  20
ATOM     20  S   UNL     1      -0.029  -0.249  -2.808  0.00  0.00    +0.064 S 
ATOM     21  O   UNL     1      -0.581  -1.314  -3.569  0.00  0.00    -0.153 OA
ATOM     22  O   UNL     1      -0.595   1.055  -2.800  0.00  0.00    -0.153 OA
BRANCH  20  25
ATOM     23  C   UNL     1       0.036  -3.301  -1.596  0.00  0.00    +0.067 C 
ATOM     24  C   UNL     1       0.033  -2.079  -0.714  0.00  0.00    +0.060 A 
ATOM     25  C   UNL     1       0.007  -0.793  -1.133  0.00  0.00    +0.148 A 
ATOM     26  C   UNL     1       0.017   0.029  -0.001  0.00  0.00    +0.086 A 
ATOM     27  N   UNL     1       0.039  -0.737   1.060  0.00  0.00    -0.177 NA
ATOM     28  N   UNL     1       0.049  -2.072   0.636  0.00  0.00    -0.280 N 
ATOM     29  H   UNL     1       0.065  -2.877   1.228  0.00  0.00    +0.189 HD
ATOM     30  C   UNL     1      -0.000   1.536  -0.003  0.00  0.00    +0.069 C 
ENDBRANCH  20  25
ENDBRANCH   1  20
TORSDOF 5
