REMARK  Name = ZINC13686131
REMARK  8 active torsions:
REMARK  status: ('A' for Active; 'I' for Inactive)
REMARK    1  A    between atoms: C_1  and  C_2
REMARK    2  A    between atoms: C_2  and  C_3
REMARK    3  A    between atoms: C_2  and  C_4
REMARK    4  A    between atoms: C_7  and  N_10
REMARK    5  A    between atoms: N_22  and  C_23
REMARK    6  A    between atoms: C_24  and  C_25
REMARK    7  A    between atoms: C_24  and  C_27
REMARK    8  A    between atoms: N_29  and  C_30
REMARK                            x       y       z     vdW  Elec       q    Type
REMARK                         _______ _______ _______ _____ _____    ______ ____
ROOT
ATOM      1  N   UNL     1      -5.334  -1.938   0.031  0.00  0.00    -0.274 N 
ATOM      2  C   UNL     1      -6.217  -1.735   1.129  0.00  0.00    +0.117 C 
ATOM      3  C   UNL     1      -5.810  -1.216   2.499  0.00  0.00    +0.190 C 
ATOM      4  S   UNL     1      -7.469  -1.337   3.324  0.00  0.00    -0.028 S 
ATOM      5  O   UNL     1      -8.157  -0.104   3.165  0.00  0.00    -0.174 OA
ATOM      6  O   UNL     1      -7.301  -1.883   4.625  0.00  0.00    -0.174 OA
ATOM      7  C   UNL     1      -8.250  -2.610   2.232  0.00  0.00    +0.182 C 
ATOM      8  C   UNL     1      -7.058  -3.036   1.374  0.00  0.00    +0.097 C 
ATOM      9  S   UNL     1      -7.428  -3.309  -0.397  0.00  0.00    -0.083 S 
ATOM     10  C   UNL     1      -5.872  -2.665  -1.030  0.00  0.00    +0.161 C 
ATOM     11  N   UNL     1      -5.351  -2.843  -2.239  0.00  0.00    -0.232 NA
ENDROOT
BRANCH   1  15
ATOM     12  C   UNL     1      -1.431  -0.482  -0.004  0.00  0.00    -0.045 A 
ATOM     13  C   UNL     1      -1.659  -1.847  -0.005  0.00  0.00    +0.006 A 
ATOM     14  C   UNL     1      -2.952  -2.332   0.013  0.00  0.00    +0.024 A 
ATOM     15  C   UNL     1      -4.024  -1.449   0.020  0.00  0.00    +0.036 A 
ATOM     16  C   UNL     1      -3.792  -0.080   0.015  0.00  0.00    +0.024 A 
ATOM     17  C   UNL     1      -2.497   0.399   0.004  0.00  0.00    +0.006 A 
BRANCH  12  19
ATOM     18  C   UNL     1       0.721  -0.451   1.227  0.00  0.00    +0.012 C 
ATOM     19  C   UNL     1      -0.019   0.044  -0.017  0.00  0.00    +0.013 C 
ATOM     20  C   UNL     1       0.700  -0.456  -1.271  0.00  0.00    +0.012 C 
ENDBRANCH  12  19
ENDBRANCH   1  15
BRANCH  11  21
ATOM     21  C   UNL     1      -5.999  -3.571  -3.141  0.00  0.00    +0.137 C 
ATOM     22  C   UNL     1      -5.453  -3.758  -4.410  0.00  0.00    +0.132 C 
BRANCH  22  23
ATOM     23  C   UNL     1      -6.168  -4.560  -5.403  0.00  0.00    +0.260 C 
ATOM     24  O   UNL     1      -7.240  -5.065  -5.122  0.00  0.00    -0.269 OA
ATOM     25  N   UNL     1      -5.640  -4.741  -6.630  0.00  0.00    -0.281 N 
ATOM     26  H   UNL     1      -4.752  -4.405  -6.830  0.00  0.00    +0.155 HD
BRANCH  25  27
ATOM     27  C   UNL     1      -6.372  -5.412  -7.615  0.00  0.00    +0.034 A 
ATOM     28  C   UNL     1      -5.719  -6.216  -8.540  0.00  0.00    +0.025 A 
ATOM     29  C   UNL     1      -6.445  -6.882  -9.508  0.00  0.00    +0.022 A 
ATOM     30  C   UNL     1      -7.820  -6.740  -9.564  0.00  0.00    +0.041 A 
ATOM     31  C   UNL     1      -8.473  -5.935  -8.646  0.00  0.00    +0.022 A 
ATOM     32  C   UNL     1      -7.752  -5.271  -7.673  0.00  0.00    +0.025 A 
ATOM     33 CL   UNL     1      -8.729  -7.574 -10.786  0.00  0.00    -0.084 Cl
ENDBRANCH  25  27
ENDBRANCH  22  23
BRANCH  22  34
ATOM     34  C   UNL     1      -4.193  -3.164  -4.741  0.00  0.00    +0.106 C 
ATOM     35  N   UNL     1      -3.193  -2.693  -5.003  0.00  0.00    -0.191 NA
ENDBRANCH  22  34
ENDBRANCH  11  21
TORSDOF 6
