REMARK  Name = ZINC39686586
REMARK  9 active torsions:
REMARK  status: ('A' for Active; 'I' for Inactive)
REMARK    1  A    between atoms: C_1  and  C_2
REMARK    2  A    between atoms: C_5  and  C_10
REMARK    3  A    between atoms: C_14  and  C_23
REMARK    4  A    between atoms: N_25  and  C_26
REMARK    5  A    between atoms: C_26  and  C_28
REMARK    6  A    between atoms: C_26  and  C_29
REMARK    7  A    between atoms: C_29  and  C_30
REMARK    8  A    between atoms: C_35  and  O_36
REMARK    9  A    between atoms: O_36  and  C_37
REMARK                            x       y       z     vdW  Elec       q    Type
REMARK                         _______ _______ _______ _____ _____    ______ ____
ROOT
ATOM      1  C   UNL     1       0.167  -3.978  -0.109  0.00  0.00    +0.250 C 
ATOM      2  O   UNL     1       0.176  -4.541   0.969  0.00  0.00    -0.270 OA
ATOM      3  N   UNL     1      -0.005  -4.691  -1.240  0.00  0.00    -0.296 N 
ATOM      4  C   UNL     1       0.059  -4.204  -2.638  0.00  0.00    +0.121 C 
ATOM      5  C   UNL     1       0.779  -5.332  -3.411  0.00  0.00    +0.100 C 
ATOM      6  C   UNL     1       0.539  -6.598  -2.573  0.00  0.00    -0.004 C 
ATOM      7  C   UNL     1      -0.293  -6.140  -1.366  0.00  0.00    +0.115 C 
ATOM      8  C   UNL     1      -0.234  -7.632  -3.386  0.00  0.00    -0.010 C 
ATOM      9  C   UNL     1      -0.410  -8.904  -2.552  0.00  0.00    -0.082 C 
ATOM     10  N   UNL     1       0.908  -9.432  -2.177  0.00  0.00    +0.379 N 
ATOM     11  C   UNL     1       1.607  -8.469  -1.317  0.00  0.00    -0.082 C 
ATOM     12  C   UNL     1       1.868  -7.179  -2.100  0.00  0.00    -0.010 C 
ATOM     13  H   UNL     1       0.791 -10.302  -1.679  0.00  0.00    -0.086 HD
ATOM     14  H   UNL     1       1.453  -9.594  -3.010  0.00  0.00    -0.086 HD
ENDROOT
BRANCH   1  19
ATOM     15  C   UNL     1       0.850   1.731  -0.385  0.00  0.00    +0.047 C 
ATOM     16  C   UNL     1       0.673   0.236  -0.311  0.00  0.00    -0.012 A 
ATOM     17  C   UNL     1      -0.165  -0.403  -1.209  0.00  0.00    +0.007 A 
ATOM     18  C   UNL     1      -0.333  -1.770  -1.149  0.00  0.00    +0.016 A 
ATOM     19  C   UNL     1       0.344  -2.513  -0.179  0.00  0.00    +0.075 A 
ATOM     20  C   UNL     1       1.188  -1.865   0.726  0.00  0.00    +0.171 A 
ATOM     21  C   UNL     1       1.352  -0.491   0.650  0.00  0.00    +0.162 A 
ATOM     22  F   UNL     1       2.172   0.140   1.519  0.00  0.00    -0.202 F 
ATOM     23  F   UNL     1       1.847  -2.575   1.668  0.00  0.00    -0.202 F 
ENDBRANCH   1  19
BRANCH   5  24
ATOM     24  C   UNL     1       0.183  -5.489  -4.786  0.00  0.00    +0.218 C 
ATOM     25  O   UNL     1      -1.000  -5.284  -4.962  0.00  0.00    -0.275 OA
ATOM     26  N   UNL     1       0.963  -5.857  -5.821  0.00  0.00    -0.312 N 
ATOM     27  H   UNL     1       1.909  -6.021  -5.681  0.00  0.00    +0.149 HD
BRANCH  26  28
ATOM     28  C   UNL     1       0.384  -6.011  -7.158  0.00  0.00    +0.074 C 
ATOM     29  C   UNL     1       0.350  -4.650  -7.858  0.00  0.00    +0.028 C 
BRANCH  28  30
ATOM     30  C   UNL     1       1.236  -6.984  -7.975  0.00  0.00    +0.060 C 
BRANCH  30  31
ATOM     31  C   UNL     1       1.169  -8.354  -7.353  0.00  0.00    -0.004 A 
ATOM     32  C   UNL     1       2.145  -8.757  -6.461  0.00  0.00    +0.007 A 
ATOM     33  C   UNL     1       2.085 -10.014  -5.890  0.00  0.00    +0.000 A 
ATOM     34  C   UNL     1       1.048 -10.872  -6.209  0.00  0.00    +0.004 A 
ATOM     35  C   UNL     1       0.070 -10.475  -7.099  0.00  0.00    +0.046 A 
ATOM     36  C   UNL     1       0.125  -9.211  -7.670  0.00  0.00    +0.123 A 
BRANCH  36  37
ATOM     37  O   UNL     1      -0.839  -8.815  -8.541  0.00  0.00    -0.495 OA
ATOM     38  C   UNL     1      -1.884  -9.749  -8.821  0.00  0.00    +0.277 C 
ENDBRANCH  36  37
ENDBRANCH  30  31
ENDBRANCH  28  30
ENDBRANCH  26  28
ENDBRANCH   5  24
TORSDOF 6
