REMARK  Name = ZINC34849269
REMARK  7 active torsions:
REMARK  status: ('A' for Active; 'I' for Inactive)
REMARK    1  A    between atoms: C_1  and  C_2
REMARK    2  A    between atoms: C_6  and  N_8
REMARK    3  A    between atoms: C_9  and  C_11
REMARK    4  A    between atoms: N_22  and  C_37
REMARK    5  A    between atoms: C_23  and  C_25
REMARK    6  A    between atoms: N_27  and  C_28
REMARK    7  A    between atoms: C_34  and  C_36
REMARK                            x       y       z     vdW  Elec       q    Type
REMARK                         _______ _______ _______ _____ _____    ______ ____
ROOT
ATOM      1  C   UNL     1       0.103  -5.093   3.506  0.00  0.00    +0.123 C 
ATOM      2  C   UNL     1       1.384  -4.825   4.361  0.00  0.00    +0.155 C 
ATOM      3  C   UNL     1       1.246  -5.656   5.642  0.00  0.00    +0.004 C 
ATOM      4  C   UNL     1       1.436  -6.938   5.307  0.00  0.00    +0.009 C 
ATOM      5  C   UNL     1       1.647  -6.891   3.837  0.00  0.00    +0.127 C 
ATOM      6  C   UNL     1       0.261  -6.584   3.159  0.00  0.00    +0.128 C 
ATOM      7  C   UNL     1       0.555  -6.870   1.713  0.00  0.00    +0.224 C 
ATOM      8  O   UNL     1      -0.036  -6.390   0.768  0.00  0.00    -0.275 OA
ATOM      9  N   UNL     1       1.587  -7.747   1.630  0.00  0.00    -0.283 N 
ATOM     10  C   UNL     1       2.139  -8.038   3.010  0.00  0.00    +0.199 C 
ATOM     11  O   UNL     1       2.364  -5.629   3.608  0.00  0.00    -0.358 OA
ENDROOT
BRANCH   9  12
ATOM     12  C   UNL     1       2.072  -8.346   0.384  0.00  0.00    +0.077 C 
ATOM     13  C   UNL     1       2.604  -7.227  -0.534  0.00  0.00    +0.022 C 
ATOM     14  C   UNL     1       3.538  -7.840  -1.542  0.00  0.00    +0.002 C 
ATOM     15  C   UNL     1       2.830  -8.193  -2.863  0.00  0.00    +0.000 C 
ATOM     16  C   UNL     1       1.441  -8.824  -2.646  0.00  0.00    +0.000 C 
ATOM     17  C   UNL     1       1.431  -9.821  -1.519  0.00  0.00    +0.002 C 
ATOM     18  C   UNL     1       0.988  -9.099  -0.230  0.00  0.00    +0.022 C 
ENDBRANCH   9  12
BRANCH   1  20
ATOM     19  N   UNL     1      -1.068  -3.892   1.688  0.00  0.00    -0.285 N 
ATOM     20  C   UNL     1       0.100  -4.247   2.259  0.00  0.00    +0.224 C 
ATOM     21  O   UNL     1       1.149  -3.885   1.770  0.00  0.00    -0.275 OA
ATOM     22  H   UNL     1      -1.907  -4.124   2.115  0.00  0.00    +0.155 HD
BRANCH  19  28
ATOM     23  C   UNL     1      -3.145  -2.978  -2.673  0.00  0.00    +0.044 C 
ATOM     24  C   UNL     1      -2.064  -2.726  -1.654  0.00  0.00    -0.049 A 
ATOM     25  C   UNL     1      -1.073  -1.797  -1.913  0.00  0.00    +0.003 A 
ATOM     26  C   UNL     1      -0.080  -1.562  -0.980  0.00  0.00    +0.002 A 
ATOM     27  C   UNL     1      -0.076  -2.255   0.215  0.00  0.00    +0.023 A 
ATOM     28  C   UNL     1      -1.070  -3.188   0.479  0.00  0.00    +0.034 A 
ATOM     29  C   UNL     1      -2.068  -3.418  -0.459  0.00  0.00    +0.026 A 
ENDBRANCH  19  28
ENDBRANCH   1  20
BRANCH  10  30
ATOM     30  C   UNL     1       1.621  -9.344   3.556  0.00  0.00    +0.237 C 
ATOM     31  O   UNL     1       0.608  -9.831   3.103  0.00  0.00    -0.274 OA
ATOM     32  N   UNL     1       2.284  -9.969   4.548  0.00  0.00    -0.311 N 
ATOM     33  H   UNL     1       3.048  -9.541   4.966  0.00  0.00    +0.149 HD
BRANCH  32  34
ATOM     34  C   UNL     1       1.852 -11.295   4.997  0.00  0.00    +0.076 C 
ATOM     35  C   UNL     1       0.664 -11.149   5.949  0.00  0.00    +0.022 C 
ATOM     36  C   UNL     1       1.081 -10.313   7.160  0.00  0.00    +0.002 C 
ATOM     37  C   UNL     1       2.234 -11.007   7.887  0.00  0.00    +0.000 C 
ATOM     38  C   UNL     1       3.423 -11.153   6.934  0.00  0.00    +0.005 C 
ATOM     39  C   UNL     1       3.006 -11.989   5.723  0.00  0.00    +0.006 C 
ATOM     40  C   UNL     1       4.194 -12.135   4.770  0.00  0.00    +0.009 C 
ENDBRANCH  32  34
ENDBRANCH  10  30
TORSDOF 5
