REMARK  Name = ZINC38556372
REMARK  7 active torsions:
REMARK  status: ('A' for Active; 'I' for Inactive)
REMARK    1  A    between atoms: C_6  and  C_7
REMARK    2  A    between atoms: C_9  and  C_13
REMARK    3  A    between atoms: C_17  and  S_21
REMARK    4  A    between atoms: N_19  and  N_20
REMARK    5  A    between atoms: S_21  and  C_22
REMARK    6  A    between atoms: C_22  and  C_23
REMARK    7  A    between atoms: C_23  and  C_25
REMARK                            x       y       z     vdW  Elec       q    Type
REMARK                         _______ _______ _______ _____ _____    ______ ____
ROOT
ATOM      1  C   UNL     1      -3.262  -3.142   1.279  0.00  0.00    +0.244 C 
ATOM      2  N   UNL     1      -2.529  -4.412   1.360  0.00  0.00    -0.167 NA
ATOM      3  N   UNL     1      -3.280  -5.343   1.666  0.00  0.00    -0.159 NA
ATOM      4  C   UNL     1      -4.660  -4.875   1.848  0.00  0.00    +0.272 C 
ATOM      5  N   UNL     1      -4.693  -3.533   1.210  0.00  0.00    -0.183 NA
ENDROOT
BRANCH   1   8
ATOM      6  C   UNL     1      -1.271  -0.766   0.011  0.00  0.00    +0.091 C 
ATOM      7  C   UNL     1      -1.363  -2.110   0.010  0.00  0.00    +0.035 C 
ATOM      8  C   UNL     1      -2.858  -2.372   0.020  0.00  0.00    +0.195 C 
ATOM      9  N   UNL     1      -3.437  -1.018   0.026  0.00  0.00    -0.176 NA
ATOM     10  N   UNL     1      -2.509  -0.206   0.026  0.00  0.00    -0.154 NA
BRANCH   6  16
ATOM     11  C   UNL     1      -0.017   1.389   0.010  0.00  0.00    +0.011 A 
ATOM     12  C   UNL     1       1.170   2.093   0.002  0.00  0.00    +0.020 A 
ATOM     13  C   UNL     1       2.378   1.417  -0.013  0.00  0.00    +0.041 A 
ATOM     14  C   UNL     1       2.402   0.033  -0.021  0.00  0.00    +0.020 A 
ATOM     15  C   UNL     1       1.221  -0.680  -0.014  0.00  0.00    +0.011 A 
ATOM     16  C   UNL     1       0.002  -0.004   0.002  0.00  0.00    +0.002 A 
ATOM     17 CL   UNL     1       3.868   2.309  -0.022  0.00  0.00    -0.084 Cl
ENDBRANCH   6  16
ENDBRANCH   1   8
BRANCH   5  18
ATOM     18  N   UNL     1      -5.522  -2.612   1.970  0.00  0.00    -0.263 NA
ATOM     19  H   UNL     1      -6.495  -2.878   1.923  0.00  0.00    +0.137 HD
ATOM     20  H   UNL     1      -5.211  -2.551   2.928  0.00  0.00    +0.137 HD
ENDBRANCH   5  18
BRANCH   4  21
ATOM     21  S   UNL     1      -5.822  -5.999   1.025  0.00  0.00    -0.108 S 
BRANCH  21  22
ATOM     22  C   UNL     1      -5.292  -5.985  -0.710  0.00  0.00    +0.152 C 
BRANCH  22  23
ATOM     23  C   UNL     1      -6.187  -6.891  -1.516  0.00  0.00    +0.173 C 
ATOM     24  O   UNL     1      -7.092  -7.488  -0.973  0.00  0.00    -0.291 OA
BRANCH  23  25
ATOM     25  C   UNL     1      -5.961  -7.053  -2.961  0.00  0.00    +0.018 A 
ATOM     26  C   UNL     1      -4.914  -6.370  -3.589  0.00  0.00    +0.012 A 
ATOM     27  C   UNL     1      -4.708  -6.527  -4.943  0.00  0.00    +0.016 A 
ATOM     28  C   UNL     1      -5.537  -7.356  -5.681  0.00  0.00    +0.018 A 
ATOM     29  C   UNL     1      -6.576  -8.035  -5.066  0.00  0.00    +0.016 A 
ATOM     30  C   UNL     1      -6.790  -7.893  -3.712  0.00  0.00    +0.012 A 
ATOM     31 BR   UNL     1      -5.247  -7.563  -7.538  0.00  0.00    -0.050 Br
ENDBRANCH  23  25
ENDBRANCH  22  23
ENDBRANCH  21  22
ENDBRANCH   4  21
TORSDOF 7
