REMARK  Name = ZINC39923297
REMARK  7 active torsions:
REMARK  status: ('A' for Active; 'I' for Inactive)
REMARK    1  A    between atoms: C_1  and  C_2
REMARK    2  A    between atoms: C_7  and  N_8
REMARK    3  A    between atoms: C_9  and  S_20
REMARK    4  A    between atoms: S_20  and  C_21
REMARK    5  A    between atoms: C_21  and  C_22
REMARK    6  A    between atoms: N_24  and  N_25
REMARK    7  A    between atoms: C_26  and  C_27
REMARK                            x       y       z     vdW  Elec       q    Type
REMARK                         _______ _______ _______ _____ _____    ______ ____
ROOT
ATOM      1  N   UNL     1      -0.185  -0.027   2.414  0.00  0.00    -0.239 N 
ATOM      2  C   UNL     1      -1.495   0.111   3.052  0.00  0.00    +0.227 C 
ATOM      3  N   UNL     1      -1.352   0.111   4.513  0.00  0.00    -0.317 N 
ATOM      4  C   UNL     1      -0.326   0.854   5.085  0.00  0.00    +0.041 A 
ATOM      5  C   UNL     1      -0.435   1.391   6.357  0.00  0.00    +0.024 A 
ATOM      6  C   UNL     1       0.616   2.112   6.888  0.00  0.00    +0.002 A 
ATOM      7  C   UNL     1       1.779   2.303   6.158  0.00  0.00    +0.001 A 
ATOM      8  C   UNL     1       1.903   1.779   4.888  0.00  0.00    +0.015 A 
ATOM      9  C   UNL     1       0.849   1.053   4.339  0.00  0.00    +0.058 A 
ATOM     10  C   UNL     1       0.924   0.490   2.980  0.00  0.00    +0.255 C 
ATOM     11  O   UNL     1       1.977   0.494   2.372  0.00  0.00    -0.269 OA
ATOM     12  H   UNL     1      -1.964  -0.397   5.069  0.00  0.00    +0.149 HD
ENDROOT
BRANCH   1  19
ATOM     13  C   UNL     1       0.103  -2.857   2.487  0.00  0.00    +0.045 C 
ATOM     14  C   UNL     1       0.060  -2.093   1.189  0.00  0.00    -0.029 A 
ATOM     15  C   UNL     1       0.157  -2.766  -0.013  0.00  0.00    +0.005 A 
ATOM     16  C   UNL     1       0.118  -2.066  -1.205  0.00  0.00    +0.000 A 
ATOM     17  C   UNL     1      -0.018  -0.690  -1.198  0.00  0.00    +0.002 A 
ATOM     18  C   UNL     1      -0.115  -0.010   0.000  0.00  0.00    +0.024 A 
ATOM     19  C   UNL     1      -0.082  -0.711   1.199  0.00  0.00    +0.042 A 
ENDBRANCH   1  19
BRANCH   2  20
ATOM     20  S   UNL     1      -2.258   1.670   2.527  0.00  0.00    -0.110 S 
BRANCH  20  21
ATOM     21  C   UNL     1      -1.088   2.940   3.083  0.00  0.00    +0.170 C 
BRANCH  21  22
ATOM     22  C   UNL     1      -1.608   4.303   2.704  0.00  0.00    +0.242 C 
ATOM     23  O   UNL     1      -2.664   4.407   2.117  0.00  0.00    -0.273 OA
ATOM     24  N   UNL     1      -0.900   5.406   3.018  0.00  0.00    -0.206 N 
ATOM     25  H   UNL     1      -0.056   5.323   3.488  0.00  0.00    +0.177 HD
BRANCH  24  26
ATOM     26  N   UNL     1      -1.384   6.673   2.666  0.00  0.00    -0.188 NA
ATOM     27  C   UNL     1      -0.696   7.744   2.971  0.00  0.00    +0.136 C 
BRANCH  27  28
ATOM     28  C   UNL     1      -1.180   9.012   2.619  0.00  0.00    +0.000 C 
ATOM     29  C   UNL     1      -0.574  10.242   2.861  0.00  0.00    +0.004 A 
ATOM     30  C   UNL     1       0.637  10.601   3.494  0.00  0.00    +0.010 A 
ATOM     31  C   UNL     1       0.983  11.910   3.591  0.00  0.00    +0.001 A 
ATOM     32  C   UNL     1       0.169  12.923   3.077  0.00  0.00    +0.002 A 
ATOM     33  C   UNL     1      -1.005  12.653   2.458  0.00  0.00    +0.026 A 
ATOM     34  C   UNL     1      -1.436  11.307   2.318  0.00  0.00    +0.043 A 
ATOM     35  N   UNL     1      -2.515  10.790   1.768  0.00  0.00    -0.380 N 
ATOM     36  C   UNL     1      -2.467   9.329   1.889  0.00  0.00    +0.150 C 
ATOM     37  H   UNL     1      -3.227  11.295   1.346  0.00  0.00    +0.160 HD
ENDBRANCH  27  28
ENDBRANCH  24  26
ENDBRANCH  21  22
ENDBRANCH  20  21
ENDBRANCH   2  20
TORSDOF 6
