REMARK  Name = ZINC36090382
REMARK  7 active torsions:
REMARK  status: ('A' for Active; 'I' for Inactive)
REMARK    1  A    between atoms: C_1  and  C_2
REMARK    2  A    between atoms: C_4  and  N_15
REMARK    3  A    between atoms: C_7  and  N_8
REMARK    4  A    between atoms: N_15  and  S_16
REMARK    5  A    between atoms: S_16  and  C_19
REMARK    6  A    between atoms: C_20  and  C_26
REMARK    7  A    between atoms: C_24  and  C_25
REMARK                            x       y       z     vdW  Elec       q    Type
REMARK                         _______ _______ _______ _____ _____    ______ ____
ROOT
ATOM      1  C   UNL     1      -0.307   1.529  -0.180  0.00  0.00    +0.046 C 
ATOM      2  C   UNL     1      -0.215   0.025  -0.157  0.00  0.00    -0.026 A 
ATOM      3  C   UNL     1      -0.137  -0.681  -1.342  0.00  0.00    +0.029 A 
ATOM      4  C   UNL     1      -0.051  -2.066  -1.321  0.00  0.00    +0.048 A 
ATOM      5  C   UNL     1      -0.043  -2.743  -0.108  0.00  0.00    +0.026 A 
ATOM      6  C   UNL     1      -0.122  -2.038   1.076  0.00  0.00    +0.027 A 
ATOM      7  C   UNL     1      -0.202  -0.651   1.055  0.00  0.00    +0.054 A 
ENDROOT
BRANCH   7   8
ATOM      8  N   UNL     1      -0.276   0.064   2.256  0.00  0.00    -0.207 N 
ATOM      9  C   UNL     1       0.852   0.508   3.096  0.00  0.00    +0.133 C 
ATOM     10  C   UNL     1       0.491   1.796   3.861  0.00  0.00    +0.045 C 
ATOM     11  C   UNL     1      -0.936   1.540   4.433  0.00  0.00    +0.190 C 
ATOM     12  S   UNL     1      -1.663   0.598   3.031  0.00  0.00    +0.046 S 
ATOM     13  O   UNL     1      -2.299   1.473   2.110  0.00  0.00    -0.155 OA
ATOM     14  O   UNL     1      -2.312  -0.577   3.499  0.00  0.00    -0.155 OA
ENDBRANCH   7   8
BRANCH   4  15
ATOM     15  N   UNL     1       0.028  -2.781  -2.522  0.00  0.00    -0.216 N 
ATOM     16  H   UNL     1      -0.576  -2.572  -3.252  0.00  0.00    +0.174 HD
BRANCH  15  17
ATOM     17  S   UNL     1       1.152  -3.985  -2.697  0.00  0.00    +0.076 S 
ATOM     18  O   UNL     1       1.014  -4.837  -1.568  0.00  0.00    -0.150 OA
ATOM     19  O   UNL     1       1.033  -4.461  -4.030  0.00  0.00    -0.150 OA
BRANCH  17  20
ATOM     20  C   UNL     1       2.742  -3.235  -2.570  0.00  0.00    +0.151 A 
ATOM     21  C   UNL     1       3.522  -3.205  -1.464  0.00  0.00    +0.060 A 
ATOM     22  N   UNL     1       4.654  -2.541  -1.778  0.00  0.00    -0.280 N 
ATOM     23  H   UNL     1       5.397  -2.365  -1.179  0.00  0.00    +0.189 HD
ATOM     24  N   UNL     1       4.567  -2.150  -3.120  0.00  0.00    -0.177 NA
ATOM     25  C   UNL     1       3.423  -2.572  -3.595  0.00  0.00    +0.087 A 
ATOM     26  C   UNL     1       2.924  -2.374  -5.004  0.00  0.00    +0.069 C 
ATOM     27  C   UNL     1       3.186  -3.806  -0.123  0.00  0.00    +0.067 C 
ENDBRANCH  17  20
ENDBRANCH  15  17
ENDBRANCH   4  15
TORSDOF 4
