REMARK  Name = ZINC60117360
REMARK  5 active torsions:
REMARK  status: ('A' for Active; 'I' for Inactive)
REMARK    1  A    between atoms: C_1  and  C_2
REMARK    2  A    between atoms: N_7  and  C_11
REMARK    3  A    between atoms: C_8  and  C_10
REMARK    4  A    between atoms: C_14  and  C_17
REMARK    5  A    between atoms: N_18  and  O_19
REMARK                            x       y       z     vdW  Elec       q    Type
REMARK                         _______ _______ _______ _____ _____    ______ ____
ROOT
ATOM      1  C   UNL     1       1.783  -2.765   1.399  0.00  0.00    +0.030 A 
ATOM      2  C   UNL     1       1.665  -4.144   1.539  0.00  0.00    +0.024 A 
ATOM      3  C   UNL     1       2.795  -4.926   1.648  0.00  0.00    +0.013 A 
ATOM      4  C   UNL     1       4.058  -4.332   1.618  0.00  0.00    +0.018 A 
ATOM      5  C   UNL     1       4.173  -2.948   1.477  0.00  0.00    +0.013 A 
ATOM      6  C   UNL     1       3.041  -2.172   1.363  0.00  0.00    +0.024 A 
ENDROOT
BRANCH   1  12
ATOM      7  C   UNL     1      -0.012   1.540   0.046  0.00  0.00    +0.009 C 
ATOM      8  C   UNL     1       0.010   0.010   0.020  0.00  0.00    +0.006 C 
ATOM      9  C   UNL     1      -1.425  -0.522   0.015  0.00  0.00    +0.006 C 
ATOM     10  C   UNL     1      -1.403  -2.051  -0.045  0.00  0.00    +0.019 C 
ATOM     11  C   UNL     1      -0.690  -2.596   1.197  0.00  0.00    +0.105 C 
ATOM     12  N   UNL     1       0.639  -1.977   1.288  0.00  0.00    -0.327 N 
ATOM     13  C   UNL     1       0.740  -0.512   1.262  0.00  0.00    +0.073 C 
ATOM     14  C   UNL     1       0.092   0.069   2.520  0.00  0.00    +0.028 C 
ENDBRANCH   1  12
BRANCH   4  15
ATOM     15  C   UNL     1       5.272  -5.169   1.736  0.00  0.00    +0.162 C 
ATOM     16  N   UNL     1       5.163  -6.459   1.868  0.00  0.00    -0.072 NA
ATOM     17  N   UNL     1       6.525  -4.579   1.706  0.00  0.00    -0.340 N 
ATOM     18  H   UNL     1       6.606  -3.617   1.608  0.00  0.00    +0.144 HD
ATOM     19  H   UNL     1       7.321  -5.127   1.783  0.00  0.00    +0.144 HD
BRANCH  16  20
ATOM     20  O   UNL     1       6.326  -7.260   1.981  0.00  0.00    -0.408 OA
ATOM     21  H   UNL     1       6.145  -8.205   2.075  0.00  0.00    +0.328 HD
ENDBRANCH  16  20
ENDBRANCH   4  15
TORSDOF 3
