REMARK  Name = ZINC39678565
REMARK  8 active torsions:
REMARK  status: ('A' for Active; 'I' for Inactive)
REMARK    1  A    between atoms: C_1  and  C_2
REMARK    2  A    between atoms: C_5  and  C_9
REMARK    3  A    between atoms: C_6  and  C_8
REMARK    4  A    between atoms: C_13  and  C_22
REMARK    5  A    between atoms: N_24  and  C_25
REMARK    6  A    between atoms: C_25  and  C_26
REMARK    7  A    between atoms: C_30  and  O_32
REMARK    8  A    between atoms: O_32  and  C_33
REMARK                            x       y       z     vdW  Elec       q    Type
REMARK                         _______ _______ _______ _____ _____    ______ ____
ROOT
ATOM      1  C   UNL     1       0.150  -4.150  -0.010  0.00  0.00    +0.247 C 
ATOM      2  O   UNL     1       0.263  -4.736   1.049  0.00  0.00    -0.270 OA
ATOM      3  N   UNL     1       0.096  -4.846  -1.163  0.00  0.00    -0.296 N 
ATOM      4  C   UNL     1       0.068  -4.313  -2.546  0.00  0.00    +0.121 C 
ATOM      5  C   UNL     1       0.964  -5.278  -3.354  0.00  0.00    +0.100 C 
ATOM      6  C   UNL     1       0.946  -6.592  -2.556  0.00  0.00    -0.004 C 
ATOM      7  C   UNL     1       0.056  -6.318  -1.335  0.00  0.00    +0.115 C 
ATOM      8  C   UNL     1       2.357  -6.953  -2.101  0.00  0.00    -0.010 C 
ATOM      9  C   UNL     1       2.321  -8.292  -1.359  0.00  0.00    -0.082 C 
ATOM     10  N   UNL     1       1.790  -9.333  -2.248  0.00  0.00    +0.379 N 
ATOM     11  C   UNL     1       0.401  -9.024  -2.606  0.00  0.00    -0.082 C 
ATOM     12  C   UNL     1       0.355  -7.716  -3.401  0.00  0.00    -0.010 C 
ATOM     13  H   UNL     1       2.351  -9.375  -3.086  0.00  0.00    -0.086 HD
ATOM     14  H   UNL     1       1.825 -10.225  -1.777  0.00  0.00    -0.086 HD
ENDROOT
BRANCH   1  19
ATOM     15  C   UNL     1      -0.148   1.596  -0.100  0.00  0.00    +0.044 C 
ATOM     16  C   UNL     1      -0.070   0.091  -0.076  0.00  0.00    -0.050 A 
ATOM     17  C   UNL     1      -0.973  -0.657  -0.811  0.00  0.00    +0.004 A 
ATOM     18  C   UNL     1      -0.907  -2.035  -0.794  0.00  0.00    +0.013 A 
ATOM     19  C   UNL     1       0.074  -2.674  -0.034  0.00  0.00    +0.040 A 
ATOM     20  C   UNL     1       0.982  -1.913   0.705  0.00  0.00    -0.038 A 
ATOM     21  C   UNL     1       0.908  -0.536   0.675  0.00  0.00    +0.007 A 
ATOM     22  C   UNL     1       2.044  -2.595   1.528  0.00  0.00    +0.044 C 
ENDBRANCH   1  19
BRANCH   5  23
ATOM     23  C   UNL     1       2.368  -4.737  -3.447  0.00  0.00    +0.218 C 
ATOM     24  O   UNL     1       2.787  -3.988  -2.590  0.00  0.00    -0.275 OA
ATOM     25  N   UNL     1       3.157  -5.085  -4.482  0.00  0.00    -0.311 N 
ATOM     26  H   UNL     1       2.822  -5.684  -5.168  0.00  0.00    +0.149 HD
BRANCH  25  27
ATOM     27  C   UNL     1       4.522  -4.559  -4.573  0.00  0.00    +0.139 C 
BRANCH  27  28
ATOM     28  C   UNL     1       5.186  -5.097  -5.813  0.00  0.00    -0.027 A 
ATOM     29  C   UNL     1       5.890  -6.287  -5.760  0.00  0.00    +0.005 A 
ATOM     30  C   UNL     1       6.501  -6.783  -6.896  0.00  0.00    +0.004 A 
ATOM     31  C   UNL     1       6.410  -6.091  -8.089  0.00  0.00    +0.046 A 
ATOM     32  C   UNL     1       5.705  -4.898  -8.145  0.00  0.00    +0.127 A 
ATOM     33  C   UNL     1       5.088  -4.405  -7.005  0.00  0.00    +0.051 A 
BRANCH  32  34
ATOM     34  O   UNL     1       5.614  -4.216  -9.317  0.00  0.00    -0.434 OA
BRANCH  34  35
ATOM     35  C   UNL     1       6.270  -4.786 -10.452  0.00  0.00    +0.541 C 
ATOM     36  F   UNL     1       7.639  -4.903 -10.190  0.00  0.00    -0.166 F 
ATOM     37  F   UNL     1       5.735  -6.052 -10.712  0.00  0.00    -0.166 F 
ENDBRANCH  34  35
ENDBRANCH  32  34
ENDBRANCH  27  28
ENDBRANCH  25  27
ENDBRANCH   5  23
TORSDOF 6
