REMARK  Name = ZINC38651211
REMARK  9 active torsions:
REMARK  status: ('A' for Active; 'I' for Inactive)
REMARK    1  A    between atoms: C_1  and  C_2
REMARK    2  A    between atoms: C_2  and  C_4
REMARK    3  A    between atoms: C_2  and  O_28
REMARK    4  A    between atoms: C_4  and  O_6
REMARK    5  A    between atoms: O_6  and  C_7
REMARK    6  A    between atoms: C_14  and  N_27
REMARK    7  A    between atoms: C_15  and  C_25
REMARK    8  A    between atoms: C_16  and  C_18
REMARK    9  A    between atoms: O_28  and  C_29
REMARK                            x       y       z     vdW  Elec       q    Type
REMARK                         _______ _______ _______ _____ _____    ______ ____
ROOT
ATOM      1  C   UNL     1       2.596  -0.498   2.745  0.00  0.00    +0.135 A 
ATOM      2  C   UNL     1       1.873  -1.338   3.581  0.00  0.00    +0.047 A 
ATOM      3  C   UNL     1       2.440  -1.802   4.751  0.00  0.00    +0.012 A 
ATOM      4  C   UNL     1       3.729  -1.434   5.095  0.00  0.00    +0.008 A 
ATOM      5  C   UNL     1       4.455  -0.596   4.264  0.00  0.00    +0.138 A 
ATOM      6  C   UNL     1       3.888  -0.133   3.084  0.00  0.00    +0.093 A 
ATOM      7  O   UNL     1       5.719  -0.224   4.584  0.00  0.00    -0.441 OA
ATOM      8  C   UNL     1       6.422  -0.938   5.479  0.00  0.00    +0.199 C 
ATOM      9  C   UNL     1       5.822  -1.776   6.357  0.00  0.00    +0.098 C 
ATOM     10  C   UNL     1       4.329  -1.950   6.376  0.00  0.00    +0.098 C 
ENDROOT
BRANCH  10  11
ATOM     11  C   UNL     1       3.752  -1.188   7.541  0.00  0.00    -0.033 A 
ATOM     12  C   UNL     1       3.914   0.183   7.618  0.00  0.00    +0.004 A 
ATOM     13  C   UNL     1       3.385   0.883   8.686  0.00  0.00    +0.002 A 
ATOM     14  C   UNL     1       2.695   0.212   9.678  0.00  0.00    +0.020 A 
ATOM     15  C   UNL     1       2.533  -1.159   9.602  0.00  0.00    +0.041 A 
ATOM     16  C   UNL     1       3.057  -1.859   8.529  0.00  0.00    +0.024 A 
ATOM     17 CL   UNL     1       1.666  -2.002  10.848  0.00  0.00    -0.084 Cl
ENDBRANCH  10  11
BRANCH   8  18
ATOM     18  N   UNL     1       7.789  -0.815   5.504  0.00  0.00    -0.328 N 
ATOM     19  H   UNL     1       8.233  -0.219   4.881  0.00  0.00    +0.145 HD
ATOM     20  H   UNL     1       8.310  -1.325   6.144  0.00  0.00    +0.145 HD
ENDBRANCH   8  18
BRANCH   9  21
ATOM     21  C   UNL     1       6.626  -2.512   7.286  0.00  0.00    +0.101 C 
ATOM     22  N   UNL     1       7.263  -3.095   8.023  0.00  0.00    -0.191 NA
ENDBRANCH   9  21
BRANCH   1  23
ATOM     23  O   UNL     1       2.038  -0.040   1.593  0.00  0.00    -0.423 OA
BRANCH  23  24
ATOM     24  C   UNL     1       1.120   0.935   1.682  0.00  0.00    +0.353 C 
ATOM     25  O   UNL     1       0.880   1.444   2.751  0.00  0.00    -0.246 OA
BRANCH  24  27
ATOM     26  C   UNL     1       1.383   2.043  -0.521  0.00  0.00    +0.064 C 
ATOM     27  C   UNL     1       0.390   1.397   0.447  0.00  0.00    +0.279 C 
BRANCH  27  28
ATOM     28  O   UNL     1      -0.609   2.352   0.813  0.00  0.00    -0.478 OA
BRANCH  28  29
ATOM     29  C   UNL     1      -1.672   2.484  -0.024  0.00  0.00    +0.122 A 
ATOM     30  C   UNL     1      -1.700   1.791  -1.225  0.00  0.00    +0.048 A 
ATOM     31  C   UNL     1      -2.782   1.927  -2.074  0.00  0.00    +0.042 A 
ATOM     32  C   UNL     1      -3.836   2.754  -1.727  0.00  0.00    +0.124 A 
ATOM     33  C   UNL     1      -3.809   3.447  -0.528  0.00  0.00    +0.042 A 
ATOM     34  C   UNL     1      -2.732   3.308   0.326  0.00  0.00    +0.048 A 
ATOM     35  F   UNL     1      -4.893   2.886  -2.558  0.00  0.00    -0.205 F 
ENDBRANCH  28  29
ENDBRANCH  27  28
ENDBRANCH  24  27
ENDBRANCH  23  24
ENDBRANCH   1  23
TORSDOF 8
