REMARK  Name = ZINC03271716
REMARK  7 active torsions:
REMARK  status: ('A' for Active; 'I' for Inactive)
REMARK    1  A    between atoms: C_1  and  C_2
REMARK    2  A    between atoms: C_5  and  C_8
REMARK    3  A    between atoms: C_11  and  S_14
REMARK    4  A    between atoms: N_12  and  N_13
REMARK    5  A    between atoms: S_14  and  C_15
REMARK    6  A    between atoms: C_15  and  C_16
REMARK    7  A    between atoms: N_18  and  C_19
REMARK                            x       y       z     vdW  Elec       q    Type
REMARK                         _______ _______ _______ _____ _____    ______ ____
ROOT
ATOM      1  C   UNL     1       0.779   1.247  -4.207  0.00  0.00    +0.182 A 
ATOM      2  N   UNL     1       1.500   0.373  -3.544  0.00  0.00    -0.127 NA
ATOM      3  N   UNL     1       1.113   0.323  -2.320  0.00  0.00    -0.121 NA
ATOM      4  C   UNL     1       0.115   1.156  -2.128  0.00  0.00    +0.209 A 
ATOM      5  N   UNL     1      -0.130   1.775  -3.320  0.00  0.00    -0.224 N 
ENDROOT
BRANCH   1  10
ATOM      6  C   UNL     1       1.322   2.612  -9.770  0.00  0.00    +0.044 C 
ATOM      7  C   UNL     1       1.180   2.255  -8.313  0.00  0.00    -0.050 A 
ATOM      8  C   UNL     1       0.482   3.094  -7.463  0.00  0.00    +0.004 A 
ATOM      9  C   UNL     1       0.348   2.772  -6.128  0.00  0.00    +0.012 A 
ATOM     10  C   UNL     1       0.919   1.597  -5.636  0.00  0.00    +0.021 A 
ATOM     11  C   UNL     1       1.627   0.758  -6.498  0.00  0.00    +0.012 A 
ATOM     12  C   UNL     1       1.749   1.089  -7.832  0.00  0.00    +0.004 A 
ENDBRANCH   1  10
BRANCH   5  13
ATOM     13  N   UNL     1      -1.081   2.722  -3.578  0.00  0.00    -0.295 N 
ATOM     14  H   UNL     1      -0.693   3.651  -3.510  0.00  0.00    +0.163 HD
ATOM     15  H   UNL     1      -1.504   2.572  -4.482  0.00  0.00    +0.163 HD
ENDBRANCH   5  13
BRANCH   4  16
ATOM     16  S   UNL     1      -0.743   1.428  -0.613  0.00  0.00    -0.075 S 
BRANCH  16  17
ATOM     17  C   UNL     1       0.140   0.269   0.461  0.00  0.00    +0.173 C 
BRANCH  17  18
ATOM     18  C   UNL     1      -0.439   0.331   1.851  0.00  0.00    +0.227 C 
ATOM     19  O   UNL     1      -1.359   1.084   2.092  0.00  0.00    -0.275 OA
ATOM     20  N   UNL     1       0.065  -0.451   2.826  0.00  0.00    -0.285 N 
ATOM     21  H   UNL     1       0.848  -0.997   2.655  0.00  0.00    +0.155 HD
BRANCH  20  22
ATOM     22  C   UNL     1      -0.542  -0.475   4.088  0.00  0.00    +0.033 A 
ATOM     23  C   UNL     1       0.229  -0.662   5.227  0.00  0.00    +0.025 A 
ATOM     24  C   UNL     1      -0.372  -0.681   6.470  0.00  0.00    +0.022 A 
ATOM     25  C   UNL     1      -1.742  -0.523   6.581  0.00  0.00    +0.041 A 
ATOM     26  C   UNL     1      -2.514  -0.342   5.446  0.00  0.00    +0.022 A 
ATOM     27  C   UNL     1      -1.917  -0.317   4.201  0.00  0.00    +0.025 A 
ATOM     28 CL   UNL     1      -2.495  -0.553   8.145  0.00  0.00    -0.084 Cl
ENDBRANCH  20  22
ENDBRANCH  17  18
ENDBRANCH  16  17
ENDBRANCH   4  16
TORSDOF 6
