REMARK  Name = ZINC15891919
REMARK  6 active torsions:
REMARK  status: ('A' for Active; 'I' for Inactive)
REMARK    1  A    between atoms: C_3  and  N_18
REMARK    2  A    between atoms: C_5  and  S_7
REMARK    3  A    between atoms: S_7  and  N_10
REMARK    4  A    between atoms: N_10  and  C_11
REMARK    5  A    between atoms: C_19  and  C_21
REMARK    6  A    between atoms: C_24  and  N_27
REMARK                            x       y       z     vdW  Elec       q    Type
REMARK                         _______ _______ _______ _____ _____    ______ ____
ROOT
ATOM      1  C   UNL     1       5.867  -2.972   0.908  0.00  0.00    +0.004 A 
ATOM      2  C   UNL     1       6.470  -1.782   0.551  0.00  0.00    +0.023 A 
ATOM      3  C   UNL     1       5.810  -0.895  -0.289  0.00  0.00    +0.036 A 
ATOM      4  C   UNL     1       4.547  -1.211  -0.773  0.00  0.00    +0.052 A 
ATOM      5  C   UNL     1       3.947  -2.400  -0.408  0.00  0.00    +0.110 A 
ATOM      6  C   UNL     1       4.607  -3.281   0.429  0.00  0.00    +0.029 A 
ENDROOT
BRANCH   3   7
ATOM      7  N   UNL     1       6.418   0.311  -0.652  0.00  0.00    -0.281 N 
ATOM      8  C   UNL     1       7.197   0.966   0.232  0.00  0.00    +0.248 C 
ATOM      9  O   UNL     1       7.442   0.466   1.312  0.00  0.00    -0.270 OA
ATOM     10  H   UNL     1       6.279   0.676  -1.540  0.00  0.00    +0.155 HD
BRANCH   8  11
ATOM     11  C   UNL     1       7.753   2.291  -0.114  0.00  0.00    +0.037 A 
ATOM     12  C   UNL     1       7.479   2.864  -1.356  0.00  0.00    +0.015 A 
ATOM     13  C   UNL     1       7.997   4.104  -1.670  0.00  0.00    +0.033 A 
ATOM     14  C   UNL     1       8.796   4.773  -0.760  0.00  0.00    +0.126 A 
ATOM     15  C   UNL     1       9.077   4.208   0.471  0.00  0.00    +0.033 A 
ATOM     16  C   UNL     1       8.560   2.972   0.799  0.00  0.00    +0.015 A 
BRANCH  14  17
ATOM     17  N   UNL     1       9.353   6.101  -1.106  0.00  0.00    +0.056 N 
ATOM     18  O   UNL     1      10.056   6.693  -0.307  0.00  0.00    -0.126 OA
ATOM     19  O   UNL     1       9.107   6.601  -2.189  0.00  0.00    -0.126 OA
ENDBRANCH  14  17
ENDBRANCH   8  11
ENDBRANCH   3   7
BRANCH   5  20
ATOM     20  S   UNL     1       2.342  -2.799  -1.016  0.00  0.00    +0.072 S 
ATOM     21  O   UNL     1       2.185  -4.203  -0.858  0.00  0.00    -0.150 OA
ATOM     22  O   UNL     1       2.213  -2.155  -2.276  0.00  0.00    -0.150 OA
BRANCH  20  23
ATOM     23  N   UNL     1       1.244  -2.084  -0.004  0.00  0.00    -0.216 N 
ATOM     24  H   UNL     1       0.631  -1.415  -0.348  0.00  0.00    +0.174 HD
BRANCH  23  25
ATOM     25  C   UNL     1       1.200  -2.443   1.346  0.00  0.00    +0.048 A 
ATOM     26  C   UNL     1       1.130  -1.461   2.326  0.00  0.00    +0.025 A 
ATOM     27  C   UNL     1       1.087  -1.819   3.659  0.00  0.00    +0.017 A 
ATOM     28  C   UNL     1       1.114  -3.155   4.019  0.00  0.00    +0.018 A 
ATOM     29  C   UNL     1       1.183  -4.136   3.045  0.00  0.00    +0.017 A 
ATOM     30  C   UNL     1       1.226  -3.783   1.710  0.00  0.00    +0.025 A 
ATOM     31 BR   UNL     1       1.055  -3.641   5.845  0.00  0.00    -0.050 Br
ENDBRANCH  23  25
ENDBRANCH  20  23
ENDBRANCH   5  20
TORSDOF 6
