REMARK  Name = ZINC33813830
REMARK  9 active torsions:
REMARK  status: ('A' for Active; 'I' for Inactive)
REMARK    1  A    between atoms: C_1  and  C_2
REMARK    2  A    between atoms: C_2  and  O_3
REMARK    3  A    between atoms: O_3  and  C_4
REMARK    4  A    between atoms: C_4  and  C_6
REMARK    5  A    between atoms: C_7  and  C_38
REMARK    6  A    between atoms: C_12  and  C_31
REMARK    7  A    between atoms: C_14  and  C_19
REMARK    8  A    between atoms: C_19  and  C_21
REMARK    9  A    between atoms: C_22  and  C_30
REMARK                            x       y       z     vdW  Elec       q    Type
REMARK                         _______ _______ _______ _____ _____    ______ ____
ROOT
ATOM      1  C   UNL     1      -3.710  -0.839  -0.821  0.00  0.00    +0.120 A 
ATOM      2  C   UNL     1      -3.809  -2.195  -1.107  0.00  0.00    +0.062 A 
ATOM      3  N   UNL     1      -4.970  -2.753  -0.880  0.00  0.00    -0.229 NA
ATOM      4  C   UNL     1      -5.989  -2.060  -0.405  0.00  0.00    +0.169 A 
ATOM      5  S   UNL     1      -5.362  -0.508  -0.228  0.00  0.00    -0.045 S 
ATOM      6  N   UNL     1      -7.265  -2.505  -0.116  0.00  0.00    -0.232 N 
ATOM      7  C   UNL     1      -8.367  -1.688   0.407  0.00  0.00    +0.152 C 
ATOM      8  C   UNL     1      -9.547  -2.620   0.554  0.00  0.00    +0.078 C 
ATOM      9  C   UNL     1      -9.131  -3.842   0.147  0.00  0.00    +0.250 C 
ATOM     10  C   UNL     1      -7.720  -3.761  -0.270  0.00  0.00    +0.293 C 
ATOM     11  O   UNL     1      -7.063  -4.694  -0.690  0.00  0.00    -0.266 OA
ATOM     12  O   UNL     1      -9.893  -4.962   0.124  0.00  0.00    -0.282 OA
ATOM     13  C   UNL     1      -2.642  -2.979  -1.650  0.00  0.00    +0.067 C 
ENDROOT
BRANCH   7  14
ATOM     14  C   UNL     1      -8.696  -0.581  -0.561  0.00  0.00    -0.022 A 
ATOM     15  C   UNL     1      -8.615  -0.806  -1.922  0.00  0.00    +0.008 A 
ATOM     16  C   UNL     1      -8.917   0.208  -2.811  0.00  0.00    +0.038 A 
ATOM     17  C   UNL     1      -9.302   1.451  -2.336  0.00  0.00    +0.123 A 
ATOM     18  C   UNL     1      -9.384   1.676  -0.973  0.00  0.00    +0.038 A 
ATOM     19  C   UNL     1      -9.086   0.658  -0.086  0.00  0.00    +0.008 A 
ATOM     20  F   UNL     1      -9.598   2.444  -3.204  0.00  0.00    -0.205 F 
ENDBRANCH   7  14
BRANCH   1  21
ATOM     21  C   UNL     1      -2.570   0.065  -0.961  0.00  0.00    +0.348 C 
ATOM     22  O   UNL     1      -1.511  -0.354  -1.390  0.00  0.00    -0.244 OA
BRANCH  21  23
ATOM     23  O   UNL     1      -2.692   1.363  -0.614  0.00  0.00    -0.461 OA
BRANCH  23  25
ATOM     24  C   UNL     1      -1.864   3.616  -0.335  0.00  0.00    +0.048 C 
ATOM     25  C   UNL     1      -1.537   2.189  -0.777  0.00  0.00    +0.229 C 
ENDBRANCH  23  25
ENDBRANCH  21  23
ENDBRANCH   1  21
BRANCH   8  26
ATOM     26  C   UNL     1     -10.885  -2.269   1.043  0.00  0.00    +0.213 C 
ATOM     27  O   UNL     1     -11.698  -1.763   0.287  0.00  0.00    -0.285 OA
BRANCH  26  28
ATOM     28  C   UNL     1     -11.233  -2.516   2.394  0.00  0.00    +0.116 A 
ATOM     29  C   UNL     1     -10.391  -2.971   3.401  0.00  0.00    +0.068 A 
ATOM     30  N   UNL     1     -11.095  -3.071   4.515  0.00  0.00    -0.232 NA
ATOM     31  C   UNL     1     -12.357  -2.705   4.287  0.00  0.00    +0.138 A 
ATOM     32  N   UNL     1     -12.477  -2.347   2.974  0.00  0.00    -0.296 N 
ATOM     33  C   UNL     1     -13.670  -1.925   2.477  0.00  0.00    +0.093 A 
ATOM     34  C   UNL     1     -14.761  -1.848   3.274  0.00  0.00    +0.018 A 
ATOM     35  C   UNL     1     -14.671  -2.205   4.626  0.00  0.00    +0.005 A 
ATOM     36  C   UNL     1     -13.479  -2.637   5.130  0.00  0.00    +0.047 A 
ATOM     37  C   UNL     1      -8.927  -3.294   3.249  0.00  0.00    +0.068 C 
ENDBRANCH  26  28
ENDBRANCH   8  26
TORSDOF 6
