REMARK  Name = ZINC08743948
REMARK  10 active torsions:
REMARK  status: ('A' for Active; 'I' for Inactive)
REMARK    1  A    between atoms: C_1  and  C_2
REMARK    2  A    between atoms: C_3  and  C_27
REMARK    3  A    between atoms: C_4  and  C_21
REMARK    4  A    between atoms: C_6  and  C_19
REMARK    5  A    between atoms: C_7  and  S_9
REMARK    6  A    between atoms: S_9  and  C_10
REMARK    7  A    between atoms: C_10  and  C_11
REMARK    8  A    between atoms: N_29  and  C_30
REMARK    9  A    between atoms: C_35  and  O_36
REMARK   10  A    between atoms: O_36  and  C_37
REMARK                            x       y       z     vdW  Elec       q    Type
REMARK                         _______ _______ _______ _____ _____    ______ ____
ROOT
ATOM      1  C   UNL     1       5.943   2.031  -0.213  0.00  0.00    +0.061 C 
ATOM      2  C   UNL     1       5.853   3.534  -0.162  0.00  0.00    +0.014 C 
ATOM      3  C   UNL     1       4.648   4.122  -0.089  0.00  0.00    +0.044 C 
ATOM      4  C   UNL     1       4.499   5.615  -0.040  0.00  0.00    +0.098 C 
ATOM      5  C   UNL     1       5.806   6.272   0.305  0.00  0.00    +0.069 C 
ATOM      6  C   UNL     1       6.982   5.595   0.212  0.00  0.00    +0.080 C 
ATOM      7  N   UNL     1       7.000   4.280  -0.196  0.00  0.00    -0.312 N 
ATOM      8  H   UNL     1       7.939   3.828  -0.550  0.00  0.00    +0.152 HD
ENDROOT
BRANCH   4   9
ATOM      9  C   UNL     1       4.035   6.112  -1.384  0.00  0.00    -0.035 A 
ATOM     10  C   UNL     1       4.810   5.892  -2.508  0.00  0.00    +0.004 A 
ATOM     11  C   UNL     1       4.382   6.343  -3.742  0.00  0.00    +0.000 A 
ATOM     12  C   UNL     1       3.183   7.024  -3.852  0.00  0.00    +0.000 A 
ATOM     13  C   UNL     1       2.411   7.249  -2.727  0.00  0.00    +0.000 A 
ATOM     14  C   UNL     1       2.837   6.794  -1.494  0.00  0.00    +0.004 A 
ENDBRANCH   4   9
BRANCH   3  15
ATOM     15  C   UNL     1       3.487   3.312  -0.052  0.00  0.00    +0.247 C 
ATOM     16  O   UNL     1       2.847   3.213   0.979  0.00  0.00    -0.270 OA
ATOM     17  N   UNL     1       3.092   2.651  -1.158  0.00  0.00    -0.279 N 
ATOM     18  H   UNL     1       3.704   2.690  -2.071  0.00  0.00    +0.155 HD
BRANCH  17  19
ATOM     19  C   UNL     1       1.900   1.915  -1.145  0.00  0.00    +0.076 A 
ATOM     20  C   UNL     1       1.498   1.263   0.011  0.00  0.00    +0.027 A 
ATOM     21  C   UNL     1       0.322   0.538   0.022  0.00  0.00    +0.002 A 
ATOM     22  C   UNL     1      -0.454   0.455  -1.120  0.00  0.00    +0.004 A 
ATOM     23  C   UNL     1      -0.062   1.107  -2.275  0.00  0.00    +0.047 A 
ATOM     24  C   UNL     1       1.116   1.836  -2.294  0.00  0.00    +0.141 A 
BRANCH  24  25
ATOM     25  O   UNL     1       1.505   2.473  -3.430  0.00  0.00    -0.493 OA
ATOM     26  C   UNL     1       0.651   2.347  -4.569  0.00  0.00    +0.277 C 
ENDBRANCH  24  25
ENDBRANCH  17  19
ENDBRANCH   3  15
BRANCH   5  27
ATOM     27  C   UNL     1       5.814   7.636   0.741  0.00  0.00    +0.098 C 
ATOM     28  N   UNL     1       5.820   8.718   1.087  0.00  0.00    -0.191 NA
ENDBRANCH   5  27
BRANCH   6  29
ATOM     29  S   UNL     1       8.493   6.406   0.617  0.00  0.00    -0.100 S 
BRANCH  29  30
ATOM     30  C   UNL     1       9.664   5.059   0.314  0.00  0.00    +0.171 C 
BRANCH  30  31
ATOM     31  C   UNL     1      11.064   5.536   0.603  0.00  0.00    +0.229 C 
ATOM     32  O   UNL     1      11.251   6.675   0.977  0.00  0.00    -0.275 OA
ATOM     33  N   UNL     1      12.107   4.698   0.447  0.00  0.00    -0.264 N 
ATOM     34  C   UNL     1      13.398   5.138   0.713  0.00  0.00    +0.164 A 
ATOM     35  N   UNL     1      13.802   6.326   1.118  0.00  0.00    -0.233 NA
ATOM     36  C   UNL     1      15.079   6.579   1.330  0.00  0.00    +0.120 A 
ATOM     37  C   UNL     1      15.978   5.588   1.112  0.00  0.00    +0.068 A 
ATOM     38  S   UNL     1      14.895   4.266   0.591  0.00  0.00    -0.061 S 
ATOM     39  H   UNL     1      11.937   3.665   0.108  0.00  0.00    +0.157 HD
ENDBRANCH  30  31
ENDBRANCH  29  30
ENDBRANCH   6  29
TORSDOF 8
