REMARK  Name = ZINC17133584
REMARK  15 active torsions:
REMARK  status: ('A' for Active; 'I' for Inactive)
REMARK    1  A    between atoms: C_1  and  C_2
REMARK    2  A    between atoms: C_3  and  C_32
REMARK    3  A    between atoms: C_5  and  N_25
REMARK    4  A    between atoms: C_6  and  C_7
REMARK    5  A    between atoms: C_7  and  O_9
REMARK    6  A    between atoms: O_9  and  C_10
REMARK    7  A    between atoms: C_10  and  C_12
REMARK    8  A    between atoms: C_10  and  C_13
REMARK    9  A    between atoms: N_15  and  C_16
REMARK   10  A    between atoms: C_21  and  O_22
REMARK   11  A    between atoms: O_22  and  C_23
REMARK   12  A    between atoms: C_26  and  C_28
REMARK   13  A    between atoms: C_28  and  C_29
REMARK   14  A    between atoms: C_28  and  C_30
REMARK   15  A    between atoms: C_28  and  C_31
REMARK                            x       y       z     vdW  Elec       q    Type
REMARK                         _______ _______ _______ _____ _____    ______ ____
ROOT
ATOM      1  C   UNL     1      -7.142  -0.521   0.429  0.00  0.00    +0.343 C 
ATOM      2  O   UNL     1      -7.238   0.613   0.859  0.00  0.00    -0.245 OA
ENDROOT
BRANCH   1   8
ATOM      3  C   UNL     1      -7.564  -2.295   2.809  0.00  0.00    +0.045 C 
ATOM      4  C   UNL     1      -8.508  -2.290   1.634  0.00  0.00    -0.025 A 
ATOM      5  C   UNL     1      -9.594  -3.083   1.604  0.00  0.00    -0.008 A 
ATOM      6  S   UNL     1     -10.339  -2.699   0.033  0.00  0.00    -0.078 S 
ATOM      7  C   UNL     1      -9.219  -1.508  -0.536  0.00  0.00    +0.086 A 
ATOM      8  C   UNL     1      -8.289  -1.429   0.496  0.00  0.00    +0.091 A 
ATOM      9  C   UNL     1     -10.063  -4.066   2.646  0.00  0.00    +0.052 C 
BRANCH   7  10
ATOM     10  N   UNL     1      -9.242  -0.805  -1.730  0.00  0.00    -0.279 N 
ATOM     11  C   UNL     1     -10.233  -1.018  -2.618  0.00  0.00    +0.223 C 
ATOM     12  O   UNL     1     -11.104  -1.824  -2.373  0.00  0.00    -0.275 OA
ATOM     13  H   UNL     1      -8.544  -0.160  -1.926  0.00  0.00    +0.155 HD
BRANCH  11  14
ATOM     14  C   UNL     1     -10.258  -0.253  -3.917  0.00  0.00    +0.039 C 
ATOM     15  C   UNL     1     -11.477  -0.680  -4.736  0.00  0.00    +0.020 C 
ATOM     16  C   UNL     1     -10.339   1.246  -3.624  0.00  0.00    +0.020 C 
ATOM     17  C   UNL     1      -8.982  -0.550  -4.708  0.00  0.00    +0.020 C 
ENDBRANCH  11  14
ENDBRANCH   7  10
ENDBRANCH   1   8
BRANCH   1  18
ATOM     18  O   UNL     1      -5.979  -0.942  -0.109  0.00  0.00    -0.449 OA
BRANCH  18  19
ATOM     19  C   UNL     1      -4.885   0.011  -0.143  0.00  0.00    +0.259 C 
ATOM     20  C   UNL     1      -4.936   0.801  -1.452  0.00  0.00    +0.062 C 
BRANCH  19  21
ATOM     21  C   UNL     1      -3.574  -0.726  -0.052  0.00  0.00    +0.258 C 
ATOM     22  O   UNL     1      -3.558  -1.939  -0.059  0.00  0.00    -0.271 OA
ATOM     23  N   UNL     1      -2.418  -0.038   0.037  0.00  0.00    -0.279 N 
ATOM     24  H   UNL     1      -2.435   0.928   0.123  0.00  0.00    +0.155 HD
BRANCH  23  25
ATOM     25  C   UNL     1      -1.193  -0.717   0.004  0.00  0.00    +0.077 A 
ATOM     26  C   UNL     1      -1.103  -1.957  -0.611  0.00  0.00    +0.047 A 
ATOM     27  C   UNL     1       0.106  -2.629  -0.637  0.00  0.00    +0.043 A 
ATOM     28  C   UNL     1       1.227  -2.064  -0.054  0.00  0.00    +0.024 A 
ATOM     29  C   UNL     1       1.145  -0.826   0.555  0.00  0.00    +0.049 A 
ATOM     30  C   UNL     1      -0.063  -0.147   0.585  0.00  0.00    +0.141 A 
ATOM     31 CL   UNL     1       0.217  -4.184  -1.401  0.00  0.00    -0.083 Cl
BRANCH  30  32
ATOM     32  O   UNL     1      -0.146   1.070   1.185  0.00  0.00    -0.493 OA
ATOM     33  C   UNL     1       1.052   1.590   1.765  0.00  0.00    +0.277 C 
ENDBRANCH  30  32
ENDBRANCH  23  25
ENDBRANCH  19  21
ENDBRANCH  18  19
ENDBRANCH   1  18
TORSDOF 8
