REMARK  Name = ZINC22036805
REMARK  6 active torsions:
REMARK  status: ('A' for Active; 'I' for Inactive)
REMARK    1  A    between atoms: C_6  and  N_7
REMARK    2  A    between atoms: C_8  and  C_10
REMARK    3  A    between atoms: C_10  and  N_11
REMARK    4  A    between atoms: N_15  and  C_18
REMARK    5  A    between atoms: C_18  and  C_19
REMARK    6  A    between atoms: N_21  and  C_22
REMARK                            x       y       z     vdW  Elec       q    Type
REMARK                         _______ _______ _______ _____ _____    ______ ____
ROOT
ATOM      1  N   UNL     1      -1.595  -4.316  -0.676  0.00  0.00    +0.386 N 
ATOM      2  C   UNL     1      -0.952  -4.786   0.528  0.00  0.00    -0.077 C 
ATOM      3  C   UNL     1      -0.044  -6.001   0.258  0.00  0.00    -0.003 C 
ATOM      4  C   UNL     1      -0.688  -6.998  -0.727  0.00  0.00    +0.083 C 
ATOM      5  N   UNL     1      -2.094  -7.207  -0.479  0.00  0.00    -0.296 NA
ATOM      6  C   UNL     1      -2.907  -6.285  -1.312  0.00  0.00    +0.066 C 
ATOM      7  C   UNL     1      -2.933  -4.935  -0.753  0.00  0.00    -0.063 C 
ATOM      8  H   UNL     1      -1.049  -4.583  -1.481  0.00  0.00    -0.081 HD
ENDROOT
BRANCH   1   9
ATOM      9  C   UNL     1      -1.727  -2.853  -0.629  0.00  0.00    +0.019 C 
BRANCH   9  11
ATOM     10  N   UNL     1      -0.233  -0.882  -0.643  0.00  0.00    -0.287 N 
ATOM     11  C   UNL     1      -0.359  -2.224  -0.675  0.00  0.00    +0.201 C 
ATOM     12  O   UNL     1       0.629  -2.925  -0.739  0.00  0.00    -0.278 OA
ATOM     13  H   UNL     1      -1.016  -0.325  -0.517  0.00  0.00    +0.155 HD
BRANCH  10  19
ATOM     14  C   UNL     1       1.983  -0.893  -1.606  0.00  0.00    +0.026 A 
ATOM     15  C   UNL     1       3.227  -0.310  -1.753  0.00  0.00    +0.040 A 
ATOM     16  C   UNL     1       3.523   0.869  -1.091  0.00  0.00    +0.124 A 
ATOM     17  C   UNL     1       2.573   1.467  -0.280  0.00  0.00    +0.040 A 
ATOM     18  C   UNL     1       1.328   0.888  -0.130  0.00  0.00    +0.026 A 
ATOM     19  C   UNL     1       1.029  -0.294  -0.794  0.00  0.00    +0.033 A 
ATOM     20  F   UNL     1       4.740   1.437  -1.236  0.00  0.00    -0.205 F 
ENDBRANCH  10  19
ENDBRANCH   9  11
ENDBRANCH   1   9
BRANCH   5  21
ATOM     21  C   UNL     1      -2.470  -8.606  -0.723  0.00  0.00    +0.180 C 
BRANCH  21  22
ATOM     22  C   UNL     1      -1.793  -9.491   0.291  0.00  0.00    +0.231 C 
ATOM     23  O   UNL     1      -1.068  -9.005   1.134  0.00  0.00    -0.274 OA
ATOM     24  N   UNL     1      -1.992 -10.824   0.262  0.00  0.00    -0.284 N 
ATOM     25  H   UNL     1      -2.511 -11.221  -0.455  0.00  0.00    +0.155 HD
BRANCH  24  26
ATOM     26  C   UNL     1      -1.451 -11.635   1.267  0.00  0.00    +0.034 A 
ATOM     27  C   UNL     1      -1.027 -12.923   0.968  0.00  0.00    +0.026 A 
ATOM     28  C   UNL     1      -0.493 -13.721   1.961  0.00  0.00    +0.040 A 
ATOM     29  C   UNL     1      -0.382 -13.238   3.254  0.00  0.00    +0.124 A 
ATOM     30  C   UNL     1      -0.804 -11.954   3.554  0.00  0.00    +0.040 A 
ATOM     31  C   UNL     1      -1.333 -11.150   2.563  0.00  0.00    +0.026 A 
ATOM     32  F   UNL     1       0.140 -14.021   4.223  0.00  0.00    -0.205 F 
ENDBRANCH  24  26
ENDBRANCH  21  22
ENDBRANCH   5  21
TORSDOF 6
