REMARK  Name = ZINC09585613
REMARK  6 active torsions:
REMARK  status: ('A' for Active; 'I' for Inactive)
REMARK    1  A    between atoms: C_4  and  C_7
REMARK    2  A    between atoms: C_7  and  C_8
REMARK    3  A    between atoms: C_8  and  C_30
REMARK    4  A    between atoms: N_11  and  C_15
REMARK    5  A    between atoms: C_15  and  C_16
REMARK    6  A    between atoms: N_18  and  C_19
REMARK                            x       y       z     vdW  Elec       q    Type
REMARK                         _______ _______ _______ _____ _____    ______ ____
ROOT
ATOM      1  C   UNL     1       3.834  -0.206   0.379  0.00  0.00    +0.142 C 
ATOM      2  C   UNL     1       4.232  -0.734   1.742  0.00  0.00    +0.252 C 
ATOM      3  O   UNL     1       4.454  -0.085   2.743  0.00  0.00    -0.272 OA
ATOM      4  N   UNL     1       4.288  -2.077   1.608  0.00  0.00    -0.215 N 
ATOM      5  C   UNL     1       3.986  -2.462   0.363  0.00  0.00    +0.310 C 
ATOM      6  O   UNL     1       3.970  -3.622  -0.001  0.00  0.00    -0.252 OA
ATOM      7  N   UNL     1       3.701  -1.422  -0.442  0.00  0.00    -0.281 N 
ATOM      8  H   UNL     1       3.457  -1.465  -1.380  0.00  0.00    +0.152 HD
ENDROOT
BRANCH   1   9
ATOM      9  C   UNL     1       2.519   0.527   0.457  0.00  0.00    -0.015 A 
ATOM     10  C   UNL     1       1.331  -0.169   0.326  0.00  0.00    +0.006 A 
ATOM     11  C   UNL     1       0.126   0.503   0.398  0.00  0.00    +0.000 A 
ATOM     12  C   UNL     1       0.107   1.870   0.602  0.00  0.00    +0.000 A 
ATOM     13  C   UNL     1       1.294   2.565   0.734  0.00  0.00    +0.000 A 
ATOM     14  C   UNL     1       2.501   1.894   0.660  0.00  0.00    +0.006 A 
ENDBRANCH   1   9
BRANCH   1  15
ATOM     15  C   UNL     1       4.924   0.708  -0.185  0.00  0.00    +0.075 C 
BRANCH  15  19
ATOM     16  C   UNL     1       8.527  -1.528  -0.704  0.00  0.00    +0.000 A 
ATOM     17  C   UNL     1       7.607  -1.451  -1.733  0.00  0.00    +0.000 A 
ATOM     18  C   UNL     1       6.441  -0.727  -1.565  0.00  0.00    +0.004 A 
ATOM     19  C   UNL     1       6.195  -0.081  -0.368  0.00  0.00    -0.045 A 
ATOM     20  C   UNL     1       7.117  -0.154   0.659  0.00  0.00    +0.004 A 
ATOM     21  C   UNL     1       8.281  -0.881   0.492  0.00  0.00    +0.000 A 
ENDBRANCH  15  19
ENDBRANCH   1  15
BRANCH   4  22
ATOM     22  C   UNL     1       4.639  -2.998   2.692  0.00  0.00    +0.214 C 
BRANCH  22  23
ATOM     23  C   UNL     1       6.130  -3.219   2.701  0.00  0.00    +0.235 C 
ATOM     24  O   UNL     1       6.830  -2.661   1.882  0.00  0.00    -0.274 OA
ATOM     25  N   UNL     1       6.684  -4.035   3.618  0.00  0.00    -0.284 N 
ATOM     26  H   UNL     1       6.136  -4.420   4.319  0.00  0.00    +0.155 HD
BRANCH  25  27
ATOM     27  C   UNL     1       8.053  -4.327   3.559  0.00  0.00    +0.037 A 
ATOM     28  C   UNL     1       8.692  -4.415   2.330  0.00  0.00    +0.027 A 
ATOM     29  C   UNL     1      10.043  -4.697   2.270  0.00  0.00    +0.051 A 
ATOM     30  C   UNL     1      10.762  -4.905   3.436  0.00  0.00    +0.173 A 
ATOM     31  C   UNL     1      10.123  -4.824   4.671  0.00  0.00    +0.174 A 
ATOM     32  C   UNL     1       8.770  -4.535   4.730  0.00  0.00    +0.073 A 
ATOM     33  O   UNL     1      11.039  -5.066   5.654  0.00  0.00    -0.395 OA
ATOM     34  C   UNL     1      12.326  -4.893   5.031  0.00  0.00    +0.589 C 
ATOM     35  O   UNL     1      12.079  -5.200   3.646  0.00  0.00    -0.395 OA
ATOM     36  F   UNL     1      12.766  -3.573   5.172  0.00  0.00    -0.125 F 
ATOM     37  F   UNL     1      13.259  -5.782   5.576  0.00  0.00    -0.125 F 
ENDBRANCH  25  27
ENDBRANCH  22  23
ENDBRANCH   4  22
TORSDOF 6
