REMARK  Name = ZINC33018994
REMARK  9 active torsions:
REMARK  status: ('A' for Active; 'I' for Inactive)
REMARK    1  A    between atoms: C_1  and  C_2
REMARK    2  A    between atoms: C_6  and  N_8
REMARK    3  A    between atoms: C_9  and  C_11
REMARK    4  A    between atoms: C_11  and  S_12
REMARK    5  A    between atoms: S_12  and  C_13
REMARK    6  A    between atoms: C_18  and  N_22
REMARK    7  A    between atoms: N_25  and  C_26
REMARK    8  A    between atoms: C_30  and  S_32
REMARK    9  A    between atoms: S_32  and  C_33
REMARK                            x       y       z     vdW  Elec       q    Type
REMARK                         _______ _______ _______ _____ _____    ______ ____
ROOT
ATOM      1  C   UNL     1      -5.687   0.998  -1.214  0.00  0.00    +0.136 A 
ATOM      2  N   UNL     1      -5.526  -0.228  -0.771  0.00  0.00    -0.233 NA
ATOM      3  C   UNL     1      -6.567  -1.015  -0.418  0.00  0.00    +0.080 A 
ATOM      4  C   UNL     1      -6.531  -2.342   0.070  0.00  0.00    +0.031 A 
ATOM      5  C   UNL     1      -7.687  -3.006   0.385  0.00  0.00    +0.025 A 
ATOM      6  C   UNL     1      -8.934  -2.403   0.238  0.00  0.00    +0.036 A 
ATOM      7  C   UNL     1      -9.004  -1.100  -0.239  0.00  0.00    +0.040 A 
ATOM      8  C   UNL     1      -7.848  -0.433  -0.555  0.00  0.00    +0.042 A 
ATOM      9  S   UNL     1      -7.463   1.190  -1.169  0.00  0.00    -0.061 S 
ENDROOT
BRANCH   6  10
ATOM     10  N   UNL     1     -10.103  -3.102   0.567  0.00  0.00    -0.269 N 
ATOM     11  C   UNL     1     -11.167  -2.439   1.064  0.00  0.00    +0.308 C 
ATOM     12  O   UNL     1     -11.081  -1.253   1.315  0.00  0.00    -0.252 OA
ATOM     13  N   UNL     1     -12.325  -3.093   1.283  0.00  0.00    -0.269 N 
ATOM     14  H   UNL     1     -10.153  -4.191   0.420  0.00  0.00    +0.156 HD
ATOM     15  H   UNL     1     -12.381  -4.180   1.128  0.00  0.00    +0.156 HD
BRANCH  13  16
ATOM     16  C   UNL     1     -13.457  -2.387   1.708  0.00  0.00    +0.036 A 
ATOM     17  C   UNL     1     -14.716  -2.753   1.250  0.00  0.00    +0.023 A 
ATOM     18  C   UNL     1     -15.835  -2.060   1.672  0.00  0.00    +0.003 A 
ATOM     19  C   UNL     1     -15.704  -0.996   2.542  0.00  0.00    +0.015 A 
ATOM     20  C   UNL     1     -14.446  -0.621   3.000  0.00  0.00    +0.009 A 
ATOM     21  C   UNL     1     -13.321  -1.319   2.581  0.00  0.00    +0.038 A 
BRANCH  20  22
ATOM     22  S   UNL     1     -14.280   0.738   4.109  0.00  0.00    -0.129 S 
ATOM     23  C   UNL     1     -15.982   1.313   4.357  0.00  0.00    +0.090 C 
ENDBRANCH  20  22
ENDBRANCH  13  16
ENDBRANCH   6  10
BRANCH   1  24
ATOM     24  S   UNL     1      -4.462   2.161  -1.717  0.00  0.00    -0.089 S 
BRANCH  24  25
ATOM     25  C   UNL     1      -2.966   1.179  -1.446  0.00  0.00    +0.172 C 
BRANCH  25  27
ATOM     26  N   UNL     1      -0.522   1.464  -1.699  0.00  0.00    -0.285 N 
ATOM     27  C   UNL     1      -1.755   1.995  -1.820  0.00  0.00    +0.227 C 
ATOM     28  O   UNL     1      -1.891   3.128  -2.230  0.00  0.00    -0.275 OA
ATOM     29  H   UNL     1      -0.402   0.413  -1.398  0.00  0.00    +0.155 HD
BRANCH  26  35
ATOM     30  C   UNL     1       4.134   2.655  -0.662  0.00  0.00    +0.044 C 
ATOM     31  C   UNL     1       2.876   2.849  -1.470  0.00  0.00    -0.049 A 
ATOM     32  C   UNL     1       2.837   3.806  -2.467  0.00  0.00    +0.003 A 
ATOM     33  C   UNL     1       1.685   3.988  -3.210  0.00  0.00    +0.002 A 
ATOM     34  C   UNL     1       0.571   3.209  -2.962  0.00  0.00    +0.023 A 
ATOM     35  C   UNL     1       0.606   2.251  -1.957  0.00  0.00    +0.034 A 
ATOM     36  C   UNL     1       1.765   2.071  -1.213  0.00  0.00    +0.026 A 
ENDBRANCH  26  35
ENDBRANCH  25  27
ENDBRANCH  24  25
ENDBRANCH   1  24
TORSDOF 7
