REMARK  Name = ZINC43218817
REMARK  6 active torsions:
REMARK  status: ('A' for Active; 'I' for Inactive)
REMARK    1  A    between atoms: C_4  and  C_7
REMARK    2  A    between atoms: C_7  and  C_37
REMARK    3  A    between atoms: C_12  and  C_15
REMARK    4  A    between atoms: C_19  and  O_21
REMARK    5  A    between atoms: O_21  and  C_22
REMARK    6  A    between atoms: N_28  and  C_31
REMARK                            x       y       z     vdW  Elec       q    Type
REMARK                         _______ _______ _______ _____ _____    ______ ____
ROOT
ATOM      1  C   UNL     1       3.711  -0.707  -0.038  0.00  0.00    +0.074 C 
ATOM      2  C   UNL     1       3.635  -1.965   0.853  0.00  0.00    +0.090 C 
ATOM      3  C   UNL     1       5.032  -2.063   1.523  0.00  0.00    +0.077 C 
ATOM      4  C   UNL     1       5.825  -0.864   0.963  0.00  0.00    -0.026 C 
ATOM      5  N   UNL     1       4.778   0.125   0.576  0.00  0.00    +0.398 N 
ATOM      6  C   UNL     1       4.732  -1.839   2.989  0.00  0.00    +0.225 C 
ATOM      7  O   UNL     1       5.554  -1.833   3.879  0.00  0.00    -0.275 OA
ATOM      8  N   UNL     1       3.417  -1.646   3.148  0.00  0.00    -0.239 N 
ATOM      9  C   UNL     1       2.694  -1.702   2.006  0.00  0.00    +0.225 C 
ATOM     10  O   UNL     1       1.493  -1.563   1.913  0.00  0.00    -0.275 OA
ATOM     11  H   UNL     1       5.148   0.778  -0.099  0.00  0.00    -0.083 HD
ATOM     12  H   UNL     1       4.423   0.613   1.384  0.00  0.00    -0.083 HD
ENDROOT
BRANCH   1  16
ATOM     13  C   UNL     1      -0.016   1.379   0.010  0.00  0.00    +0.000 A 
ATOM     14  C   UNL     1       1.113   1.968   0.548  0.00  0.00    +0.000 A 
ATOM     15  C   UNL     1       2.319   1.293   0.533  0.00  0.00    +0.003 A 
ATOM     16  C   UNL     1       2.396   0.029  -0.020  0.00  0.00    -0.047 A 
ATOM     17  C   UNL     1       1.267  -0.561  -0.558  0.00  0.00    +0.003 A 
ATOM     18  C   UNL     1       0.061   0.115  -0.544  0.00  0.00    +0.000 A 
ENDBRANCH   1  16
BRANCH   4  19
ATOM     19  C   UNL     1       6.713  -0.278   2.030  0.00  0.00    -0.057 A 
ATOM     20  C   UNL     1       6.181   0.572   2.982  0.00  0.00    +0.002 A 
ATOM     21  C   UNL     1       6.994   1.111   3.962  0.00  0.00    +0.004 A 
ATOM     22  C   UNL     1       8.340   0.803   3.992  0.00  0.00    +0.046 A 
ATOM     23  C   UNL     1       8.877  -0.049   3.037  0.00  0.00    +0.130 A 
ATOM     24  C   UNL     1       8.058  -0.594   2.058  0.00  0.00    +0.048 A 
BRANCH  23  25
ATOM     25  O   UNL     1      10.201  -0.354   3.064  0.00  0.00    -0.406 OA
BRANCH  25  26
ATOM     26  C   UNL     1      10.982   0.239   4.104  0.00  0.00    +0.575 C 
ATOM     27  F   UNL     1      10.480  -0.157   5.348  0.00  0.00    -0.133 F 
ATOM     28  F   UNL     1      12.312  -0.178   3.983  0.00  0.00    -0.133 F 
ATOM     29  F   UNL     1      10.919   1.633   3.998  0.00  0.00    -0.133 F 
ENDBRANCH  25  26
ENDBRANCH  23  25
ENDBRANCH   4  19
BRANCH   8  30
ATOM     30  C   UNL     1       2.806  -1.401   4.457  0.00  0.00    +0.084 C 
ATOM     31  C   UNL     1       3.081  -2.591   5.379  0.00  0.00    +0.023 C 
ATOM     32  C   UNL     1       2.443  -2.335   6.746  0.00  0.00    +0.002 C 
ATOM     33  C   UNL     1       3.039  -1.066   7.358  0.00  0.00    +0.000 C 
ATOM     34  C   UNL     1       2.764   0.123   6.436  0.00  0.00    +0.002 C 
ATOM     35  C   UNL     1       3.403  -0.133   5.069  0.00  0.00    +0.023 C 
ENDBRANCH   8  30
BRANCH   1  36
ATOM     36  C   UNL     1       4.083  -1.081  -1.449  0.00  0.00    +0.350 C 
ATOM     37  O   UNL     1       5.114  -0.654  -1.941  0.00  0.00    -0.248 OA
ATOM     38  O   UNL     1       3.354  -1.811  -2.099  0.00  0.00    -0.248 OA
ENDBRANCH   1  36
TORSDOF 6
