REMARK  Name = ZINC13266507
REMARK  6 active torsions:
REMARK  status: ('A' for Active; 'I' for Inactive)
REMARK    1  A    between atoms: C_6  and  N_7
REMARK    2  A    between atoms: C_13  and  C_31
REMARK    3  A    between atoms: C_17  and  S_18
REMARK    4  A    between atoms: S_18  and  C_19
REMARK    5  A    between atoms: C_19  and  C_20
REMARK    6  A    between atoms: N_22  and  C_23
REMARK                            x       y       z     vdW  Elec       q    Type
REMARK                         _______ _______ _______ _____ _____    ______ ____
ROOT
ATOM      1  N   UNL     1      -6.413   2.609  -0.140  0.00  0.00    -0.255 N 
ATOM      2  C   UNL     1      -5.334   3.424  -0.165  0.00  0.00    +0.267 A 
ATOM      3  O   UNL     1      -5.459   4.635  -0.204  0.00  0.00    -0.267 OA
ATOM      4  C   UNL     1      -4.004   2.796  -0.142  0.00  0.00    +0.065 A 
ATOM      5  C   UNL     1      -2.834   3.555  -0.165  0.00  0.00    +0.016 A 
ATOM      6  C   UNL     1      -1.619   2.934  -0.137  0.00  0.00    +0.016 A 
ATOM      7  C   UNL     1      -1.533   1.536  -0.097  0.00  0.00    +0.065 A 
ATOM      8  C   UNL     1      -2.685   0.760  -0.074  0.00  0.00    +0.043 A 
ATOM      9  C   UNL     1      -3.935   1.385  -0.097  0.00  0.00    +0.080 A 
ATOM     10  N   UNL     1      -5.083   0.668  -0.076  0.00  0.00    -0.223 NA
ATOM     11  C   UNL     1      -6.256   1.251  -0.097  0.00  0.00    +0.177 A 
ENDROOT
BRANCH   1  17
ATOM     12  C   UNL     1      -8.529   2.951  -1.256  0.00  0.00    +0.029 A 
ATOM     13  C   UNL     1      -9.801   3.490  -1.271  0.00  0.00    +0.040 A 
ATOM     14  C   UNL     1     -10.246   4.247  -0.201  0.00  0.00    +0.124 A 
ATOM     15  C   UNL     1      -9.420   4.461   0.890  0.00  0.00    +0.040 A 
ATOM     16  C   UNL     1      -8.150   3.919   0.912  0.00  0.00    +0.029 A 
ATOM     17  C   UNL     1      -7.701   3.159  -0.161  0.00  0.00    +0.052 A 
ATOM     18  F   UNL     1     -11.488   4.778  -0.220  0.00  0.00    -0.205 F 
ENDBRANCH   1  17
BRANCH   7  19
ATOM     19  C   UNL     1      -0.206   0.883  -0.073  0.00  0.00    +0.387 C 
ATOM     20  O   UNL     1      -0.127  -0.328  -0.033  0.00  0.00    -0.241 OA
ATOM     21  O   UNL     1       0.914   1.631  -0.100  0.00  0.00    -0.241 OA
ENDBRANCH   7  19
BRANCH  11  22
ATOM     22  S   UNL     1      -7.698   0.239  -0.067  0.00  0.00    -0.078 S 
BRANCH  22  23
ATOM     23  C   UNL     1      -6.931  -1.400  -0.014  0.00  0.00    +0.173 C 
BRANCH  23  24
ATOM     24  C   UNL     1      -8.006  -2.456   0.018  0.00  0.00    +0.228 C 
ATOM     25  O   UNL     1      -9.175  -2.133   0.006  0.00  0.00    -0.275 OA
ATOM     26  N   UNL     1      -7.667  -3.760   0.060  0.00  0.00    -0.283 N 
ATOM     27  H   UNL     1      -6.737  -4.017   0.155  0.00  0.00    +0.155 HD
BRANCH  26  28
ATOM     28  C   UNL     1      -8.660  -4.745  -0.033  0.00  0.00    +0.069 A 
ATOM     29  C   UNL     1      -9.784  -4.527  -0.818  0.00  0.00    +0.029 A 
ATOM     30  C   UNL     1     -10.761  -5.499  -0.909  0.00  0.00    +0.040 A 
ATOM     31  C   UNL     1     -10.621  -6.691  -0.219  0.00  0.00    +0.126 A 
ATOM     32  C   UNL     1      -9.501  -6.912   0.565  0.00  0.00    +0.078 A 
ATOM     33  C   UNL     1      -8.518  -5.944   0.656  0.00  0.00    +0.147 A 
ATOM     34  F   UNL     1      -7.423  -6.162   1.416  0.00  0.00    -0.203 F 
ATOM     35  F   UNL     1     -11.578  -7.640  -0.310  0.00  0.00    -0.205 F 
ENDBRANCH  26  28
ENDBRANCH  23  24
ENDBRANCH  22  23
ENDBRANCH  11  22
TORSDOF 6
