REMARK  Name = ZINC08833062
REMARK  9 active torsions:
REMARK  status: ('A' for Active; 'I' for Inactive)
REMARK    1  A    between atoms: C_1  and  C_2
REMARK    2  A    between atoms: C_6  and  C_10
REMARK    3  A    between atoms: C_7  and  O_8
REMARK    4  A    between atoms: O_8  and  C_9
REMARK    5  A    between atoms: N_12  and  C_13
REMARK    6  A    between atoms: C_13  and  N_15
REMARK    7  A    between atoms: N_15  and  C_16
REMARK    8  A    between atoms: C_19  and  N_22
REMARK    9  A    between atoms: C_23  and  C_25
REMARK                            x       y       z     vdW  Elec       q    Type
REMARK                         _______ _______ _______ _____ _____    ______ ____
ROOT
ATOM      1  C   UNL     1       1.229   2.216   0.032  0.00  0.00    +0.033 A 
ATOM      2  C   UNL     1       0.687   1.482   1.079  0.00  0.00    +0.025 A 
ATOM      3  C   UNL     1       0.695   0.102   1.032  0.00  0.00    +0.025 A 
ATOM      4  C   UNL     1       1.244  -0.552  -0.063  0.00  0.00    +0.034 A 
ATOM      5  C   UNL     1       1.785   0.182  -1.111  0.00  0.00    +0.025 A 
ATOM      6  C   UNL     1       1.778   1.561  -1.063  0.00  0.00    +0.025 A 
ENDROOT
BRANCH   4   7
ATOM      7  N   UNL     1       1.252  -1.951  -0.111  0.00  0.00    -0.281 N 
ATOM      8  C   UNL     1       0.211  -2.649   0.384  0.00  0.00    +0.250 C 
ATOM      9  O   UNL     1      -0.700  -2.067   0.943  0.00  0.00    -0.270 OA
ATOM     10  H   UNL     1       2.007  -2.419  -0.501  0.00  0.00    +0.155 HD
BRANCH   8  11
ATOM     11  C   UNL     1       0.175  -4.119   0.248  0.00  0.00    +0.055 A 
ATOM     12  C   UNL     1       1.218  -4.790  -0.393  0.00  0.00    +0.016 A 
ATOM     13  C   UNL     1       1.179  -6.162  -0.517  0.00  0.00    +0.021 A 
ATOM     14  C   UNL     1       0.108  -6.877  -0.006  0.00  0.00    +0.042 A 
ATOM     15  C   UNL     1      -0.930  -6.219   0.631  0.00  0.00    +0.040 A 
ATOM     16  C   UNL     1      -0.901  -4.845   0.766  0.00  0.00    +0.054 A 
ATOM     17 CL   UNL     1      -2.200  -4.022   1.571  0.00  0.00    -0.083 Cl
ATOM     18 CL   UNL     1       0.067  -8.605  -0.167  0.00  0.00    -0.083 Cl
ENDBRANCH   8  11
ENDBRANCH   4   7
BRANCH   1  19
ATOM     19  N   UNL     1       1.220   3.615   0.080  0.00  0.00    -0.297 N 
ATOM     20  H   UNL     1       0.416   4.087   0.347  0.00  0.00    +0.154 HD
BRANCH  19  21
ATOM     21  C   UNL     1       2.330   4.307  -0.246  0.00  0.00    +0.141 C 
ATOM     22  S   UNL     1       3.716   3.482  -0.820  0.00  0.00    -0.018 S 
BRANCH  21  25
ATOM     23  C   UNL     1       3.459   6.340  -0.446  0.00  0.00    +0.253 C 
ATOM     24  O   UNL     1       4.443   5.754  -0.854  0.00  0.00    -0.270 OA
ATOM     25  N   UNL     1       2.349   5.649  -0.120  0.00  0.00    -0.263 N 
ATOM     26  H   UNL     1       1.564   6.116   0.205  0.00  0.00    +0.157 HD
BRANCH  23  32
ATOM     27  C   UNL     1       5.876  10.696  -0.873  0.00  0.00    +0.047 C 
ATOM     28  C   UNL     1       4.640   9.912  -0.511  0.00  0.00    -0.008 A 
ATOM     29  C   UNL     1       3.518  10.570  -0.048  0.00  0.00    +0.007 A 
ATOM     30  C   UNL     1       2.377   9.858   0.287  0.00  0.00    +0.001 A 
ATOM     31  C   UNL     1       2.351   8.486   0.160  0.00  0.00    +0.017 A 
ATOM     32  C   UNL     1       3.480   7.809  -0.308  0.00  0.00    +0.079 A 
ATOM     33  C   UNL     1       4.634   8.532  -0.640  0.00  0.00    +0.135 A 
BRANCH  33  34
ATOM     34  O   UNL     1       5.738   7.884  -1.091  0.00  0.00    -0.494 OA
ATOM     35  C   UNL     1       5.847   7.693  -2.503  0.00  0.00    +0.277 C 
ENDBRANCH  33  34
ENDBRANCH  23  32
ENDBRANCH  21  25
ENDBRANCH  19  21
ENDBRANCH   1  19
TORSDOF 7
