REMARK  Name = ZINC13356065
REMARK  4 active torsions:
REMARK  status: ('A' for Active; 'I' for Inactive)
REMARK    1  A    between atoms: C_4  and  S_7
REMARK    2  A    between atoms: S_7  and  N_10
REMARK    3  A    between atoms: C_16  and  N_19
REMARK    4  A    between atoms: N_22  and  C_23
REMARK                            x       y       z     vdW  Elec       q    Type
REMARK                         _______ _______ _______ _____ _____    ______ ____
ROOT
ATOM      1  N   UNL     1       0.499   4.983  -0.099  0.00  0.00    -0.202 N 
ATOM      2  C   UNL     1       1.924   5.203  -0.363  0.00  0.00    +0.136 C 
ATOM      3  C   UNL     1       2.492   3.812  -0.691  0.00  0.00    +0.058 C 
ATOM      4  C   UNL     1       1.305   2.882  -0.583  0.00  0.00    -0.023 A 
ATOM      5  C   UNL     1       0.189   3.629  -0.238  0.00  0.00    +0.056 A 
ATOM      6  C   UNL     1      -1.038   2.984  -0.079  0.00  0.00    +0.048 A 
ATOM      7  C   UNL     1      -1.135   1.616  -0.270  0.00  0.00    +0.037 A 
ATOM      8  C   UNL     1      -0.009   0.878  -0.611  0.00  0.00    +0.024 A 
ATOM      9  C   UNL     1       1.206   1.516  -0.768  0.00  0.00    +0.007 A 
ENDROOT
BRANCH   7  10
ATOM     10  N   UNL     1      -2.370   0.975  -0.115  0.00  0.00    -0.269 N 
ATOM     11  C   UNL     1      -2.420  -0.283   0.365  0.00  0.00    +0.308 C 
ATOM     12  O   UNL     1      -1.403  -0.828   0.752  0.00  0.00    -0.252 OA
ATOM     13  N   UNL     1      -3.597  -0.939   0.417  0.00  0.00    -0.269 N 
ATOM     14  H   UNL     1      -3.189   1.436  -0.353  0.00  0.00    +0.156 HD
ATOM     15  H   UNL     1      -4.394  -0.534   0.041  0.00  0.00    +0.156 HD
BRANCH  13  16
ATOM     16  C   UNL     1      -3.668  -2.202   1.015  0.00  0.00    +0.035 A 
ATOM     17  C   UNL     1      -4.563  -3.149   0.534  0.00  0.00    +0.024 A 
ATOM     18  C   UNL     1      -4.627  -4.397   1.122  0.00  0.00    +0.017 A 
ATOM     19  C   UNL     1      -3.810  -4.701   2.196  0.00  0.00    +0.018 A 
ATOM     20  C   UNL     1      -2.921  -3.757   2.680  0.00  0.00    +0.017 A 
ATOM     21  C   UNL     1      -2.848  -2.510   2.093  0.00  0.00    +0.024 A 
ATOM     22 BR   UNL     1      -3.906  -6.408   3.003  0.00  0.00    -0.050 Br
ENDBRANCH  13  16
ENDBRANCH   7  10
BRANCH   1  23
ATOM     23  S   UNL     1      -0.585   6.168   0.305  0.00  0.00    +0.075 S 
ATOM     24  O   UNL     1      -1.647   5.528   0.998  0.00  0.00    -0.150 OA
ATOM     25  O   UNL     1       0.168   7.229   0.876  0.00  0.00    -0.150 OA
BRANCH  23  29
ATOM     26  C   UNL     1      -2.332   7.756  -3.558  0.00  0.00    +0.000 A 
ATOM     27  C   UNL     1      -2.937   6.696  -2.909  0.00  0.00    +0.002 A 
ATOM     28  C   UNL     1      -2.404   6.211  -1.730  0.00  0.00    +0.029 A 
ATOM     29  C   UNL     1      -1.264   6.786  -1.199  0.00  0.00    +0.109 A 
ATOM     30  C   UNL     1      -0.662   7.850  -1.844  0.00  0.00    +0.029 A 
ATOM     31  C   UNL     1      -1.192   8.332  -3.026  0.00  0.00    +0.002 A 
ENDBRANCH  23  29
ENDBRANCH   1  23
TORSDOF 4
