REMARK  Name = ZINC24827087
REMARK  8 active torsions:
REMARK  status: ('A' for Active; 'I' for Inactive)
REMARK    1  A    between atoms: C_1  and  C_2
REMARK    2  A    between atoms: C_5  and  N_12
REMARK    3  A    between atoms: C_7  and  C_8
REMARK    4  A    between atoms: C_13  and  C_15
REMARK    5  A    between atoms: C_20  and  S_21
REMARK    6  A    between atoms: S_21  and  C_22
REMARK    7  A    between atoms: C_22  and  C_23
REMARK    8  A    between atoms: N_25  and  C_26
REMARK                            x       y       z     vdW  Elec       q    Type
REMARK                         _______ _______ _______ _____ _____    ______ ____
ROOT
ATOM      1  C   UNL     1       9.128  -4.367   5.697  0.00  0.00    +0.069 A 
ATOM      2  C   UNL     1      10.393  -4.185   6.269  0.00  0.00    +0.017 A 
ATOM      3  C   UNL     1      11.013  -2.958   6.117  0.00  0.00    +0.020 A 
ATOM      4  C   UNL     1      10.376  -1.955   5.407  0.00  0.00    +0.112 A 
ATOM      5  N   UNL     1       9.187  -2.147   4.870  0.00  0.00    -0.248 NA
ATOM      6  C   UNL     1       8.548  -3.302   4.985  0.00  0.00    +0.109 A 
ENDROOT
BRANCH   1   8
ATOM      7  N   UNL     1       8.988  -6.664   6.519  0.00  0.00    -0.281 N 
ATOM      8  C   UNL     1       8.420  -5.652   5.833  0.00  0.00    +0.251 C 
ATOM      9  O   UNL     1       7.324  -5.799   5.327  0.00  0.00    -0.270 OA
ATOM     10  H   UNL     1       9.944  -6.508   7.040  0.00  0.00    +0.155 HD
BRANCH   7  15
ATOM     11  C   UNL     1       6.448 -11.733   6.713  0.00  0.00    +0.044 C 
ATOM     12  C   UNL     1       7.123 -10.386   6.661  0.00  0.00    -0.039 A 
ATOM     13  C   UNL     1       6.361  -9.232   6.656  0.00  0.00    +0.006 A 
ATOM     14  C   UNL     1       6.976  -7.997   6.614  0.00  0.00    +0.023 A 
ATOM     15  C   UNL     1       8.362  -7.914   6.566  0.00  0.00    +0.034 A 
ATOM     16  C   UNL     1       9.124  -9.075   6.572  0.00  0.00    +0.036 A 
ATOM     17  C   UNL     1       8.502 -10.307   6.620  0.00  0.00    +0.059 A 
BRANCH  17  18
ATOM     18  C   UNL     1       9.329 -11.567   6.625  0.00  0.00    +0.418 C 
ATOM     19  F   UNL     1      10.687 -11.234   6.577  0.00  0.00    -0.166 F 
ATOM     20  F   UNL     1       9.067 -12.291   7.793  0.00  0.00    -0.166 F 
ATOM     21  F   UNL     1       9.000 -12.345   5.510  0.00  0.00    -0.166 F 
ENDBRANCH  17  18
ENDBRANCH   7  15
ENDBRANCH   1   8
BRANCH   6  22
ATOM     22  S   UNL     1       6.960  -3.502   4.247  0.00  0.00    -0.096 S 
BRANCH  22  23
ATOM     23  C   UNL     1       6.747  -1.863   3.510  0.00  0.00    +0.171 C 
BRANCH  23  24
ATOM     24  C   UNL     1       5.418  -1.799   2.804  0.00  0.00    +0.227 C 
ATOM     25  O   UNL     1       4.686  -2.767   2.799  0.00  0.00    -0.275 OA
ATOM     26  N   UNL     1       5.041  -0.667   2.177  0.00  0.00    -0.285 N 
ATOM     27  H   UNL     1       5.738   0.182   2.109  0.00  0.00    +0.155 HD
BRANCH  26  28
ATOM     28  C   UNL     1       3.763  -0.571   1.612  0.00  0.00    +0.037 A 
ATOM     29  C   UNL     1       2.689  -1.218   2.209  0.00  0.00    +0.027 A 
ATOM     30  C   UNL     1       1.428  -1.124   1.653  0.00  0.00    +0.051 A 
ATOM     31  C   UNL     1       1.230  -0.384   0.499  0.00  0.00    +0.166 A 
ATOM     32  C   UNL     1       2.305   0.268  -0.102  0.00  0.00    +0.168 A 
ATOM     33  C   UNL     1       3.569   0.172   0.456  0.00  0.00    +0.072 A 
ATOM     34  O   UNL     1       1.853   0.922  -1.212  0.00  0.00    -0.453 OA
ATOM     35  C   UNL     1       0.424   1.002  -1.056  0.00  0.00    +0.466 C 
ATOM     36  O   UNL     1       0.105  -0.137  -0.235  0.00  0.00    -0.453 OA
ENDBRANCH  26  28
ENDBRANCH  23  24
ENDBRANCH  22  23
ENDBRANCH   6  22
TORSDOF 7
