REMARK  Name = ZINC00995802
REMARK  5 active torsions:
REMARK  status: ('A' for Active; 'I' for Inactive)
REMARK    1  A    between atoms: C_3  and  C_6
REMARK    2  A    between atoms: C_8  and  C_31
REMARK    3  A    between atoms: C_13  and  C_15
REMARK    4  A    between atoms: N_17  and  C_18
REMARK    5  A    between atoms: C_19  and  C_28
REMARK                            x       y       z     vdW  Elec       q    Type
REMARK                         _______ _______ _______ _____ _____    ______ ____
ROOT
ATOM      1  C   UNL     1       6.606  -2.401   1.592  0.00  0.00    +0.269 C 
ATOM      2  O   UNL     1       6.903  -1.597   0.730  0.00  0.00    -0.268 OA
ATOM      3  N   UNL     1       5.328  -2.501   2.008  0.00  0.00    -0.274 N 
ATOM      4  H   UNL     1       5.058  -3.228   2.788  0.00  0.00    +0.156 HD
ENDROOT
BRANCH   3   5
ATOM      5  C   UNL     1       4.353  -1.687   1.453  0.00  0.00    +0.085 A 
ATOM      6  C   UNL     1       2.999  -1.642   1.746  0.00  0.00    +0.068 A 
ATOM      7  C   UNL     1       2.179  -0.684   1.016  0.00  0.00    -0.023 A 
ATOM      8  C   UNL     1       2.846   0.062   0.110  0.00  0.00    -0.004 A 
ATOM      9  S   UNL     1       4.530  -0.479   0.225  0.00  0.00    -0.077 S 
ATOM     10  C   UNL     1       2.288   1.105  -0.807  0.00  0.00    +0.043 C 
ATOM     11  C   UNL     1       1.406   2.068  -0.000  0.00  0.00    +0.005 C 
ATOM     12  C   UNL     1      -0.019   1.523   0.010  0.00  0.00    +0.001 C 
ATOM     13  C   UNL     1       0.002  -0.004   0.002  0.00  0.00    +0.005 C 
ATOM     14  C   UNL     1       0.682  -0.535   1.259  0.00  0.00    +0.037 C 
BRANCH   6  15
ATOM     15  C   UNL     1       2.412  -2.527   2.757  0.00  0.00    +0.244 C 
ATOM     16  O   UNL     1       1.983  -3.619   2.434  0.00  0.00    -0.270 OA
ATOM     17  N   UNL     1       2.347  -2.131   4.043  0.00  0.00    -0.325 N 
ATOM     18  H   UNL     1       1.906  -2.795   4.802  0.00  0.00    +0.145 HD
ATOM     19  H   UNL     1       2.734  -1.144   4.335  0.00  0.00    +0.145 HD
ENDBRANCH   6  15
ENDBRANCH   3   5
BRANCH   1  27
ATOM     20  C   UNL     1      11.267  -5.579   3.545  0.00  0.00    +0.110 A 
ATOM     21  C   UNL     1      10.298  -6.186   4.381  0.00  0.00    +0.064 A 
ATOM     22  C   UNL     1       9.012  -5.782   4.306  0.00  0.00    +0.149 A 
ATOM     23  N   UNL     1       8.671  -4.793   3.421  0.00  0.00    -0.209 N 
ATOM     24  C   UNL     1       9.633  -4.224   2.624  0.00  0.00    +0.158 A 
ATOM     25  N   UNL     1      10.908  -4.626   2.700  0.00  0.00    -0.225 NA
ATOM     26  C   UNL     1       9.003  -3.267   1.842  0.00  0.00    +0.083 A 
ATOM     27  C   UNL     1       7.645  -3.270   2.183  0.00  0.00    +0.150 A 
ATOM     28  N   UNL     1       7.449  -4.176   3.128  0.00  0.00    -0.160 NA
BRANCH  20  31
ATOM     29  C   UNL     1      14.860  -6.207   3.262  0.00  0.00    +0.042 A 
ATOM     30  C   UNL     1      13.700  -5.515   2.867  0.00  0.00    +0.051 A 
ATOM     31  C   UNL     1      12.674  -6.009   3.615  0.00  0.00    +0.153 A 
ATOM     32  O   UNL     1      13.170  -6.964   4.427  0.00  0.00    -0.461 OA
ATOM     33  C   UNL     1      14.490  -7.086   4.217  0.00  0.00    +0.196 A 
ENDBRANCH  20  31
BRANCH  22  34
ATOM     34  C   UNL     1       7.963  -6.412   5.185  0.00  0.00    +0.434 C 
ATOM     35  F   UNL     1       8.574  -7.304   6.073  0.00  0.00    -0.164 F 
ATOM     36  F   UNL     1       7.301  -5.414   5.909  0.00  0.00    -0.164 F 
ATOM     37  F   UNL     1       7.041  -7.101   4.391  0.00  0.00    -0.164 F 
ENDBRANCH  22  34
ENDBRANCH   1  27
TORSDOF 5
