REMARK  Name = ZINC06545751
REMARK  10 active torsions:
REMARK  status: ('A' for Active; 'I' for Inactive)
REMARK    1  A    between atoms: C_1  and  C_2
REMARK    2  A    between atoms: C_2  and  O_3
REMARK    3  A    between atoms: O_3  and  C_4
REMARK    4  A    between atoms: C_4  and  C_6
REMARK    5  A    between atoms: C_7  and  C_32
REMARK    6  A    between atoms: C_9  and  N_31
REMARK    7  A    between atoms: C_10  and  C_29
REMARK    8  A    between atoms: C_11  and  C_13
REMARK    9  A    between atoms: C_18  and  C_28
REMARK   10  A    between atoms: C_21  and  N_22
REMARK                            x       y       z     vdW  Elec       q    Type
REMARK                         _______ _______ _______ _____ _____    ______ ____
ROOT
ATOM      1  C   UNL     1       1.008   1.490   0.043  0.00  0.00    +0.004 A 
ATOM      2  C   UNL     1      -0.044   0.628   0.125  0.00  0.00    +0.017 A 
ATOM      3  C   UNL     1      -1.342   1.167   0.230  0.00  0.00    -0.001 A 
ATOM      4  C   UNL     1      -2.470   0.336   0.324  0.00  0.00    +0.010 A 
ATOM      5  C   UNL     1      -3.709   0.892   0.430  0.00  0.00    +0.004 A 
ATOM      6  C   UNL     1      -3.872   2.275   0.452  0.00  0.00    -0.048 A 
ATOM      7  C   UNL     1      -2.800   3.110   0.368  0.00  0.00    +0.029 A 
ATOM      8  C   UNL     1      -1.505   2.573   0.257  0.00  0.00    +0.048 A 
ATOM      9  C   UNL     1       0.781   2.874   0.069  0.00  0.00    +0.103 A 
ATOM     10  C   UNL     1      -5.257   2.857   0.571  0.00  0.00    +0.044 C 
ATOM     11  N   UNL     1      -0.444   3.447   0.174  0.00  0.00    -0.343 N 
ATOM     12  H   UNL     1      -0.571   4.466   0.190  0.00  0.00    +0.167 HD
ENDROOT
BRANCH   1  18
ATOM     13  C   UNL     1       2.752   0.162   1.155  0.00  0.00    +0.087 C 
ATOM     14  C   UNL     1       2.764  -1.177   1.131  0.00  0.00    +0.115 C 
ATOM     15  O   UNL     1       2.476  -1.876   0.024  0.00  0.00    -0.445 OA
ATOM     16  C   UNL     1       2.540  -1.270  -1.174  0.00  0.00    +0.198 C 
ATOM     17  C   UNL     1       2.514   0.080  -1.294  0.00  0.00    +0.098 C 
ATOM     18  C   UNL     1       2.413   0.958  -0.076  0.00  0.00    +0.108 C 
ATOM     19  C   UNL     1       3.112  -1.923   2.393  0.00  0.00    +0.087 C 
BRANCH  16  20
ATOM     20  N   UNL     1       2.634  -2.039  -2.307  0.00  0.00    -0.328 N 
ATOM     21  H   UNL     1       2.654  -3.006  -2.237  0.00  0.00    +0.145 HD
ATOM     22  H   UNL     1       2.681  -1.615  -3.179  0.00  0.00    +0.145 HD
ENDBRANCH  16  20
BRANCH  13  23
ATOM     23  C   UNL     1       3.064   0.840   2.358  0.00  0.00    +0.339 C 
ATOM     24  O   UNL     1       4.167   1.331   2.511  0.00  0.00    -0.245 OA
BRANCH  23  25
ATOM     25  O   UNL     1       2.139   0.942   3.335  0.00  0.00    -0.462 OA
BRANCH  25  27
ATOM     26  C   UNL     1       1.367   1.636   5.518  0.00  0.00    +0.048 C 
ATOM     27  C   UNL     1       2.483   1.732   4.475  0.00  0.00    +0.229 C 
ENDBRANCH  25  27
ENDBRANCH  23  25
ENDBRANCH  13  23
BRANCH  17  28
ATOM     28  C   UNL     1       2.583   0.677  -2.594  0.00  0.00    +0.101 C 
ATOM     29  N   UNL     1       2.637   1.150  -3.625  0.00  0.00    -0.191 NA
ENDBRANCH  17  28
ENDBRANCH   1  18
BRANCH   9  30
ATOM     30  N   UNL     1       1.861   3.739  -0.017  0.00  0.00    -0.316 N 
ATOM     31  C   UNL     1       2.045   4.477   1.240  0.00  0.00    +0.106 C 
ATOM     32  C   UNL     1       3.326   5.311   1.161  0.00  0.00    +0.019 C 
ATOM     33  C   UNL     1       3.224   6.285  -0.015  0.00  0.00    +0.003 C 
ATOM     34  C   UNL     1       2.985   5.494  -1.304  0.00  0.00    +0.019 C 
ATOM     35  C   UNL     1       1.714   4.655  -1.154  0.00  0.00    +0.106 C 
ENDBRANCH   9  30
TORSDOF 7
