REMARK  Name = ZINC35426984
REMARK  6 active torsions:
REMARK  status: ('A' for Active; 'I' for Inactive)
REMARK    1  A    between atoms: C_1  and  C_2
REMARK    2  A    between atoms: C_6  and  N_8
REMARK    3  A    between atoms: C_23  and  C_25
REMARK    4  A    between atoms: C_28  and  O_31
REMARK    5  A    between atoms: O_31  and  C_32
REMARK    6  A    between atoms: N_34  and  C_37
REMARK                            x       y       z     vdW  Elec       q    Type
REMARK                         _______ _______ _______ _____ _____    ______ ____
ROOT
ATOM      1  N   UNL     1       0.069  -3.006   1.902  0.00  0.00    -0.269 N 
ATOM      2  C   UNL     1      -0.049  -4.336   2.088  0.00  0.00    +0.308 C 
ATOM      3  O   UNL     1      -0.125  -5.079   1.129  0.00  0.00    -0.252 OA
ATOM      4  N   UNL     1      -0.083  -4.841   3.337  0.00  0.00    -0.268 N 
ATOM      5  C   UNL     1       0.000  -3.973   4.524  0.00  0.00    +0.148 C 
ATOM      6  C   UNL     1       0.850  -4.567   5.626  0.00  0.00    +0.004 A 
ATOM      7  C   UNL     1       2.102  -4.043   5.999  0.00  0.00    -0.034 A 
ATOM      8  C   UNL     1       2.768  -4.654   7.017  0.00  0.00    -0.021 A 
ATOM      9  S   UNL     1       1.687  -5.975   7.497  0.00  0.00    -0.077 S 
ATOM     10  C   UNL     1       0.416  -5.661   6.310  0.00  0.00    +0.090 A 
ATOM     11  N   UNL     1      -0.773  -6.327   6.040  0.00  0.00    -0.312 N 
ATOM     12  C   UNL     1      -1.750  -6.784   6.857  0.00  0.00    +0.092 A 
ATOM     13  C   UNL     1      -2.734  -7.299   6.085  0.00  0.00    +0.020 A 
ATOM     14  C   UNL     1      -2.330  -7.168   4.738  0.00  0.00    +0.025 A 
ATOM     15  C   UNL     1      -1.119  -6.594   4.736  0.00  0.00    +0.049 A 
ATOM     16  C   UNL     1      -0.212  -6.298   3.582  0.00  0.00    +0.155 C 
ATOM     17  C   UNL     1       4.100  -4.273   7.572  0.00  0.00    -0.036 C 
ATOM     18  N   UNL     1       4.759  -3.365   6.613  0.00  0.00    +0.381 N 
ATOM     19  C   UNL     1       3.830  -2.290   6.241  0.00  0.00    -0.074 C 
ATOM     20  C   UNL     1       2.732  -2.830   5.320  0.00  0.00    +0.018 C 
ATOM     21  C   UNL     1       5.957  -2.784   7.232  0.00  0.00    -0.096 C 
ATOM     22  H   UNL     1       0.205  -2.420   2.663  0.00  0.00    +0.156 HD
ATOM     23  H   UNL     1       5.023  -3.882   5.788  0.00  0.00    -0.082 HD
ENDROOT
BRANCH   1  29
ATOM     24  C   UNL     1      -1.772  -3.178  -2.653  0.00  0.00    +0.044 C 
ATOM     25  C   UNL     1      -0.888  -2.534  -1.616  0.00  0.00    -0.049 A 
ATOM     26  C   UNL     1      -0.148  -1.411  -1.941  0.00  0.00    +0.003 A 
ATOM     27  C   UNL     1       0.664  -0.818  -0.992  0.00  0.00    +0.002 A 
ATOM     28  C   UNL     1       0.738  -1.344   0.283  0.00  0.00    +0.023 A 
ATOM     29  C   UNL     1      -0.004  -2.470   0.612  0.00  0.00    +0.035 A 
ATOM     30  C   UNL     1      -0.823  -3.062  -0.342  0.00  0.00    +0.026 A 
ENDBRANCH   1  29
BRANCH  16  31
ATOM     31  C   UNL     1       1.151  -6.869   3.875  0.00  0.00    -0.021 A 
ATOM     32  C   UNL     1       1.265  -8.072   4.547  0.00  0.00    +0.009 A 
ATOM     33  C   UNL     1       2.513  -8.598   4.817  0.00  0.00    +0.046 A 
ATOM     34  C   UNL     1       3.653  -7.918   4.414  0.00  0.00    +0.120 A 
ATOM     35  C   UNL     1       3.536  -6.712   3.740  0.00  0.00    +0.046 A 
ATOM     36  C   UNL     1       2.285  -6.192   3.467  0.00  0.00    +0.009 A 
BRANCH  34  37
ATOM     37  O   UNL     1       4.883  -8.433   4.679  0.00  0.00    -0.495 OA
ATOM     38  C   UNL     1       6.012  -7.679   4.234  0.00  0.00    +0.277 C 
ENDBRANCH  34  37
ENDBRANCH  16  31
TORSDOF 3
