REMARK  Name = ZINC43221526
REMARK  7 active torsions:
REMARK  status: ('A' for Active; 'I' for Inactive)
REMARK    1  A    between atoms: C_1  and  C_2
REMARK    2  A    between atoms: C_7  and  N_8
REMARK    3  A    between atoms: C_13  and  C_30
REMARK    4  A    between atoms: C_16  and  C_21
REMARK    5  A    between atoms: C_16  and  C_27
REMARK    6  A    between atoms: C_33  and  O_40
REMARK    7  A    between atoms: O_40  and  C_41
REMARK                            x       y       z     vdW  Elec       q    Type
REMARK                         _______ _______ _______ _____ _____    ______ ____
ROOT
ATOM      1  N   UNL     1       0.431   0.063   2.379  0.00  0.00    -0.210 N 
ATOM      2  C   UNL     1      -0.790   0.347   2.938  0.00  0.00    +0.229 C 
ATOM      3  O   UNL     1      -1.874  -0.085   2.607  0.00  0.00    -0.275 OA
ATOM      4  C   UNL     1      -0.500   1.273   4.005  0.00  0.00    +0.078 C 
ATOM      5  C   UNL     1      -1.087   1.788   5.254  0.00  0.00    -0.026 C 
ATOM      6  N   UNL     1       0.061   2.555   5.848  0.00  0.00    +0.398 N 
ATOM      7  C   UNL     1       1.325   2.005   5.273  0.00  0.00    +0.074 C 
ATOM      8  C   UNL     1       0.895   0.738   4.518  0.00  0.00    +0.090 C 
ATOM      9  C   UNL     1       1.476   0.476   3.156  0.00  0.00    +0.229 C 
ATOM     10  O   UNL     1       2.632   0.608   2.817  0.00  0.00    -0.275 OA
ATOM     11  H   UNL     1      -0.023   3.533   5.614  0.00  0.00    -0.083 HD
ATOM     12  H   UNL     1       0.065   2.443   6.851  0.00  0.00    -0.083 HD
ENDROOT
BRANCH   5  13
ATOM     13  C   UNL     1      -2.252   2.700   4.965  0.00  0.00    -0.053 A 
ATOM     14  C   UNL     1      -2.443   3.186   3.708  0.00  0.00    +0.006 A 
ATOM     15  C   UNL     1      -3.512   4.030   3.419  0.00  0.00    +0.046 A 
ATOM     16  C   UNL     1      -4.401   4.394   4.390  0.00  0.00    +0.128 A 
ATOM     17  C   UNL     1      -4.234   3.909   5.703  0.00  0.00    +0.024 A 
ATOM     18  C   UNL     1      -3.147   3.046   5.991  0.00  0.00    -0.013 A 
ATOM     19  C   UNL     1      -2.983   2.558   7.299  0.00  0.00    +0.009 A 
ATOM     20  C   UNL     1      -3.870   2.916   8.267  0.00  0.00    +0.001 A 
ATOM     21  C   UNL     1      -4.942   3.759   7.982  0.00  0.00    +0.001 A 
ATOM     22  C   UNL     1      -5.126   4.260   6.730  0.00  0.00    +0.012 A 
BRANCH  16  23
ATOM     23  O   UNL     1      -5.439   5.218   4.093  0.00  0.00    -0.495 OA
ATOM     24  C   UNL     1      -5.542   5.670   2.741  0.00  0.00    +0.277 C 
ENDBRANCH  16  23
ENDBRANCH   5  13
BRANCH   1  31
ATOM     25  C   UNL     1       0.575   1.657   0.026  0.00  0.00    +0.045 C 
ATOM     26  C   UNL     1       0.663   0.154  -0.025  0.00  0.00    -0.029 A 
ATOM     27  C   UNL     1       0.825  -0.489  -1.237  0.00  0.00    +0.005 A 
ATOM     28  C   UNL     1       0.906  -1.868  -1.285  0.00  0.00    +0.000 A 
ATOM     29  C   UNL     1       0.827  -2.609  -0.119  0.00  0.00    +0.002 A 
ATOM     30  C   UNL     1       0.666  -1.972   1.095  0.00  0.00    +0.024 A 
ATOM     31  C   UNL     1       0.589  -0.587   1.147  0.00  0.00    +0.047 A 
ENDBRANCH   1  31
BRANCH   7  32
ATOM     32  C   UNL     1       1.955   3.008   4.342  0.00  0.00    -0.047 A 
ATOM     33  C   UNL     1       3.304   2.929   4.051  0.00  0.00    +0.003 A 
ATOM     34  C   UNL     1       3.883   3.849   3.197  0.00  0.00    +0.000 A 
ATOM     35  C   UNL     1       3.112   4.849   2.634  0.00  0.00    +0.000 A 
ATOM     36  C   UNL     1       1.763   4.928   2.924  0.00  0.00    +0.000 A 
ATOM     37  C   UNL     1       1.183   4.005   3.775  0.00  0.00    +0.003 A 
ENDBRANCH   7  32
BRANCH   7  38
ATOM     38  C   UNL     1       2.285   1.640   6.376  0.00  0.00    +0.350 C 
ATOM     39  O   UNL     1       1.980   1.838   7.540  0.00  0.00    -0.248 OA
ATOM     40  O   UNL     1       3.366   1.147   6.105  0.00  0.00    -0.248 OA
ENDBRANCH   7  38
TORSDOF 5
