REMARK  Name = ZINC51095314
REMARK  3 active torsions:
REMARK  status: ('A' for Active; 'I' for Inactive)
REMARK    1  A    between atoms: C_8  and  C_13
REMARK    2  A    between atoms: C_10  and  N_11
REMARK    3  A    between atoms: N_11  and  N_12
REMARK                            x       y       z     vdW  Elec       q    Type
REMARK                         _______ _______ _______ _____ _____    ______ ____
ROOT
ATOM      1  C   UNL     1      -0.016   1.359   0.009  0.00  0.00    +0.001 A 
ATOM      2  C   UNL     1       1.168   2.091   0.002  0.00  0.00    +0.001 A 
ATOM      3  C   UNL     1       2.381   1.467  -0.013  0.00  0.00    +0.012 A 
ATOM      4  C   UNL     1       2.438   0.068  -0.021  0.00  0.00    +0.023 A 
ATOM      5  C   UNL     1       1.232  -0.677  -0.013  0.00  0.00    -0.012 A 
ATOM      6  C   UNL     1       0.002  -0.004   0.002  0.00  0.00    +0.009 A 
ATOM      7  C   UNL     1       1.314  -2.082  -0.021  0.00  0.00    +0.041 A 
ATOM      8  C   UNL     1       2.563  -2.674  -0.036  0.00  0.00    +0.128 A 
ATOM      9  N   UNL     1       3.683  -1.944  -0.044  0.00  0.00    -0.226 NA
ATOM     10  C   UNL     1       3.670  -0.628  -0.037  0.00  0.00    +0.141 A 
ENDROOT
BRANCH   8  11
ATOM     11  C   UNL     1       2.663  -4.150  -0.044  0.00  0.00    +0.268 C 
ATOM     12  O   UNL     1       1.654  -4.827  -0.037  0.00  0.00    -0.268 OA
ATOM     13  N   UNL     1       3.873  -4.743  -0.059  0.00  0.00    -0.259 N 
ATOM     14  C   UNL     1       3.967  -6.129  -0.066  0.00  0.00    +0.165 A 
ATOM     15  N   UNL     1       2.994  -7.014  -0.067  0.00  0.00    -0.233 NA
ATOM     16  C   UNL     1       3.250  -8.309  -0.075  0.00  0.00    +0.120 A 
ATOM     17  C   UNL     1       4.554  -8.680  -0.083  0.00  0.00    +0.068 A 
ATOM     18  S   UNL     1       5.353  -7.083  -0.085  0.00  0.00    -0.061 S 
ATOM     19  H   UNL     1       4.679  -4.202  -0.064  0.00  0.00    +0.157 HD
ENDBRANCH   8  11
BRANCH  10  20
ATOM     20  N   UNL     1       4.862   0.075  -0.045  0.00  0.00    -0.267 N 
ATOM     21  H   UNL     1       4.853   1.045  -0.040  0.00  0.00    +0.167 HD
BRANCH  20  22
ATOM     22  N   UNL     1       6.052  -0.597  -0.060  0.00  0.00    -0.255 NA
ATOM     23  H   UNL     1       6.830   0.046  -0.064  0.00  0.00    +0.140 HD
ATOM     24  H   UNL     1       6.115  -1.236   0.718  0.00  0.00    +0.140 HD
ENDBRANCH  20  22
ENDBRANCH  10  20
TORSDOF 3
