REMARK  Name = ZINC21710629
REMARK  10 active torsions:
REMARK  status: ('A' for Active; 'I' for Inactive)
REMARK    1  A    between atoms: C_1  and  C_2
REMARK    2  A    between atoms: C_2  and  C_3
REMARK    3  A    between atoms: C_2  and  C_4
REMARK    4  A    between atoms: C_2  and  C_5
REMARK    5  A    between atoms: C_8  and  S_11
REMARK    6  A    between atoms: S_11  and  N_14
REMARK    7  A    between atoms: N_14  and  C_15
REMARK    8  A    between atoms: C_19  and  C_21
REMARK    9  A    between atoms: C_27  and  C_30
REMARK   10  A    between atoms: N_32  and  C_33
REMARK                            x       y       z     vdW  Elec       q    Type
REMARK                         _______ _______ _______ _____ _____    ______ ____
ROOT
ATOM      1  C   UNL     1       0.750  -0.524   1.183  0.00  0.00    +0.049 A 
ATOM      2  C   UNL     1       0.154  -0.372   2.429  0.00  0.00    +0.024 A 
ATOM      3  C   UNL     1       0.428  -1.268   3.445  0.00  0.00    +0.003 A 
ATOM      4  C   UNL     1       1.297  -2.319   3.229  0.00  0.00    +0.013 A 
ATOM      5  C   UNL     1       1.901  -2.480   1.981  0.00  0.00    +0.039 A 
ATOM      6  C   UNL     1       1.620  -1.579   0.954  0.00  0.00    +0.037 A 
ENDROOT
BRANCH   5   7
ATOM      7  C   UNL     1       2.830  -3.606   1.747  0.00  0.00    +0.247 C 
ATOM      8  O   UNL     1       2.679  -4.328   0.782  0.00  0.00    -0.270 OA
ATOM      9  N   UNL     1       3.846  -3.831   2.604  0.00  0.00    -0.297 N 
ATOM     10  C   UNL     1       3.994  -3.018   3.819  0.00  0.00    +0.108 C 
ATOM     11  C   UNL     1       5.410  -2.436   3.854  0.00  0.00    +0.020 C 
ATOM     12  C   UNL     1       6.428  -3.572   3.730  0.00  0.00    +0.016 C 
ATOM     13  C   UNL     1       6.233  -4.290   2.393  0.00  0.00    +0.092 C 
ATOM     14  C   UNL     1       4.822  -4.897   2.345  0.00  0.00    +0.120 C 
BRANCH  13  15
ATOM     15  C   UNL     1       7.256  -5.388   2.258  0.00  0.00    +0.218 C 
ATOM     16  O   UNL     1       8.063  -5.578   3.144  0.00  0.00    -0.275 OA
ATOM     17  N   UNL     1       7.276  -6.159   1.153  0.00  0.00    -0.312 N 
ATOM     18  H   UNL     1       6.545  -5.987   0.349  0.00  0.00    +0.149 HD
BRANCH  17  19
ATOM     19  C   UNL     1       8.271  -7.226   1.021  0.00  0.00    +0.073 C 
ATOM     20  C   UNL     1       8.972  -7.376  -0.330  0.00  0.00    +0.024 C 
ATOM     21  C   UNL     1       7.927  -8.404   0.107  0.00  0.00    +0.024 C 
ENDBRANCH  17  19
ENDBRANCH  13  15
ENDBRANCH   5   7
BRANCH   1  22
ATOM     22  N   UNL     1       0.470   0.384   0.159  0.00  0.00    -0.216 N 
ATOM     23  H   UNL     1       0.256   0.020  -0.857  0.00  0.00    +0.174 HD
BRANCH  22  24
ATOM     24  S   UNL     1       0.459   2.010   0.474  0.00  0.00    +0.072 S 
ATOM     25  O   UNL     1       0.172   2.660  -0.756  0.00  0.00    -0.150 OA
ATOM     26  O   UNL     1      -0.338   2.193   1.636  0.00  0.00    -0.150 OA
BRANCH  24  30
ATOM     27  C   UNL     1       4.683   3.183   1.602  0.00  0.00    -0.042 A 
ATOM     28  C   UNL     1       4.283   3.228   0.280  0.00  0.00    +0.006 A 
ATOM     29  C   UNL     1       2.993   2.870  -0.065  0.00  0.00    +0.029 A 
ATOM     30  C   UNL     1       2.103   2.466   0.913  0.00  0.00    +0.109 A 
ATOM     31  C   UNL     1       2.502   2.426   2.236  0.00  0.00    +0.029 A 
ATOM     32  C   UNL     1       3.793   2.780   2.580  0.00  0.00    +0.006 A 
BRANCH  27  34
ATOM     33  C   UNL     1       6.345   5.023   1.564  0.00  0.00    +0.015 C 
ATOM     34  C   UNL     1       6.090   3.572   1.978  0.00  0.00    -0.013 C 
ATOM     35  C   UNL     1       6.270   3.435   3.491  0.00  0.00    +0.015 C 
ATOM     36  C   UNL     1       7.082   2.655   1.260  0.00  0.00    +0.015 C 
ENDBRANCH  27  34
ENDBRANCH  24  30
ENDBRANCH  22  24
ENDBRANCH   1  22
TORSDOF 7
