REMARK  Name = ZINC11916732
REMARK  8 active torsions:
REMARK  status: ('A' for Active; 'I' for Inactive)
REMARK    1  A    between atoms: C_4  and  C_7
REMARK    2  A    between atoms: C_7  and  N_8
REMARK    3  A    between atoms: N_8  and  C_9
REMARK    4  A    between atoms: N_8  and  S_15
REMARK    5  A    between atoms: S_15  and  C_18
REMARK    6  A    between atoms: C_21  and  N_24
REMARK    7  A    between atoms: C_25  and  C_27
REMARK    8  A    between atoms: C_31  and  N_33
REMARK                            x       y       z     vdW  Elec       q    Type
REMARK                         _______ _______ _______ _____ _____    ______ ____
ROOT
ATOM      1  C   UNL     1       1.304  11.582   1.158  0.00  0.00    +0.109 A 
ATOM      2  C   UNL     1       2.577  11.054   1.044  0.00  0.00    +0.030 A 
ATOM      3  C   UNL     1       2.933   9.941   1.779  0.00  0.00    +0.025 A 
ATOM      4  C   UNL     1       2.011   9.351   2.634  0.00  0.00    +0.034 A 
ATOM      5  C   UNL     1       0.731   9.879   2.741  0.00  0.00    +0.025 A 
ATOM      6  C   UNL     1       0.383  10.996   2.008  0.00  0.00    +0.030 A 
ENDROOT
BRANCH   4   7
ATOM      7  N   UNL     1       2.369   8.223   3.380  0.00  0.00    -0.282 N 
ATOM      8  C   UNL     1       3.621   8.106   3.865  0.00  0.00    +0.248 C 
ATOM      9  O   UNL     1       4.464   8.934   3.579  0.00  0.00    -0.270 OA
ATOM     10  H   UNL     1       1.716   7.526   3.548  0.00  0.00    +0.155 HD
BRANCH   8  11
ATOM     11  C   UNL     1       3.969   6.970   4.745  0.00  0.00    +0.039 A 
ATOM     12  C   UNL     1       3.003   6.017   5.075  0.00  0.00    +0.013 A 
ATOM     13  C   UNL     1       3.335   4.960   5.897  0.00  0.00    +0.003 A 
ATOM     14  C   UNL     1       4.621   4.843   6.394  0.00  0.00    +0.033 A 
ATOM     15  C   UNL     1       5.581   5.787   6.075  0.00  0.00    +0.127 A 
ATOM     16  C   UNL     1       5.264   6.846   5.249  0.00  0.00    +0.045 A 
BRANCH  15  17
ATOM     17  N   UNL     1       6.953   5.656   6.616  0.00  0.00    +0.056 N 
ATOM     18  O   UNL     1       7.235   4.719   7.341  0.00  0.00    -0.126 OA
ATOM     19  O   UNL     1       7.799   6.486   6.336  0.00  0.00    -0.126 OA
ENDBRANCH  15  17
ENDBRANCH   8  11
ENDBRANCH   4   7
BRANCH   1  20
ATOM     20  S   UNL     1       0.853  13.002   0.219  0.00  0.00    +0.075 S 
ATOM     21  O   UNL     1      -0.336  13.516   0.803  0.00  0.00    -0.150 OA
ATOM     22  O   UNL     1       2.030  13.785   0.075  0.00  0.00    -0.150 OA
BRANCH  20  23
ATOM     23  N   UNL     1       0.446  12.478  -1.298  0.00  0.00    -0.199 N 
BRANCH  23  24
ATOM     24  C   UNL     1      -0.898  12.343  -1.653  0.00  0.00    +0.052 A 
ATOM     25  C   UNL     1      -1.765  11.623  -0.840  0.00  0.00    +0.025 A 
ATOM     26  C   UNL     1      -3.094  11.496  -1.192  0.00  0.00    +0.002 A 
ATOM     27  C   UNL     1      -3.561  12.076  -2.357  0.00  0.00    +0.000 A 
ATOM     28  C   UNL     1      -2.700  12.789  -3.172  0.00  0.00    +0.002 A 
ATOM     29  C   UNL     1      -1.371  12.924  -2.823  0.00  0.00    +0.025 A 
ENDBRANCH  23  24
BRANCH  23  30
ATOM     30  C   UNL     1       1.495  12.154  -2.268  0.00  0.00    +0.166 C 
BRANCH  30  34
ATOM     31  C   UNL     1       1.560   7.937  -2.944  0.00  0.00    +0.000 A 
ATOM     32  C   UNL     1       0.673   8.735  -3.642  0.00  0.00    +0.000 A 
ATOM     33  C   UNL     1       0.652  10.100  -3.423  0.00  0.00    +0.005 A 
ATOM     34  C   UNL     1       1.518  10.666  -2.506  0.00  0.00    -0.028 A 
ATOM     35  C   UNL     1       2.408   9.869  -1.812  0.00  0.00    +0.005 A 
ATOM     36  C   UNL     1       2.425   8.503  -2.027  0.00  0.00    +0.000 A 
ENDBRANCH  30  34
ENDBRANCH  23  30
ENDBRANCH  20  23
ENDBRANCH   1  20
TORSDOF 8
