REMARK  Name = ZINC64610978
REMARK  8 active torsions:
REMARK  status: ('A' for Active; 'I' for Inactive)
REMARK    1  A    between atoms: C_7  and  C_10
REMARK    2  A    between atoms: C_10  and  C_11
REMARK    3  A    between atoms: C_11  and  C_12
REMARK    4  A    between atoms: N_14  and  C_15
REMARK    5  A    between atoms: C_19  and  O_21
REMARK    6  A    between atoms: O_21  and  C_22
REMARK    7  A    between atoms: C_22  and  C_23
REMARK    8  A    between atoms: C_26  and  C_29
REMARK                            x       y       z     vdW  Elec       q    Type
REMARK                         _______ _______ _______ _____ _____    ______ ____
ROOT
ATOM      1  C   UNL     1      -1.782  -6.444  -2.574  0.00  0.00    +0.037 A 
ATOM      2  C   UNL     1      -2.334  -6.824  -1.357  0.00  0.00    +0.023 A 
ATOM      3  C   UNL     1      -3.266  -7.841  -1.308  0.00  0.00    +0.005 A 
ATOM      4  C   UNL     1      -3.652  -8.485  -2.469  0.00  0.00    +0.046 A 
ATOM      5  C   UNL     1      -3.104  -8.110  -3.688  0.00  0.00    +0.123 A 
ATOM      6  C   UNL     1      -2.172  -7.085  -3.741  0.00  0.00    +0.069 A 
ENDROOT
BRANCH   1   9
ATOM      7  C   UNL     1      -0.813  -4.571  -3.675  0.00  0.00    +0.217 C 
ATOM      8  O   UNL     1      -1.553  -4.756  -4.618  0.00  0.00    -0.275 OA
ATOM      9  N   UNL     1      -0.837  -5.413  -2.623  0.00  0.00    -0.285 N 
ATOM     10  H   UNL     1      -0.199  -5.304  -1.900  0.00  0.00    +0.155 HD
BRANCH   7  11
ATOM     11  C   UNL     1       0.134  -3.399  -3.680  0.00  0.00    +0.100 C 
BRANCH  11  12
ATOM     12  C   UNL     1      -0.039  -2.609  -4.979  0.00  0.00    +0.042 C 
BRANCH  12  19
ATOM     13  C   UNL     1       4.164  -2.027  -6.728  0.00  0.00    +0.001 A 
ATOM     14  C   UNL     1       4.696  -0.751  -6.499  0.00  0.00    +0.002 A 
ATOM     15  C   UNL     1       4.026   0.209  -5.827  0.00  0.00    +0.026 A 
ATOM     16  C   UNL     1       2.724  -0.048  -5.314  0.00  0.00    +0.043 A 
ATOM     17  N   UNL     1       1.887   0.704  -4.641  0.00  0.00    -0.380 N 
ATOM     18  C   UNL     1       0.675  -0.077  -4.366  0.00  0.00    +0.144 C 
ATOM     19  C   UNL     1       0.908  -1.437  -4.985  0.00  0.00    -0.041 C 
ATOM     20  C   UNL     1       2.139  -1.389  -5.543  0.00  0.00    -0.001 A 
ATOM     21  C   UNL     1       2.935  -2.375  -6.284  0.00  0.00    +0.010 A 
ATOM     22  H   UNL     1       2.043   1.622  -4.370  0.00  0.00    +0.160 HD
ENDBRANCH  12  19
ENDBRANCH  11  12
ENDBRANCH   7  11
ENDBRANCH   1   9
BRANCH   5  23
ATOM     23  O   UNL     1      -3.484  -8.744  -4.828  0.00  0.00    -0.483 OA
BRANCH  23  24
ATOM     24  C   UNL     1      -4.452  -9.786  -4.699  0.00  0.00    +0.325 C 
BRANCH  24  25
ATOM     25  C   UNL     1      -4.748 -10.368  -6.057  0.00  0.00    +0.245 C 
ATOM     26  N   UNL     1      -4.191  -9.967  -7.140  0.00  0.00    -0.147 NA
ATOM     27  N   UNL     1      -4.669 -10.697  -8.238  0.00  0.00    -0.224 N 
ATOM     28  C   UNL     1      -5.641 -11.652  -7.676  0.00  0.00    +0.309 C 
ATOM     29  O   UNL     1      -5.626 -11.375  -6.267  0.00  0.00    -0.449 OA
ATOM     30  H   UNL     1      -4.414 -10.596  -9.168  0.00  0.00    +0.172 HD
BRANCH  28  31
ATOM     31  C   UNL     1      -7.012 -11.412  -8.255  0.00  0.00    +0.013 A 
ATOM     32  C   UNL     1      -7.381 -10.140  -8.652  0.00  0.00    +0.010 A 
ATOM     33  C   UNL     1      -8.638  -9.919  -9.183  0.00  0.00    +0.020 A 
ATOM     34  C   UNL     1      -9.527 -10.971  -9.316  0.00  0.00    +0.041 A 
ATOM     35  C   UNL     1      -9.157 -12.243  -8.918  0.00  0.00    +0.020 A 
ATOM     36  C   UNL     1      -7.898 -12.464  -8.393  0.00  0.00    +0.010 A 
ATOM     37 CL   UNL     1     -11.106 -10.694  -9.983  0.00  0.00    -0.084 Cl
ENDBRANCH  28  31
ENDBRANCH  24  25
ENDBRANCH  23  24
ENDBRANCH   5  23
TORSDOF 8
