REMARK  Name = ZINC35863275
REMARK  10 active torsions:
REMARK  status: ('A' for Active; 'I' for Inactive)
REMARK    1  A    between atoms: C_1  and  C_2
REMARK    2  A    between atoms: C_2  and  C_3
REMARK    3  A    between atoms: C_11  and  O_23
REMARK    4  A    between atoms: C_14  and  C_16
REMARK    5  A    between atoms: C_19  and  C_22
REMARK    6  A    between atoms: O_23  and  C_24
REMARK    7  A    between atoms: C_24  and  C_25
REMARK    8  A    between atoms: C_27  and  C_30
REMARK    9  A    between atoms: N_35  and  C_38
REMARK   10  A    between atoms: C_38  and  C_39
REMARK                            x       y       z     vdW  Elec       q    Type
REMARK                         _______ _______ _______ _____ _____    ______ ____
ROOT
ATOM      1  C   UNL     1      -2.044  -0.299  -0.681  0.00  0.00    +0.216 C 
ATOM      2  O   UNL     1      -3.032   0.389  -0.532  0.00  0.00    -0.276 OA
ATOM      3  N   UNL     1      -2.101  -1.622  -0.434  0.00  0.00    -0.290 N 
ATOM      4  C   UNL     1      -0.944  -2.498  -0.686  0.00  0.00    +0.113 C 
ATOM      5  C   UNL     1      -0.484  -3.065   0.656  0.00  0.00    +0.054 C 
ATOM      6  C   UNL     1      -1.654  -3.593   1.445  0.00  0.00    -0.040 A 
ATOM      7  C   UNL     1      -1.387  -4.505   2.460  0.00  0.00    +0.007 A 
ATOM      8  C   UNL     1      -2.408  -5.021   3.228  0.00  0.00    +0.046 A 
ATOM      9  C   UNL     1      -3.717  -4.628   2.987  0.00  0.00    +0.122 A 
ATOM     10  C   UNL     1      -3.984  -3.723   1.974  0.00  0.00    +0.051 A 
ATOM     11  C   UNL     1      -2.954  -3.210   1.200  0.00  0.00    -0.016 A 
ATOM     12  C   UNL     1      -3.315  -2.248   0.101  0.00  0.00    +0.137 C 
ENDROOT
BRANCH  12  13
ATOM     13  C   UNL     1      -4.227  -1.181   0.650  0.00  0.00    -0.023 A 
ATOM     14  C   UNL     1      -3.741  -0.250   1.548  0.00  0.00    +0.006 A 
ATOM     15  C   UNL     1      -4.578   0.728   2.051  0.00  0.00    +0.004 A 
ATOM     16  C   UNL     1      -5.902   0.775   1.656  0.00  0.00    -0.050 A 
ATOM     17  C   UNL     1      -6.388  -0.156   0.757  0.00  0.00    +0.004 A 
ATOM     18  C   UNL     1      -5.550  -1.131   0.251  0.00  0.00    +0.006 A 
ATOM     19  C   UNL     1      -6.815   1.841   2.205  0.00  0.00    +0.044 C 
ENDBRANCH  12  13
BRANCH   1  21
ATOM     20  C   UNL     1      -0.961   1.829  -1.350  0.00  0.00    +0.013 C 
ATOM     21  C   UNL     1      -0.754   0.327  -1.144  0.00  0.00    +0.092 C 
ENDBRANCH   1  21
BRANCH   9  22
ATOM     22  O   UNL     1      -4.730  -5.128   3.742  0.00  0.00    -0.483 OA
BRANCH  22  23
ATOM     23  C   UNL     1      -4.377  -6.057   4.769  0.00  0.00    +0.324 C 
BRANCH  23  24
ATOM     24  C   UNL     1      -5.621  -6.500   5.495  0.00  0.00    +0.234 A 
ATOM     25  N   UNL     1      -6.354  -7.525   5.176  0.00  0.00    -0.206 NA
ATOM     26  C   UNL     1      -7.386  -7.608   6.058  0.00  0.00    +0.164 A 
ATOM     27  C   UNL     1      -7.246  -6.578   6.936  0.00  0.00    +0.230 A 
ATOM     28  O   UNL     1      -6.143  -5.903   6.575  0.00  0.00    -0.444 OA
BRANCH  26  29
ATOM     29  C   UNL     1      -8.456  -8.623   6.062  0.00  0.00    +0.268 C 
ATOM     30  O   UNL     1      -9.391  -8.517   6.831  0.00  0.00    -0.268 OA
ATOM     31  N   UNL     1      -8.396  -9.668   5.213  0.00  0.00    -0.300 N 
ATOM     32  C   UNL     1      -7.315  -9.775   4.220  0.00  0.00    +0.089 C 
ATOM     33  C   UNL     1      -6.695 -11.172   4.326  0.00  0.00    -0.059 C 
ATOM     34  N   UNL     1      -7.749 -12.186   4.187  0.00  0.00    +0.384 N 
ATOM     35  C   UNL     1      -8.691 -12.085   5.309  0.00  0.00    -0.059 C 
ATOM     36  C   UNL     1      -9.406 -10.736   5.256  0.00  0.00    +0.089 C 
ATOM     37  H   UNL     1      -8.243 -12.039   3.320  0.00  0.00    -0.081 HD
BRANCH  34  38
ATOM     38  C   UNL     1      -7.141 -13.523   4.179  0.00  0.00    -0.052 C 
BRANCH  38  39
ATOM     39  C   UNL     1      -8.205 -14.557   3.914  0.00  0.00    -0.053 C 
ATOM     40  C   UNL     1      -8.065 -15.401   2.922  0.00  0.00    +0.002 C 
ENDBRANCH  38  39
ENDBRANCH  34  38
ENDBRANCH  26  29
ENDBRANCH  23  24
ENDBRANCH  22  23
ENDBRANCH   9  22
TORSDOF 8
