REMARK  Name = ZINC09341713
REMARK  7 active torsions:
REMARK  status: ('A' for Active; 'I' for Inactive)
REMARK    1  A    between atoms: C_1  and  C_2
REMARK    2  A    between atoms: N_4  and  C_5
REMARK    3  A    between atoms: C_8  and  N_11
REMARK    4  A    between atoms: C_19  and  C_25
REMARK    5  A    between atoms: N_27  and  C_28
REMARK    6  A    between atoms: C_31  and  O_34
REMARK    7  A    between atoms: O_34  and  C_35
REMARK                            x       y       z     vdW  Elec       q    Type
REMARK                         _______ _______ _______ _____ _____    ______ ____
ROOT
ATOM      1  N   UNL     1      -0.659   3.664  -2.310  0.00  0.00    -0.268 N 
ATOM      2  C   UNL     1      -1.912   3.382  -1.541  0.00  0.00    +0.153 C 
ATOM      3  C   UNL     1      -1.371   2.794  -0.275  0.00  0.00    +0.116 C 
ATOM      4  C   UNL     1      -0.689   3.822   0.609  0.00  0.00    +0.008 C 
ATOM      5  C   UNL     1      -0.277   3.160   1.680  0.00  0.00    +0.004 C 
ATOM      6  C   UNL     1      -0.659   1.699   1.415  0.00  0.00    +0.155 C 
ATOM      7  O   UNL     1      -1.916   1.864   0.632  0.00  0.00    -0.359 OA
ATOM      8  C   UNL     1       0.373   1.282   0.297  0.00  0.00    +0.123 C 
ATOM      9  C   UNL     1      -0.262   1.879  -0.933  0.00  0.00    +0.127 C 
ATOM     10  C   UNL     1       0.343   2.849  -1.863  0.00  0.00    +0.227 C 
ATOM     11  O   UNL     1       1.512   2.913  -2.180  0.00  0.00    -0.275 OA
ENDROOT
BRANCH   1  15
ATOM     12  C   UNL     1      -0.282   6.521  -5.324  0.00  0.00    +0.033 A 
ATOM     13  C   UNL     1       0.810   5.742  -4.965  0.00  0.00    +0.025 A 
ATOM     14  C   UNL     1       0.685   4.796  -3.967  0.00  0.00    +0.025 A 
ATOM     15  C   UNL     1      -0.532   4.624  -3.322  0.00  0.00    +0.036 A 
ATOM     16  C   UNL     1      -1.626   5.400  -3.684  0.00  0.00    +0.025 A 
ATOM     17  C   UNL     1      -1.500   6.348  -4.679  0.00  0.00    +0.025 A 
BRANCH  12  21
ATOM     18  C   UNL     1      -0.804   9.615  -7.406  0.00  0.00    +0.109 C 
ATOM     19  C   UNL     1      -0.851   8.633  -6.263  0.00  0.00    +0.214 C 
ATOM     20  O   UNL     1      -1.514   8.880  -5.279  0.00  0.00    -0.276 OA
ATOM     21  N   UNL     1      -0.155   7.481  -6.336  0.00  0.00    -0.286 N 
ATOM     22  H   UNL     1       0.433   7.316  -7.090  0.00  0.00    +0.155 HD
ENDBRANCH  12  21
ENDBRANCH   1  15
BRANCH   8  23
ATOM     23  C   UNL     1       1.727   1.891   0.557  0.00  0.00    +0.224 C 
ATOM     24  O   UNL     1       1.929   3.056   0.287  0.00  0.00    -0.275 OA
ATOM     25  N   UNL     1       2.712   1.141   1.088  0.00  0.00    -0.285 N 
ATOM     26  H   UNL     1       2.572   0.194   1.242  0.00  0.00    +0.155 HD
BRANCH  25  27
ATOM     27  C   UNL     1       3.940   1.730   1.418  0.00  0.00    +0.034 A 
ATOM     28  C   UNL     1       4.462   2.742   0.623  0.00  0.00    +0.027 A 
ATOM     29  C   UNL     1       5.669   3.325   0.952  0.00  0.00    +0.048 A 
ATOM     30  C   UNL     1       6.367   2.892   2.070  0.00  0.00    +0.130 A 
ATOM     31  C   UNL     1       5.849   1.878   2.862  0.00  0.00    +0.048 A 
ATOM     32  C   UNL     1       4.639   1.298   2.538  0.00  0.00    +0.027 A 
BRANCH  30  33
ATOM     33  O   UNL     1       7.559   3.463   2.390  0.00  0.00    -0.406 OA
BRANCH  33  34
ATOM     34  C   UNL     1       8.032   4.502   1.531  0.00  0.00    +0.575 C 
ATOM     35  F   UNL     1       7.106   5.551   1.513  0.00  0.00    -0.133 F 
ATOM     36  F   UNL     1       9.261   4.974   2.003  0.00  0.00    -0.133 F 
ATOM     37  F   UNL     1       8.192   3.999   0.235  0.00  0.00    -0.133 F 
ENDBRANCH  33  34
ENDBRANCH  30  33
ENDBRANCH  25  27
ENDBRANCH   8  23
TORSDOF 6
