REMARK  Name = ZINC64930547
REMARK  5 active torsions:
REMARK  status: ('A' for Active; 'I' for Inactive)
REMARK    1  A    between atoms: C_6  and  C_7
REMARK    2  A    between atoms: C_7  and  N_8
REMARK    3  A    between atoms: C_15  and  C_17
REMARK    4  A    between atoms: C_20  and  C_22
REMARK    5  A    between atoms: N_24  and  C_25
REMARK                            x       y       z     vdW  Elec       q    Type
REMARK                         _______ _______ _______ _____ _____    ______ ____
ROOT
ATOM      1  N   UNL     1      -1.718  -1.021  -1.415  0.00  0.00    -0.295 N 
ATOM      2  C   UNL     1      -2.862  -1.697  -1.644  0.00  0.00    +0.303 C 
ATOM      3  O   UNL     1      -3.526  -2.101  -0.710  0.00  0.00    -0.253 OA
ATOM      4  N   UNL     1      -3.268  -1.924  -2.909  0.00  0.00    -0.276 N 
ATOM      5  C   UNL     1      -2.559  -1.498  -4.129  0.00  0.00    +0.110 C 
ATOM      6  C   UNL     1      -3.657  -1.423  -5.220  0.00  0.00    +0.021 C 
ATOM      7  C   UNL     1      -4.554  -2.632  -4.842  0.00  0.00    +0.031 C 
ATOM      8  C   UNL     1      -4.489  -2.644  -3.300  0.00  0.00    +0.135 C 
ATOM      9  H   UNL     1      -1.188  -0.698  -2.160  0.00  0.00    +0.151 HD
ENDROOT
BRANCH   8  10
ATOM     10  C   UNL     1      -4.429  -4.064  -2.798  0.00  0.00    +0.123 A 
ATOM     11  N   UNL     1      -3.418  -4.909  -2.819  0.00  0.00    -0.144 NA
ATOM     12  N   UNL     1      -3.515  -6.081  -2.356  0.00  0.00    -0.136 NA
ATOM     13  C   UNL     1      -4.675  -6.469  -1.834  0.00  0.00    +0.187 A 
ATOM     14  S   UNL     1      -5.637  -4.979  -2.059  0.00  0.00    -0.044 S 
BRANCH  13  15
ATOM     15  C   UNL     1      -5.058  -7.759  -1.235  0.00  0.00    +0.275 C 
ATOM     16  O   UNL     1      -6.184  -7.920  -0.806  0.00  0.00    -0.268 OA
ATOM     17  N   UNL     1      -4.159  -8.761  -1.161  0.00  0.00    -0.280 N 
ATOM     18  H   UNL     1      -3.282  -8.656  -1.562  0.00  0.00    +0.155 HD
BRANCH  17  19
ATOM     19  C   UNL     1      -4.491  -9.952  -0.506  0.00  0.00    +0.034 A 
ATOM     20  C   UNL     1      -3.525 -10.642   0.213  0.00  0.00    +0.026 A 
ATOM     21  C   UNL     1      -3.855 -11.817   0.860  0.00  0.00    +0.040 A 
ATOM     22  C   UNL     1      -5.148 -12.307   0.790  0.00  0.00    +0.124 A 
ATOM     23  C   UNL     1      -6.113 -11.621   0.072  0.00  0.00    +0.040 A 
ATOM     24  C   UNL     1      -5.789 -10.442  -0.571  0.00  0.00    +0.026 A 
ATOM     25  F   UNL     1      -5.469 -13.457   1.422  0.00  0.00    -0.205 F 
ENDBRANCH  17  19
ENDBRANCH  13  15
ENDBRANCH   8  10
BRANCH   1  26
ATOM     26  C   UNL     1      -1.276  -0.773  -0.040  0.00  0.00    +0.141 C 
BRANCH  26  32
ATOM     27  C   UNL     1       0.002   1.378  -0.058  0.00  0.00    +0.008 A 
ATOM     28  C   UNL     1       1.190   2.084  -0.076  0.00  0.00    +0.038 A 
ATOM     29  C   UNL     1       2.397   1.407  -0.096  0.00  0.00    +0.123 A 
ATOM     30  C   UNL     1       2.413   0.022  -0.098  0.00  0.00    +0.038 A 
ATOM     31  C   UNL     1       1.224  -0.682  -0.080  0.00  0.00    +0.008 A 
ATOM     32  C   UNL     1       0.019  -0.004  -0.060  0.00  0.00    -0.030 A 
ATOM     33  F   UNL     1       3.559   2.096  -0.114  0.00  0.00    -0.205 F 
ENDBRANCH  26  32
ENDBRANCH   1  26
TORSDOF 5
