REMARK  Name = ZINC20682281
REMARK  9 active torsions:
REMARK  status: ('A' for Active; 'I' for Inactive)
REMARK    1  A    between atoms: C_1  and  C_2
REMARK    2  A    between atoms: C_2  and  C_3
REMARK    3  A    between atoms: C_3  and  C_5
REMARK    4  A    between atoms: C_3  and  N_6
REMARK    5  A    between atoms: N_6  and  S_7
REMARK    6  A    between atoms: S_7  and  C_10
REMARK    7  A    between atoms: C_23  and  C_26
REMARK    8  A    between atoms: C_29  and  O_33
REMARK    9  A    between atoms: C_31  and  O_32
REMARK                            x       y       z     vdW  Elec       q    Type
REMARK                         _______ _______ _______ _____ _____    ______ ____
ROOT
ATOM      1  C   UNL     1      -1.912  -0.341  -1.628  0.00  0.00    +0.106 A 
ATOM      2  C   UNL     1      -1.257   0.876  -1.666  0.00  0.00    +0.030 A 
ATOM      3  C   UNL     1      -1.640   1.831  -2.587  0.00  0.00    +0.025 A 
ATOM      4  C   UNL     1      -2.679   1.567  -3.470  0.00  0.00    +0.031 A 
ATOM      5  C   UNL     1      -3.337   0.347  -3.437  0.00  0.00    -0.018 A 
ATOM      6  C   UNL     1      -2.940  -0.606  -2.509  0.00  0.00    +0.034 A 
ATOM      7  C   UNL     1      -4.458   0.017  -4.370  0.00  0.00    +0.049 C 
ATOM      8  C   UNL     1      -5.795   0.070  -3.670  0.00  0.00    -0.023 C 
ATOM      9  C   UNL     1      -6.713   0.539  -4.479  0.00  0.00    -0.030 C 
ATOM     10  C   UNL     1      -6.112   0.860  -5.835  0.00  0.00    +0.033 C 
ATOM     11  C   UNL     1      -4.595   1.026  -5.526  0.00  0.00    +0.029 C 
ATOM     12  C   UNL     1      -4.390   2.451  -5.003  0.00  0.00    +0.108 C 
ATOM     13  N   UNL     1      -3.060   2.546  -4.394  0.00  0.00    -0.336 N 
ATOM     14  H   UNL     1      -2.388   3.373  -4.667  0.00  0.00    +0.147 HD
ENDROOT
BRANCH  12  15
ATOM     15  C   UNL     1      -5.441   2.765  -3.969  0.00  0.00    +0.015 A 
ATOM     16  C   UNL     1      -5.248   2.391  -2.653  0.00  0.00    +0.012 A 
ATOM     17  C   UNL     1      -6.210   2.678  -1.703  0.00  0.00    +0.046 A 
ATOM     18  C   UNL     1      -7.372   3.342  -2.069  0.00  0.00    +0.120 A 
ATOM     19  C   UNL     1      -7.568   3.717  -3.389  0.00  0.00    +0.091 A 
ATOM     20  C   UNL     1      -6.599   3.433  -4.339  0.00  0.00    +0.125 A 
BRANCH  20  21
ATOM     21  O   UNL     1      -6.786   3.805  -5.633  0.00  0.00    -0.506 OA
ATOM     22  H   UNL     1      -7.705   4.335  -5.926  0.00  0.00    +0.292 HD
ENDBRANCH  20  21
BRANCH  18  23
ATOM     23  O   UNL     1      -8.318   3.623  -1.134  0.00  0.00    -0.507 OA
ATOM     24  H   UNL     1      -9.239   4.149  -1.425  0.00  0.00    +0.292 HD
ENDBRANCH  18  23
ENDBRANCH  12  15
BRANCH   1  25
ATOM     25  S   UNL     1      -1.427  -1.562  -0.453  0.00  0.00    +0.059 S 
ATOM     26  O   UNL     1      -1.831  -2.817  -0.982  0.00  0.00    -0.153 OA
ATOM     27  O   UNL     1      -0.078  -1.279  -0.108  0.00  0.00    -0.153 OA
BRANCH  25  28
ATOM     28  N   UNL     1      -2.328  -1.311   0.914  0.00  0.00    -0.187 NA
ATOM     29  H   UNL     1      -1.854  -0.850   1.793  0.00  0.00    +0.148 HD
BRANCH  28  30
ATOM     30  C   UNL     1      -3.780  -1.496   0.877  0.00  0.00    +0.073 C 
ATOM     31  C   UNL     1      -4.460  -0.149   0.623  0.00  0.00    +0.025 C 
BRANCH  30  33
ATOM     32  C   UNL     1      -3.674  -3.464   2.413  0.00  0.00    +0.005 C 
ATOM     33  C   UNL     1      -4.256  -2.063   2.217  0.00  0.00    +0.017 C 
ENDBRANCH  30  33
ENDBRANCH  28  30
ENDBRANCH  25  28
ENDBRANCH   1  25
TORSDOF 7
