REMARK  Name = ZINC13247930
REMARK  10 active torsions:
REMARK  status: ('A' for Active; 'I' for Inactive)
REMARK    1  A    between atoms: C_1  and  C_2
REMARK    2  A    between atoms: C_2  and  N_3
REMARK    3  A    between atoms: N_3  and  C_4
REMARK    4  A    between atoms: N_3  and  C_6
REMARK    5  A    between atoms: C_4  and  C_5
REMARK    6  A    between atoms: C_9  and  C_25
REMARK    7  A    between atoms: C_11  and  N_12
REMARK    8  A    between atoms: N_12  and  S_13
REMARK    9  A    between atoms: S_13  and  C_16
REMARK   10  A    between atoms: C_18  and  C_23
REMARK                            x       y       z     vdW  Elec       q    Type
REMARK                         _______ _______ _______ _____ _____    ______ ____
ROOT
ATOM      1  C   UNL     1      -0.753  -0.688  -0.479  0.00  0.00    +0.052 A 
ATOM      2  C   UNL     1       0.327  -1.517  -0.218  0.00  0.00    +0.025 A 
ATOM      3  C   UNL     1       1.613  -1.012  -0.263  0.00  0.00    +0.014 A 
ATOM      4  C   UNL     1       1.827   0.320  -0.568  0.00  0.00    +0.057 A 
ATOM      5  C   UNL     1       0.755   1.154  -0.829  0.00  0.00    +0.038 A 
ATOM      6  C   UNL     1      -0.538   0.655  -0.786  0.00  0.00    +0.070 A 
ENDROOT
BRANCH   4   7
ATOM      7  C   UNL     1       3.231   0.864  -0.615  0.00  0.00    +0.417 C 
ATOM      8  F   UNL     1       4.138  -0.160  -0.318  0.00  0.00    -0.166 F 
ATOM      9  F   UNL     1       3.495   1.363  -1.895  0.00  0.00    -0.166 F 
ATOM     10  F   UNL     1       3.365   1.892   0.324  0.00  0.00    -0.166 F 
ENDBRANCH   4   7
BRANCH   6  11
ATOM     11  N   UNL     1      -1.624   1.497  -1.056  0.00  0.00    -0.214 N 
ATOM     12  H   UNL     1      -2.460   1.377  -0.580  0.00  0.00    +0.174 HD
BRANCH  11  13
ATOM     13  S   UNL     1      -1.481   2.696  -2.189  0.00  0.00    +0.073 S 
ATOM     14  O   UNL     1      -0.855   2.111  -3.323  0.00  0.00    -0.150 OA
ATOM     15  O   UNL     1      -2.747   3.337  -2.264  0.00  0.00    -0.150 OA
BRANCH  13  16
ATOM     16  C   UNL     1      -0.350   3.886  -1.548  0.00  0.00    +0.123 A 
ATOM     17  C   UNL     1       0.843   4.121  -2.198  0.00  0.00    +0.045 A 
ATOM     18  C   UNL     1       1.738   5.064  -1.689  0.00  0.00    +0.065 A 
ATOM     19  C   UNL     1       1.418   5.764  -0.523  0.00  0.00    +0.016 A 
ATOM     20  C   UNL     1       0.221   5.520   0.117  0.00  0.00    +0.018 A 
ATOM     21  C   UNL     1      -0.664   4.587  -0.396  0.00  0.00    +0.044 A 
ATOM     22 BR   UNL     1      -2.307   4.264   0.484  0.00  0.00    -0.048 Br
BRANCH  18  23
ATOM     23  C   UNL     1       3.017   5.321  -2.380  0.00  0.00    +0.387 C 
ATOM     24  O   UNL     1       3.293   4.711  -3.394  0.00  0.00    -0.241 OA
ATOM     25  O   UNL     1       3.879   6.232  -1.887  0.00  0.00    -0.241 OA
ENDBRANCH  18  23
ENDBRANCH  13  16
ENDBRANCH  11  13
ENDBRANCH   6  11
BRANCH   1  26
ATOM     26  N   UNL     1      -2.057  -1.198  -0.434  0.00  0.00    -0.329 N 
BRANCH  26  28
ATOM     27  C   UNL     1      -2.191  -1.706  -2.825  0.00  0.00    +0.024 C 
ATOM     28  C   UNL     1      -2.232  -2.283  -1.409  0.00  0.00    +0.102 C 
ENDBRANCH  26  28
BRANCH  26  29
ATOM     29  C   UNL     1      -2.399  -1.648   0.922  0.00  0.00    +0.102 C 
ATOM     30  C   UNL     1      -3.916  -1.808   1.038  0.00  0.00    +0.024 C 
ENDBRANCH  26  29
ENDBRANCH   1  26
TORSDOF 8
