REMARK  Name = ZINC23115838
REMARK  6 active torsions:
REMARK  status: ('A' for Active; 'I' for Inactive)
REMARK    1  A    between atoms: C_6  and  N_7
REMARK    2  A    between atoms: C_8  and  C_10
REMARK    3  A    between atoms: C_10  and  N_11
REMARK    4  A    between atoms: C_12  and  C_14
REMARK    5  A    between atoms: N_17  and  S_20
REMARK    6  A    between atoms: S_20  and  C_23
REMARK                            x       y       z     vdW  Elec       q    Type
REMARK                         _______ _______ _______ _____ _____    ______ ____
ROOT
ATOM      1  C   UNL     1      -1.329   1.944   0.024  0.00  0.00    +0.077 C 
ATOM      2  C   UNL     1      -1.414   2.826   1.272  0.00  0.00    +0.030 C 
ATOM      3  C   UNL     1      -2.737   3.598   1.257  0.00  0.00    +0.110 C 
ATOM      4  N   UNL     1      -3.843   2.640   1.119  0.00  0.00    -0.177 NA
ATOM      5  C   UNL     1      -3.814   1.684   0.004  0.00  0.00    +0.110 C 
ATOM      6  C   UNL     1      -2.479   0.933   0.033  0.00  0.00    +0.030 C 
ENDROOT
BRANCH   1   8
ATOM      7  N   UNL     1       1.143   1.898   0.004  0.00  0.00    -0.306 N 
ATOM      8  C   UNL     1      -0.014   1.208   0.018  0.00  0.00    +0.217 C 
ATOM      9  O   UNL     1       0.003  -0.005   0.020  0.00  0.00    -0.276 OA
ATOM     10  H   UNL     1       1.128   2.998   0.002  0.00  0.00    +0.149 HD
BRANCH   7  11
ATOM     11  C   UNL     1       2.422   1.183  -0.008  0.00  0.00    +0.200 C 
BRANCH  11  13
ATOM     12  N   UNL     1       4.831   1.746  -0.035  0.00  0.00    -0.284 N 
ATOM     13  C   UNL     1       3.554   2.178  -0.022  0.00  0.00    +0.234 C 
ATOM     14  O   UNL     1       3.316   3.367  -0.022  0.00  0.00    -0.274 OA
ATOM     15  H   UNL     1       5.048   0.670   0.042  0.00  0.00    +0.155 HD
BRANCH  12  21
ATOM     16  C   UNL     1       7.028   2.330  -0.850  0.00  0.00    +0.026 A 
ATOM     17  C   UNL     1       8.061   3.241  -0.963  0.00  0.00    +0.043 A 
ATOM     18  C   UNL     1       7.957   4.485  -0.366  0.00  0.00    +0.159 A 
ATOM     19  C   UNL     1       6.813   4.822   0.343  0.00  0.00    +0.160 A 
ATOM     20  C   UNL     1       5.776   3.915   0.454  0.00  0.00    +0.064 A 
ATOM     21  C   UNL     1       5.880   2.667  -0.145  0.00  0.00    +0.036 A 
ATOM     22  F   UNL     1       6.713   6.037   0.926  0.00  0.00    -0.202 F 
ATOM     23  F   UNL     1       8.970   5.372  -0.474  0.00  0.00    -0.202 F 
ENDBRANCH  12  21
ENDBRANCH  11  13
ENDBRANCH   7  11
ENDBRANCH   1   8
BRANCH   4  24
ATOM     24  S   UNL     1      -5.097   2.638   2.200  0.00  0.00    +0.061 S 
ATOM     25  O   UNL     1      -5.147   3.940   2.767  0.00  0.00    -0.153 OA
ATOM     26  O   UNL     1      -6.208   2.055   1.532  0.00  0.00    -0.153 OA
BRANCH  24  27
ATOM     27  C   UNL     1      -4.660   1.538   3.505  0.00  0.00    +0.106 A 
ATOM     28  C   UNL     1      -5.002   0.200   3.428  0.00  0.00    +0.029 A 
ATOM     29  C   UNL     1      -4.652  -0.656   4.452  0.00  0.00    +0.006 A 
ATOM     30  C   UNL     1      -3.970  -0.183   5.566  0.00  0.00    -0.044 A 
ATOM     31  C   UNL     1      -3.631   1.149   5.643  0.00  0.00    -0.042 A 
ATOM     32  C   UNL     1      -3.980   2.009   4.609  0.00  0.00    +0.032 A 
ATOM     33  C   UNL     1      -2.884   1.729   6.815  0.00  0.00    +0.035 C 
ATOM     34  C   UNL     1      -2.959   0.791   8.018  0.00  0.00    +0.005 C 
ATOM     35  C   UNL     1      -2.541  -0.612   7.564  0.00  0.00    +0.005 C 
ATOM     36  C   UNL     1      -3.632  -1.170   6.653  0.00  0.00    +0.035 C 
ENDBRANCH  24  27
ENDBRANCH   4  24
TORSDOF 6
