REMARK  Name = ZINC34681296
REMARK  5 active torsions:
REMARK  status: ('A' for Active; 'I' for Inactive)
REMARK    1  A    between atoms: C_1  and  C_2
REMARK    2  A    between atoms: C_5  and  N_9
REMARK    3  A    between atoms: C_6  and  C_8
REMARK    4  A    between atoms: N_12  and  C_13
REMARK    5  A    between atoms: C_26  and  C_28
REMARK                            x       y       z     vdW  Elec       q    Type
REMARK                         _______ _______ _______ _____ _____    ______ ____
ROOT
ATOM      1  C   UNL     1      -0.122  -6.945  -2.348  0.00  0.00    +0.051 A 
ATOM      2  C   UNL     1      -0.138  -6.264  -3.564  0.00  0.00    +0.028 A 
ATOM      3  C   UNL     1      -0.125  -7.003  -4.733  0.00  0.00    +0.043 A 
ATOM      4  C   UNL     1      -0.096  -8.392  -4.657  0.00  0.00    +0.099 A 
ATOM      5  N   UNL     1      -0.082  -9.005  -3.484  0.00  0.00    -0.348 N 
ATOM      6  C   UNL     1      -0.088  -8.331  -2.349  0.00  0.00    +0.107 A 
ATOM      7  N   UNL     1      -0.082  -9.146  -5.828  0.00  0.00    -0.315 N 
ATOM      8  C   UNL     1      -0.192 -10.608  -5.718  0.00  0.00    +0.108 C 
ATOM      9  C   UNL     1      -1.144 -11.205  -6.759  0.00  0.00    +0.038 C 
ATOM     10  C   UNL     1      -2.375 -10.334  -6.909  0.00  0.00    +0.109 C 
ATOM     11  N   UNL     1      -2.076  -9.296  -7.895  0.00  0.00    -0.296 N 
ATOM     12  C   UNL     1      -1.382  -8.089  -7.608  0.00  0.00    +0.127 C 
ATOM     13  C   UNL     1       0.034  -8.448  -7.096  0.00  0.00    +0.125 C 
ATOM     14  C   UNL     1      -2.487  -9.497  -9.163  0.00  0.00    +0.248 C 
ATOM     15  O   UNL     1      -2.186  -8.703 -10.033  0.00  0.00    -0.270 OA
ATOM     16  H   UNL     1      -0.062  -9.974  -3.458  0.00  0.00    +0.167 HD
ENDROOT
BRANCH  14  17
ATOM     17  C   UNL     1      -3.304 -10.682  -9.495  0.00  0.00    +0.055 A 
ATOM     18  C   UNL     1      -2.840 -11.963  -9.184  0.00  0.00    +0.016 A 
ATOM     19  C   UNL     1      -3.607 -13.065  -9.497  0.00  0.00    +0.021 A 
ATOM     20  C   UNL     1      -4.835 -12.905 -10.118  0.00  0.00    +0.042 A 
ATOM     21  C   UNL     1      -5.301 -11.640 -10.429  0.00  0.00    +0.040 A 
ATOM     22  C   UNL     1      -4.546 -10.527 -10.116  0.00  0.00    +0.054 A 
ATOM     23 CL   UNL     1      -5.135  -8.939 -10.499  0.00  0.00    -0.083 Cl
ATOM     24 CL   UNL     1      -5.793 -14.299 -10.508  0.00  0.00    -0.083 Cl
ENDBRANCH  14  17
BRANCH   1  28
ATOM     25  N   UNL     1      -0.583  -4.275   0.045  0.00  0.00    -0.269 N 
ATOM     26  C   UNL     1      -0.678  -5.004  -1.084  0.00  0.00    +0.308 C 
ATOM     27  O   UNL     1      -1.254  -4.551  -2.054  0.00  0.00    -0.252 OA
ATOM     28  N   UNL     1      -0.135  -6.237  -1.138  0.00  0.00    -0.268 N 
ATOM     29  H   UNL     1      -0.068  -4.609   0.796  0.00  0.00    +0.156 HD
ATOM     30  H   UNL     1       0.248  -6.633  -0.340  0.00  0.00    +0.156 HD
BRANCH  25  35
ATOM     31  C   UNL     1      -3.194   0.749   0.403  0.00  0.00    +0.044 C 
ATOM     32  C   UNL     1      -2.500  -0.585   0.308  0.00  0.00    -0.050 A 
ATOM     33  C   UNL     1      -1.967  -1.001  -0.898  0.00  0.00    +0.005 A 
ATOM     34  C   UNL     1      -1.330  -2.223  -0.989  0.00  0.00    +0.024 A 
ATOM     35  C   UNL     1      -1.227  -3.035   0.133  0.00  0.00    +0.038 A 
ATOM     36  C   UNL     1      -1.764  -2.615   1.343  0.00  0.00    -0.029 A 
ATOM     37  C   UNL     1      -2.394  -1.389   1.428  0.00  0.00    +0.008 A 
ATOM     38  C   UNL     1      -1.653  -3.493   2.563  0.00  0.00    +0.045 C 
ENDBRANCH  25  35
ENDBRANCH   1  28
TORSDOF 3
