REMARK  Name = ZINC03884797
REMARK  7 active torsions:
REMARK  status: ('A' for Active; 'I' for Inactive)
REMARK    1  A    between atoms: C_3  and  S_6
REMARK    2  A    between atoms: S_6  and  N_9
REMARK    3  A    between atoms: N_9  and  C_10
REMARK    4  A    between atoms: C_12  and  C_25
REMARK    5  A    between atoms: C_14  and  N_16
REMARK    6  A    between atoms: N_16  and  S_17
REMARK    7  A    between atoms: S_17  and  C_20
REMARK                            x       y       z     vdW  Elec       q    Type
REMARK                         _______ _______ _______ _____ _____    ______ ____
ROOT
ATOM      1  C   UNL     1      -1.030   3.348  -1.440  0.00  0.00    +0.051 A 
ATOM      2  C   UNL     1      -1.418   4.114  -0.351  0.00  0.00    +0.039 A 
ATOM      3  C   UNL     1      -1.707   5.468  -0.520  0.00  0.00    +0.067 A 
ATOM      4  C   UNL     1      -1.616   6.045  -1.787  0.00  0.00    +0.039 A 
ATOM      5  C   UNL     1      -1.233   5.271  -2.873  0.00  0.00    +0.051 A 
ATOM      6  C   UNL     1      -0.941   3.925  -2.700  0.00  0.00    +0.049 A 
ENDROOT
BRANCH   3   7
ATOM      7  C   UNL     1      -2.115   6.289   0.639  0.00  0.00    +0.387 C 
ATOM      8  O   UNL     1      -2.371   7.466   0.490  0.00  0.00    -0.241 OA
ATOM      9  O   UNL     1      -2.202   5.730   1.862  0.00  0.00    -0.241 OA
ENDBRANCH   3   7
BRANCH   1  10
ATOM     10  N   UNL     1      -0.735   1.993  -1.271  0.00  0.00    -0.216 N 
ATOM     11  H   UNL     1      -1.451   1.356  -1.120  0.00  0.00    +0.174 HD
BRANCH  10  12
ATOM     12  S   UNL     1       0.836   1.474  -1.329  0.00  0.00    +0.079 S 
ATOM     13  O   UNL     1       0.813   0.078  -1.065  0.00  0.00    -0.149 OA
ATOM     14  O   UNL     1       1.399   2.015  -2.517  0.00  0.00    -0.149 OA
BRANCH  12  17
ATOM     15  C   UNL     1       2.616   2.515   2.167  0.00  0.00    +0.010 A 
ATOM     16  C   UNL     1       1.921   1.737   1.260  0.00  0.00    +0.036 A 
ATOM     17  C   UNL     1       1.684   2.228   0.019  0.00  0.00    +0.146 A 
ATOM     18  S   UNL     1       2.461   3.833   0.102  0.00  0.00    -0.077 S 
ATOM     19  C   UNL     1       3.041   3.745   1.788  0.00  0.00    +0.047 A 
ENDBRANCH  12  17
ENDBRANCH  10  12
ENDBRANCH   1  10
BRANCH   5  20
ATOM     20  N   UNL     1      -1.142   5.848  -4.143  0.00  0.00    -0.216 N 
ATOM     21  H   UNL     1      -0.367   5.674  -4.699  0.00  0.00    +0.174 HD
BRANCH  20  22
ATOM     22  S   UNL     1      -2.358   6.826  -4.697  0.00  0.00    +0.079 S 
ATOM     23  O   UNL     1      -2.575   7.811  -3.695  0.00  0.00    -0.149 OA
ATOM     24  O   UNL     1      -2.029   7.163  -6.037  0.00  0.00    -0.149 OA
BRANCH  22  25
ATOM     25  C   UNL     1      -3.822   5.849  -4.768  0.00  0.00    +0.146 A 
ATOM     26  C   UNL     1      -4.810   5.723  -3.848  0.00  0.00    +0.036 A 
ATOM     27  C   UNL     1      -5.878   4.889  -4.121  0.00  0.00    +0.010 A 
ATOM     28  C   UNL     1      -5.906   4.222  -5.301  0.00  0.00    +0.047 A 
ATOM     29  S   UNL     1      -4.394   4.774  -6.073  0.00  0.00    -0.077 S 
ENDBRANCH  22  25
ENDBRANCH  20  22
ENDBRANCH   5  20
TORSDOF 7
