REMARK  Name = ZINC44939183
REMARK  8 active torsions:
REMARK  status: ('A' for Active; 'I' for Inactive)
REMARK    1  A    between atoms: C_1  and  O_2
REMARK    2  A    between atoms: O_2  and  C_3
REMARK    3  A    between atoms: C_6  and  S_27
REMARK    4  A    between atoms: C_8  and  N_9
REMARK    5  A    between atoms: C_10  and  C_12
REMARK    6  A    between atoms: N_17  and  C_19
REMARK    7  A    between atoms: C_19  and  C_20
REMARK    8  A    between atoms: S_27  and  N_30
REMARK                            x       y       z     vdW  Elec       q    Type
REMARK                         _______ _______ _______ _____ _____    ______ ____
ROOT
ATOM      1  N   UNL     1       0.098  -2.779   0.084  0.00  0.00    -0.282 N 
ATOM      2  C   UNL     1       0.240  -4.119   0.087  0.00  0.00    +0.219 C 
ATOM      3  O   UNL     1       0.797  -4.667   1.015  0.00  0.00    -0.275 OA
ATOM      4  H   UNL     1      -0.403  -2.346  -0.625  0.00  0.00    +0.155 HD
ENDROOT
BRANCH   2   5
ATOM      5  C   UNL     1      -0.292  -4.936  -1.062  0.00  0.00    +0.059 C 
ATOM      6  C   UNL     1       0.391  -4.496  -2.361  0.00  0.00    +0.009 C 
ATOM      7  C   UNL     1      -0.099  -5.384  -3.508  0.00  0.00    -0.018 C 
ATOM      8  C   UNL     1       0.187  -6.849  -3.170  0.00  0.00    -0.078 C 
ATOM      9  N   UNL     1      -0.514  -7.215  -1.933  0.00  0.00    +0.383 N 
ATOM     10  C   UNL     1      -0.000  -6.417  -0.814  0.00  0.00    -0.066 C 
ATOM     11  H   UNL     1      -1.502  -7.040  -2.043  0.00  0.00    -0.081 HD
BRANCH   9  12
ATOM     12  C   UNL     1      -0.301  -8.641  -1.655  0.00  0.00    -0.043 C 
BRANCH  12  13
ATOM     13  C   UNL     1      -0.945  -9.467  -2.739  0.00  0.00    -0.064 A 
ATOM     14  C   UNL     1      -2.261  -9.870  -2.609  0.00  0.00    +0.003 A 
ATOM     15  C   UNL     1      -2.853 -10.627  -3.603  0.00  0.00    +0.020 A 
ATOM     16  C   UNL     1      -2.128 -10.981  -4.727  0.00  0.00    +0.041 A 
ATOM     17  C   UNL     1      -0.811 -10.577  -4.856  0.00  0.00    +0.020 A 
ATOM     18  C   UNL     1      -0.222  -9.815  -3.864  0.00  0.00    +0.003 A 
ATOM     19 CL   UNL     1      -2.871 -11.932  -5.975  0.00  0.00    -0.084 Cl
ENDBRANCH  12  13
ENDBRANCH   9  12
ENDBRANCH   2   5
BRANCH   1  25
ATOM     20  C   UNL     1       1.183  -0.745   0.824  0.00  0.00    +0.141 A 
ATOM     21  C   UNL     1       1.746   0.013   1.839  0.00  0.00    +0.049 A 
ATOM     22  C   UNL     1       1.807  -0.491   3.125  0.00  0.00    +0.032 A 
ATOM     23  C   UNL     1       1.306  -1.749   3.403  0.00  0.00    +0.107 A 
ATOM     24  C   UNL     1       0.743  -2.510   2.397  0.00  0.00    +0.055 A 
ATOM     25  C   UNL     1       0.673  -2.010   1.105  0.00  0.00    +0.077 A 
BRANCH  23  26
ATOM     26  S   UNL     1       1.388  -2.384   5.045  0.00  0.00    +0.061 S 
ATOM     27  O   UNL     1       1.346  -3.800   4.935  0.00  0.00    -0.153 OA
ATOM     28  O   UNL     1       2.453  -1.701   5.692  0.00  0.00    -0.153 OA
BRANCH  26  29
ATOM     29  N   UNL     1      -0.004  -1.928   5.816  0.00  0.00    -0.177 NA
ATOM     30  C   UNL     1      -0.196  -0.682   6.573  0.00  0.00    +0.109 C 
ATOM     31  C   UNL     1      -1.635  -0.702   7.131  0.00  0.00    +0.018 C 
ATOM     32  C   UNL     1      -1.986  -2.213   7.133  0.00  0.00    +0.018 C 
ATOM     33  C   UNL     1      -1.259  -2.701   5.853  0.00  0.00    +0.109 C 
ENDBRANCH  26  29
ENDBRANCH  23  26
BRANCH  20  35
ATOM     34  C   UNL     1       1.664   1.054  -0.655  0.00  0.00    +0.277 C 
ATOM     35  O   UNL     1       1.122  -0.251  -0.441  0.00  0.00    -0.493 OA
ENDBRANCH  20  35
ENDBRANCH   1  25
TORSDOF 7
