REMARK  Name = ZINC59041396
REMARK  5 active torsions:
REMARK  status: ('A' for Active; 'I' for Inactive)
REMARK    1  A    between atoms: C_1  and  C_2
REMARK    2  A    between atoms: C_4  and  N_8
REMARK    3  A    between atoms: N_8  and  C_9
REMARK    4  A    between atoms: N_8  and  C_10
REMARK    5  A    between atoms: C_13  and  C_16
REMARK                            x       y       z     vdW  Elec       q    Type
REMARK                         _______ _______ _______ _____ _____    ______ ____
ROOT
ATOM      1  C   UNL     1       0.097   4.836  -3.174  0.00  0.00    +0.085 C 
ATOM      2  C   UNL     1      -0.651   3.552  -3.429  0.00  0.00    +0.102 C 
ATOM      3  N   UNL     1      -1.532   3.066  -2.613  0.00  0.00    -0.245 NA
ATOM      4  C   UNL     1      -2.022   1.817  -3.225  0.00  0.00    +0.238 C 
ATOM      5  C   UNL     1      -1.234   1.737  -4.518  0.00  0.00    +0.111 C 
ATOM      6  N   UNL     1      -0.475   2.805  -4.524  0.00  0.00    -0.333 N 
ATOM      7  N   UNL     1      -1.303   0.768  -5.469  0.00  0.00    -0.345 N 
ATOM      8  H   UNL     1      -1.822  -0.035  -5.306  0.00  0.00    +0.143 HD
ATOM      9  H   UNL     1      -0.834   0.880  -6.311  0.00  0.00    +0.143 HD
ATOM     10  H   UNL     1       0.143   3.026  -5.238  0.00  0.00    +0.168 HD
ENDROOT
BRANCH   4  11
ATOM     11  N   UNL     1      -3.463   1.905  -3.499  0.00  0.00    -0.275 NA
ATOM     12  C   UNL     1      -3.756   3.004  -4.428  0.00  0.00    +0.107 C 
BRANCH  11  13
ATOM     13  C   UNL     1      -3.979   0.629  -4.014  0.00  0.00    +0.059 C 
ATOM     14  C   UNL     1      -3.598  -0.500  -3.054  0.00  0.00    +0.019 C 
ATOM     15  C   UNL     1      -4.136  -1.828  -3.590  0.00  0.00    +0.005 C 
ATOM     16  C   UNL     1      -5.659  -1.751  -3.708  0.00  0.00    -0.014 C 
ATOM     17  C   UNL     1      -6.040  -0.623  -4.668  0.00  0.00    +0.005 C 
ATOM     18  C   UNL     1      -5.502   0.706  -4.132  0.00  0.00    +0.019 C 
ATOM     19  C   UNL     1      -6.264  -1.475  -2.330  0.00  0.00    +0.007 C 
ENDBRANCH  11  13
ENDBRANCH   4  11
TORSDOF 2
