REMARK  Name = ZINC12710873
REMARK  5 active torsions:
REMARK  status: ('A' for Active; 'I' for Inactive)
REMARK    1  A    between atoms: C_3  and  C_6
REMARK    2  A    between atoms: C_6  and  N_7
REMARK    3  A    between atoms: N_7  and  C_8
REMARK    4  A    between atoms: C_8  and  C_9
REMARK    5  A    between atoms: N_26  and  C_27
REMARK                            x       y       z     vdW  Elec       q    Type
REMARK                         _______ _______ _______ _____ _____    ______ ____
ROOT
ATOM      1  N   UNL     1      -1.342  -1.422   1.242  0.00  0.00    -0.276 N 
ATOM      2  C   UNL     1      -2.323  -0.723   1.847  0.00  0.00    +0.307 C 
ATOM      3  O   UNL     1      -2.659  -1.004   2.981  0.00  0.00    -0.252 OA
ATOM      4  N   UNL     1      -2.932   0.287   1.194  0.00  0.00    -0.269 N 
ATOM      5  H   UNL     1      -2.623   0.551   0.313  0.00  0.00    +0.156 HD
ENDROOT
BRANCH   4   6
ATOM      6  C   UNL     1      -4.010   0.955   1.787  0.00  0.00    +0.035 A 
ATOM      7  C   UNL     1      -5.063   1.408   1.004  0.00  0.00    +0.026 A 
ATOM      8  C   UNL     1      -6.129   2.061   1.592  0.00  0.00    +0.040 A 
ATOM      9  C   UNL     1      -6.142   2.274   2.960  0.00  0.00    +0.124 A 
ATOM     10  C   UNL     1      -5.090   1.829   3.742  0.00  0.00    +0.040 A 
ATOM     11  C   UNL     1      -4.025   1.170   3.159  0.00  0.00    +0.026 A 
ATOM     12  F   UNL     1      -7.183   2.918   3.533  0.00  0.00    -0.205 F 
ENDBRANCH   4   6
BRANCH   1  13
ATOM     13  C   UNL     1      -0.937  -1.083  -0.125  0.00  0.00    +0.152 C 
BRANCH  13  16
ATOM     14  C   UNL     1       2.367   0.804   0.060  0.00  0.00    +0.008 A 
ATOM     15  C   UNL     1       1.516  -0.285   0.043  0.00  0.00    +0.013 A 
ATOM     16  C   UNL     1       0.183  -0.075  -0.082  0.00  0.00    +0.007 A 
ATOM     17  S   UNL     1       0.097   1.705  -0.181  0.00  0.00    -0.100 S 
ATOM     18  C   UNL     1       1.843   2.050  -0.050  0.00  0.00    +0.045 A 
ENDBRANCH  13  16
ENDBRANCH   1  13
BRANCH   1  19
ATOM     19  C   UNL     1      -0.680  -2.519   1.951  0.00  0.00    +0.150 C 
BRANCH  19  20
ATOM     20  C   UNL     1      -1.333  -3.825   1.578  0.00  0.00    +0.035 A 
ATOM     21  C   UNL     1      -0.815  -4.578   0.575  0.00  0.00    +0.020 A 
ATOM     22  C   UNL     1      -1.471  -5.840   0.237  0.00  0.00    +0.003 A 
ATOM     23  C   UNL     1      -0.978  -6.659  -0.788  0.00  0.00    +0.059 A 
ATOM     24  C   UNL     1      -1.617  -7.843  -1.083  0.00  0.00    +0.167 A 
ATOM     25  C   UNL     1      -2.755  -8.229  -0.363  0.00  0.00    +0.168 A 
ATOM     26  C   UNL     1      -3.248  -7.427   0.649  0.00  0.00    +0.075 A 
ATOM     27  C   UNL     1      -2.615  -6.230   0.960  0.00  0.00    +0.053 A 
ATOM     28  N   UNL     1      -3.092  -5.418   1.968  0.00  0.00    -0.322 N 
ATOM     29  H   UNL     1      -3.880  -5.687   2.466  0.00  0.00    +0.169 HD
ATOM     30  C   UNL     1      -2.478  -4.262   2.275  0.00  0.00    +0.254 A 
ATOM     31  O   UNL     1      -2.924  -3.573   3.176  0.00  0.00    -0.268 OA
ATOM     32  O   UNL     1      -3.188  -9.428  -0.850  0.00  0.00    -0.453 OA
ATOM     33  C   UNL     1      -2.077  -9.969  -1.588  0.00  0.00    +0.466 C 
ATOM     34  O   UNL     1      -1.347  -8.804  -2.014  0.00  0.00    -0.453 OA
ENDBRANCH  19  20
ENDBRANCH   1  19
TORSDOF 5
