REMARK  Name = ZINC33731893
REMARK  16 active torsions:
REMARK  status: ('A' for Active; 'I' for Inactive)
REMARK    1  A    between atoms: C_1  and  C_2
REMARK    2  A    between atoms: C_2  and  C_3
REMARK    3  A    between atoms: C_2  and  C_4
REMARK    4  A    between atoms: C_7  and  N_10
REMARK    5  A    between atoms: N_13  and  C_14
REMARK    6  A    between atoms: N_13  and  C_36
REMARK    7  A    between atoms: C_14  and  C_15
REMARK    8  A    between atoms: N_17  and  C_18
REMARK    9  A    between atoms: N_17  and  C_30
REMARK   10  A    between atoms: C_18  and  C_19
REMARK   11  A    between atoms: C_19  and  C_20
REMARK   12  A    between atoms: C_23  and  O_28
REMARK   13  A    between atoms: C_24  and  O_26
REMARK   14  A    between atoms: O_26  and  C_27
REMARK   15  A    between atoms: O_28  and  C_29
REMARK   16  A    between atoms: C_30  and  C_31
REMARK                            x       y       z     vdW  Elec       q    Type
REMARK                         _______ _______ _______ _____ _____    ______ ____
ROOT
ATOM      1  C   UNL     1       3.578   2.285  -3.686  0.00  0.00    +0.233 C 
ATOM      2  O   UNL     1       3.940   2.638  -4.788  0.00  0.00    -0.274 OA
ATOM      3  N   UNL     1       2.885   1.139  -3.539  0.00  0.00    -0.295 N 
ENDROOT
BRANCH   1   4
ATOM      4  C   UNL     1       3.904   3.129  -2.480  0.00  0.00    +0.205 C 
BRANCH   4   8
ATOM      5  N   UNL     1       6.701   5.386  -3.245  0.00  0.00    -0.269 N 
ATOM      6  C   UNL     1       6.003   4.270  -2.954  0.00  0.00    +0.307 C 
ATOM      7  O   UNL     1       6.588   3.226  -2.740  0.00  0.00    -0.252 OA
ATOM      8  N   UNL     1       4.657   4.312  -2.901  0.00  0.00    -0.274 N 
ATOM      9  H   UNL     1       6.186   6.355  -3.315  0.00  0.00    +0.156 HD
BRANCH   5  13
ATOM     10  C   UNL     1      10.813   5.165  -3.881  0.00  0.00    -0.045 A 
ATOM     11  C   UNL     1      10.054   6.080  -4.587  0.00  0.00    +0.006 A 
ATOM     12  C   UNL     1       8.691   6.156  -4.378  0.00  0.00    +0.023 A 
ATOM     13  C   UNL     1       8.082   5.311  -3.459  0.00  0.00    +0.035 A 
ATOM     14  C   UNL     1       8.848   4.397  -2.748  0.00  0.00    +0.023 A 
ATOM     15  C   UNL     1      10.210   4.323  -2.965  0.00  0.00    +0.006 A 
BRANCH  10  17
ATOM     16  C   UNL     1      13.035   5.376  -2.801  0.00  0.00    +0.012 C 
ATOM     17  C   UNL     1      12.300   5.085  -4.111  0.00  0.00    +0.013 C 
ATOM     18  C   UNL     1      12.666   3.682  -4.600  0.00  0.00    +0.012 C 
ENDBRANCH  10  17
ENDBRANCH   5  13
BRANCH   8  19
ATOM     19  C   UNL     1       3.948   5.542  -3.264  0.00  0.00    +0.078 C 
ATOM     20  C   UNL     1       2.419   5.516  -3.213  0.00  0.00    +0.024 C 
ATOM     21  C   UNL     1       3.139   5.533  -4.563  0.00  0.00    +0.024 C 
ENDBRANCH   8  19
ENDBRANCH   4   8
ENDBRANCH   1   4
BRANCH   3  22
ATOM     22  C   UNL     1       2.568   0.319  -4.711  0.00  0.00    +0.113 C 
BRANCH  22  23
ATOM     23  C   UNL     1       1.223   0.758  -5.292  0.00  0.00    +0.054 C 
BRANCH  23  24
ATOM     24  C   UNL     1       0.897  -0.085  -6.498  0.00  0.00    -0.042 A 
ATOM     25  C   UNL     1       1.306   0.322  -7.755  0.00  0.00    +0.007 A 
ATOM     26  C   UNL     1       1.014  -0.451  -8.863  0.00  0.00    +0.049 A 
ATOM     27  C   UNL     1       0.302  -1.631  -8.718  0.00  0.00    +0.161 A 
ATOM     28  C   UNL     1      -0.114  -2.037  -7.454  0.00  0.00    +0.162 A 
ATOM     29  C   UNL     1       0.186  -1.260  -6.346  0.00  0.00    +0.053 A 
BRANCH  28  30
ATOM     30  O   UNL     1      -0.813  -3.194  -7.305  0.00  0.00    -0.491 OA
ATOM     31  C   UNL     1      -1.207  -3.549  -5.978  0.00  0.00    +0.277 C 
ENDBRANCH  28  30
BRANCH  27  32
ATOM     32  O   UNL     1       0.010  -2.390  -9.808  0.00  0.00    -0.491 OA
ATOM     33  C   UNL     1       0.469  -1.911 -11.073  0.00  0.00    +0.277 C 
ENDBRANCH  27  32
ENDBRANCH  23  24
ENDBRANCH  22  23
ENDBRANCH   3  22
BRANCH   3  34
ATOM     34  C   UNL     1       2.448   0.713  -2.207  0.00  0.00    +0.150 C 
BRANCH  34  35
ATOM     35  C   UNL     1       1.081   1.280  -1.921  0.00  0.00    +0.007 A 
ATOM     36  C   UNL     1      -0.137   0.745  -2.179  0.00  0.00    +0.013 A 
ATOM     37  C   UNL     1      -1.269   1.455  -1.830  0.00  0.00    +0.008 A 
ATOM     38  C   UNL     1      -1.129   2.662  -1.229  0.00  0.00    +0.045 A 
ATOM     39  S   UNL     1       0.647   2.833  -1.154  0.00  0.00    -0.100 S 
ENDBRANCH  34  35
ENDBRANCH   3  34
TORSDOF 12
