REMARK  Name = ZINC39030345
REMARK  2 active torsions:
REMARK  status: ('A' for Active; 'I' for Inactive)
REMARK    1  A    between atoms: C_8  and  N_11
REMARK    2  A    between atoms: C_15  and  C_18
REMARK                            x       y       z     vdW  Elec       q    Type
REMARK                         _______ _______ _______ _____ _____    ______ ____
ROOT
ATOM      1  N   UNL     1       2.931  -3.450  -1.252  0.00  0.00    -0.221 N 
ATOM      2  C   UNL     1       2.868  -2.992  -2.518  0.00  0.00    +0.270 A 
ATOM      3  O   UNL     1       2.607  -1.850  -2.854  0.00  0.00    -0.266 OA
ATOM      4  C   UNL     1       3.156  -4.064  -3.385  0.00  0.00    +0.099 A 
ATOM      5  C   UNL     1       3.392  -5.170  -2.622  0.00  0.00    +0.068 A 
ATOM      6  N   UNL     1       3.264  -4.810  -1.300  0.00  0.00    -0.292 N 
ATOM      7  H   UNL     1       3.381  -5.396  -0.536  0.00  0.00    +0.187 HD
ENDROOT
BRANCH   1  15
ATOM      8  C   UNL     1      -0.017   1.371   0.010  0.00  0.00    +0.002 A 
ATOM      9  C   UNL     1       1.157   2.102   0.002  0.00  0.00    +0.001 A 
ATOM     10  C   UNL     1       2.367   1.427  -0.013  0.00  0.00    +0.016 A 
ATOM     11  C   UNL     1       2.384   0.051  -0.020  0.00  0.00    +0.032 A 
ATOM     12  C   UNL     1       1.215  -0.716  -0.013  0.00  0.00    +0.043 A 
ATOM     13  C   UNL     1       0.002  -0.004   0.002  0.00  0.00    +0.024 A 
ATOM     14  N   UNL     1       1.341  -2.104  -0.022  0.00  0.00    -0.313 N 
ATOM     15  C   UNL     1       2.700  -2.663  -0.039  0.00  0.00    +0.257 C 
ATOM     16  S   UNL     1       3.714  -1.130  -0.039  0.00  0.00    -0.078 S 
ATOM     17  H   UNL     1       0.560  -2.680  -0.018  0.00  0.00    +0.149 HD
ENDBRANCH   1  15
BRANCH   5  18
ATOM     18  C   UNL     1       3.732  -6.515  -3.127  0.00  0.00    +0.000 A 
ATOM     19  C   UNL     1       3.944  -7.567  -2.231  0.00  0.00    +0.013 A 
ATOM     20  C   UNL     1       4.261  -8.821  -2.708  0.00  0.00    +0.039 A 
ATOM     21  C   UNL     1       4.369  -9.040  -4.073  0.00  0.00    +0.123 A 
ATOM     22  C   UNL     1       4.160  -8.000  -4.966  0.00  0.00    +0.039 A 
ATOM     23  C   UNL     1       3.837  -6.743  -4.501  0.00  0.00    +0.013 A 
ATOM     24  F   UNL     1       4.679 -10.271  -4.534  0.00  0.00    -0.205 F 
ENDBRANCH   5  18
TORSDOF 2
