REMARK  Name = ZINC09224021
REMARK  5 active torsions:
REMARK  status: ('A' for Active; 'I' for Inactive)
REMARK    1  A    between atoms: C_4  and  N_7
REMARK    2  A    between atoms: C_9  and  C_17
REMARK    3  A    between atoms: C_10  and  C_12
REMARK    4  A    between atoms: C_18  and  C_19
REMARK    5  A    between atoms: C_23  and  C_32
REMARK                            x       y       z     vdW  Elec       q    Type
REMARK                         _______ _______ _______ _____ _____    ______ ____
ROOT
ATOM      1  C   UNL     1       1.220   5.958  -1.630  0.00  0.00    +0.017 C 
ATOM      2  C   UNL     1       1.286   7.253  -2.017  0.00  0.00    +0.068 C 
ENDROOT
BRANCH   2   3
ATOM      3  C   UNL     1       0.248   7.810  -2.804  0.00  0.00    +0.244 C 
ATOM      4  O   UNL     1      -0.749   7.155  -3.050  0.00  0.00    -0.270 OA
ATOM      5  N   UNL     1       0.364   9.066  -3.281  0.00  0.00    -0.261 N 
ATOM      6  C   UNL     1       1.607   9.836  -3.104  0.00  0.00    +0.168 C 
ATOM      7  C   UNL     1       1.890  10.564  -4.430  0.00  0.00    +0.276 C 
ATOM      8  O   UNL     1       0.775  11.403  -4.739  0.00  0.00    -0.476 OA
ATOM      9  C   UNL     1      -0.466  10.852  -4.685  0.00  0.00    +0.143 A 
ATOM     10  C   UNL     1      -0.698   9.687  -3.958  0.00  0.00    +0.079 A 
ATOM     11  C   UNL     1      -1.970   9.141  -3.904  0.00  0.00    +0.027 A 
ATOM     12  C   UNL     1      -3.012   9.754  -4.576  0.00  0.00    +0.002 A 
ATOM     13  C   UNL     1      -2.784  10.909  -5.300  0.00  0.00    +0.004 A 
ATOM     14  C   UNL     1      -1.517  11.459  -5.356  0.00  0.00    +0.047 A 
BRANCH   7  15
ATOM     15  C   UNL     1       3.132  11.405  -4.291  0.00  0.00    +0.253 C 
ATOM     16  O   UNL     1       3.055  12.614  -4.351  0.00  0.00    -0.272 OA
ATOM     17  N   UNL     1       4.328  10.815  -4.099  0.00  0.00    -0.326 N 
ATOM     18  H   UNL     1       4.390   9.848  -4.051  0.00  0.00    +0.145 HD
ATOM     19  H   UNL     1       5.128  11.357  -4.010  0.00  0.00    +0.145 HD
ENDBRANCH   7  15
ENDBRANCH   2   3
BRANCH   1  22
ATOM     20  N   UNL     1       4.154   5.141   0.344  0.00  0.00    -0.239 N 
ATOM     21  C   UNL     1       3.429   6.028  -0.361  0.00  0.00    +0.123 A 
ATOM     22  C   UNL     1       2.294   5.381  -0.815  0.00  0.00    +0.021 A 
ATOM     23  C   UNL     1       2.377   4.003  -0.315  0.00  0.00    +0.107 A 
ATOM     24  N   UNL     1       3.500   3.907   0.365  0.00  0.00    -0.165 NA
BRANCH  20  28
ATOM     25  C   UNL     1       7.802   5.954   2.189  0.00  0.00    +0.000 A 
ATOM     26  C   UNL     1       7.250   4.689   2.278  0.00  0.00    +0.002 A 
ATOM     27  C   UNL     1       6.042   4.416   1.668  0.00  0.00    +0.028 A 
ATOM     28  C   UNL     1       5.380   5.414   0.964  0.00  0.00    +0.065 A 
ATOM     29  C   UNL     1       5.940   6.682   0.872  0.00  0.00    +0.028 A 
ATOM     30  C   UNL     1       7.146   6.950   1.489  0.00  0.00    +0.002 A 
ENDBRANCH  20  28
BRANCH  23  31
ATOM     31  C   UNL     1       1.390   2.927  -0.538  0.00  0.00    +0.040 A 
ATOM     32  C   UNL     1       1.602   1.585  -0.714  0.00  0.00    +0.018 A 
ATOM     33  C   UNL     1       0.513   0.763  -0.907  0.00  0.00    +0.008 A 
ATOM     34  C   UNL     1      -0.731   1.307  -0.923  0.00  0.00    +0.046 A 
ATOM     35  S   UNL     1      -0.388   3.037  -0.647  0.00  0.00    -0.095 S 
ENDBRANCH  23  31
ENDBRANCH   1  22
TORSDOF 5
