REMARK  Name = ZINC13391236
REMARK  8 active torsions:
REMARK  status: ('A' for Active; 'I' for Inactive)
REMARK    1  A    between atoms: C_1  and  C_2
REMARK    2  A    between atoms: C_4  and  C_30
REMARK    3  A    between atoms: C_7  and  N_8
REMARK    4  A    between atoms: C_9  and  C_11
REMARK    5  A    between atoms: C_15  and  S_17
REMARK    6  A    between atoms: S_17  and  N_20
REMARK    7  A    between atoms: C_22  and  C_29
REMARK    8  A    between atoms: C_25  and  C_28
REMARK                            x       y       z     vdW  Elec       q    Type
REMARK                         _______ _______ _______ _____ _____    ______ ____
ROOT
ATOM      1  C   UNL     1      -1.818   3.865   3.710  0.00  0.00    +0.039 A 
ATOM      2  C   UNL     1      -2.588   2.906   4.371  0.00  0.00    +0.013 A 
ATOM      3  C   UNL     1      -2.994   1.771   3.701  0.00  0.00    +0.003 A 
ATOM      4  C   UNL     1      -2.644   1.583   2.375  0.00  0.00    +0.028 A 
ATOM      5  C   UNL     1      -1.876   2.527   1.716  0.00  0.00    +0.106 A 
ATOM      6  C   UNL     1      -1.464   3.667   2.374  0.00  0.00    +0.041 A 
ENDROOT
BRANCH   1   8
ATOM      7  N   UNL     1      -1.723   5.271   5.711  0.00  0.00    -0.281 N 
ATOM      8  C   UNL     1      -1.379   5.083   4.422  0.00  0.00    +0.248 C 
ATOM      9  O   UNL     1      -0.708   5.916   3.844  0.00  0.00    -0.270 OA
ATOM     10  H   UNL     1      -2.324   4.648   6.149  0.00  0.00    +0.155 HD
BRANCH   7  17
ATOM     11  C   UNL     1      -3.208   6.228   7.936  0.00  0.00    +0.045 C 
ATOM     12  C   UNL     1      -1.909   6.862   7.513  0.00  0.00    -0.028 A 
ATOM     13  C   UNL     1      -1.409   7.938   8.212  0.00  0.00    +0.020 A 
ATOM     14  C   UNL     1      -0.204   8.527   7.818  0.00  0.00    +0.064 A 
ATOM     15  C   UNL     1       0.491   8.020   6.716  0.00  0.00    +0.017 A 
ATOM     16  C   UNL     1      -0.011   6.941   6.025  0.00  0.00    +0.024 A 
ATOM     17  C   UNL     1      -1.215   6.360   6.416  0.00  0.00    +0.037 A 
BRANCH  14  18
ATOM     18  C   UNL     1       0.334   9.679   8.565  0.00  0.00    +0.387 C 
ATOM     19  O   UNL     1      -0.270  10.118   9.523  0.00  0.00    -0.241 OA
ATOM     20  O   UNL     1       1.496  10.245   8.184  0.00  0.00    -0.241 OA
ENDBRANCH  14  18
ENDBRANCH   7  17
ENDBRANCH   1   8
BRANCH   5  21
ATOM     21  S   UNL     1      -1.431   2.275   0.030  0.00  0.00    +0.061 S 
ATOM     22  O   UNL     1      -1.176   3.561  -0.519  0.00  0.00    -0.153 OA
ATOM     23  O   UNL     1      -2.399   1.391  -0.518  0.00  0.00    -0.153 OA
BRANCH  21  24
ATOM     24  N   UNL     1       0.012   1.463   0.021  0.00  0.00    -0.176 NA
ATOM     25  C   UNL     1       1.285   2.197   0.010  0.00  0.00    +0.112 C 
ATOM     26  C   UNL     1       2.153   1.695   1.168  0.00  0.00    +0.002 C 
ATOM     27  C   UNL     1       2.303   0.175   1.067  0.00  0.00    +0.009 C 
ATOM     28  C   UNL     1       0.926  -0.483   1.175  0.00  0.00    +0.002 C 
ATOM     29  C   UNL     1       0.044  -0.006   0.017  0.00  0.00    +0.112 C 
ATOM     30  C   UNL     1       0.277  -0.095   2.505  0.00  0.00    +0.009 C 
ATOM     31  C   UNL     1       3.533   2.351   1.093  0.00  0.00    +0.009 C 
ENDBRANCH  21  24
ENDBRANCH   5  21
TORSDOF 5
