REMARK  Name = ZINC63383661
REMARK  11 active torsions:
REMARK  status: ('A' for Active; 'I' for Inactive)
REMARK    1  A    between atoms: C_1  and  C_2
REMARK    2  A    between atoms: C_2  and  C_3
REMARK    3  A    between atoms: C_3  and  C_5
REMARK    4  A    between atoms: C_3  and  C_6
REMARK    5  A    between atoms: C_6  and  C_8
REMARK    6  A    between atoms: C_6  and  N_16
REMARK    7  A    between atoms: N_10  and  C_11
REMARK    8  A    between atoms: C_11  and  C_13
REMARK    9  A    between atoms: C_11  and  C_14
REMARK   10  A    between atoms: C_14  and  C_15
REMARK   11  A    between atoms: C_17  and  C_19
REMARK                            x       y       z     vdW  Elec       q    Type
REMARK                         _______ _______ _______ _____ _____    ______ ____
ROOT
ATOM      1  C   UNL     1       2.658   3.371   0.149  0.00  0.00    +0.167 C 
ATOM      2  C   UNL     1       4.034   3.754  -0.429  0.00  0.00    +0.065 C 
ATOM      3  C   UNL     1       5.067   3.411   0.615  0.00  0.00    -0.034 C 
ATOM      4  C   UNL     1       6.174   2.680   0.534  0.00  0.00    -0.001 A 
ATOM      5  C   UNL     1       6.836   2.030  -0.608  0.00  0.00    +0.010 A 
ATOM      6  C   UNL     1       7.968   1.331  -0.327  0.00  0.00    +0.001 A 
ATOM      7  C   UNL     1       8.501   1.216   0.960  0.00  0.00    +0.002 A 
ATOM      8  C   UNL     1       7.964   1.788   2.067  0.00  0.00    +0.026 A 
ATOM      9  C   UNL     1       6.774   2.555   1.897  0.00  0.00    +0.043 A 
ATOM     10  N   UNL     1       6.070   3.218   2.766  0.00  0.00    -0.375 N 
ATOM     11  C   UNL     1       4.974   3.885   2.061  0.00  0.00    +0.131 C 
ATOM     12  C   UNL     1       3.607   3.427   2.581  0.00  0.00    +0.134 C 
ATOM     13  N   UNL     1       2.603   3.798   1.553  0.00  0.00    -0.276 N 
ATOM     14  C   UNL     1       1.670   4.586   2.118  0.00  0.00    +0.248 C 
ATOM     15  O   UNL     1       0.673   4.996   1.557  0.00  0.00    -0.270 OA
ATOM     16  C   UNL     1       2.030   4.878   3.507  0.00  0.00    +0.042 A 
ATOM     17  C   UNL     1       3.233   4.170   3.822  0.00  0.00    -0.013 A 
ATOM     18  C   UNL     1       3.828   4.242   5.062  0.00  0.00    +0.006 A 
ATOM     19  C   UNL     1       3.203   5.040   6.017  0.00  0.00    +0.000 A 
ATOM     20  C   UNL     1       2.039   5.728   5.740  0.00  0.00    +0.001 A 
ATOM     21  C   UNL     1       1.401   5.678   4.465  0.00  0.00    +0.013 A 
ATOM     22  H   UNL     1       6.242   3.262   3.720  0.00  0.00    +0.160 HD
ENDROOT
BRANCH   1  24
ATOM     23  N   UNL     1       2.493   1.261  -1.131  0.00  0.00    -0.302 N 
ATOM     24  C   UNL     1       2.471   1.878   0.067  0.00  0.00    +0.235 C 
ATOM     25  O   UNL     1       2.301   1.231   1.079  0.00  0.00    -0.274 OA
ATOM     26  H   UNL     1       2.702   1.766  -1.933  0.00  0.00    +0.150 HD
BRANCH  23  27
ATOM     27  C   UNL     1       2.203  -0.172  -1.223  0.00  0.00    +0.162 C 
BRANCH  27  28
ATOM     28  C   UNL     1       2.996  -0.774  -2.354  0.00  0.00    +0.234 C 
ATOM     29  O   UNL     1       3.736  -0.075  -3.015  0.00  0.00    -0.274 OA
ATOM     30  N   UNL     1       2.884  -2.088  -2.632  0.00  0.00    -0.311 N 
ATOM     31  H   UNL     1       2.239  -2.631  -2.153  0.00  0.00    +0.149 HD
BRANCH  30  32
ATOM     32  C   UNL     1       3.736  -2.696  -3.657  0.00  0.00    +0.070 C 
ATOM     33  C   UNL     1       3.097  -2.501  -5.033  0.00  0.00    +0.028 C 
BRANCH  32  34
ATOM     34  C   UNL     1       3.888  -4.191  -3.372  0.00  0.00    +0.018 C 
ATOM     35  C   UNL     1       4.639  -4.386  -2.054  0.00  0.00    +0.005 C 
ENDBRANCH  32  34
ENDBRANCH  30  32
ENDBRANCH  27  28
BRANCH  27  36
ATOM     36  C   UNL     1       0.709  -0.374  -1.484  0.00  0.00    +0.015 C 
ATOM     37  C   UNL     1      -0.089   0.083  -0.261  0.00  0.00    +0.010 C 
BRANCH  36  39
ATOM     38  C   UNL     1       0.926  -0.143  -3.963  0.00  0.00    +0.004 C 
ATOM     39  C   UNL     1       0.288   0.449  -2.704  0.00  0.00    +0.002 C 
ENDBRANCH  36  39
ENDBRANCH  27  36
ENDBRANCH  23  27
ENDBRANCH   1  24
TORSDOF 7
