REMARK  Name = ZINC37464350
REMARK  6 active torsions:
REMARK  status: ('A' for Active; 'I' for Inactive)
REMARK    1  A    between atoms: C_1  and  C_2
REMARK    2  A    between atoms: C_2  and  C_4
REMARK    3  A    between atoms: C_2  and  N_11
REMARK    4  A    between atoms: N_11  and  S_12
REMARK    5  A    between atoms: S_12  and  C_15
REMARK    6  A    between atoms: CA_17  and  C_21
REMARK                            x       y       z     vdW  Elec       q    Type
REMARK                         _______ _______ _______ _____ _____    ______ ____
ROOT
ATOM      1  S   UNL     1      -0.139  -0.902   2.549  0.00  0.00    +0.060 S 
ATOM      2  O   UNL     1       0.814  -1.354   3.502  0.00  0.00    -0.153 OA
ATOM      3  O   UNL     1      -1.030   0.173   2.814  0.00  0.00    -0.153 OA
ENDROOT
BRANCH   1   4
ATOM      4  C   UNL     1      -1.137  -2.294   2.137  0.00  0.00    +0.123 A 
ATOM      5  C   UNL     1      -2.437  -2.252   1.628  0.00  0.00    +0.063 A 
ATOM      6  CA  UNL     1      -2.843  -3.561   1.450  0.00  0.00    +0.130 A 
ATOM      7  N   UNL     1      -1.803  -4.373   1.846  0.00  0.00    -0.354 N 
ATOM      8  H   UNL     1      -1.806  -5.343   1.831  0.00  0.00    +0.166 HD
ATOM      9  C   UNL     1      -0.778  -3.596   2.253  0.00  0.00    +0.112 A 
BRANCH   6  10
ATOM     10  C   UNL     1      -4.138  -4.002   0.936  0.00  0.00    +0.402 C 
ATOM     11  O   UNL     1      -4.377  -5.199   0.825  0.00  0.00    -0.239 OA
ATOM     12  OXT UNL     1      -4.984  -3.176   0.616  0.00  0.00    -0.239 OA
ENDBRANCH   6  10
ENDBRANCH   1   4
BRANCH   1  13
ATOM     13  N   UNL     1       0.711  -0.489   1.189  0.00  0.00    -0.183 NA
ATOM     14  H   UNL     1       1.677  -0.569   1.178  0.00  0.00    +0.149 HD
BRANCH  13  16
ATOM     15  C   UNL     1      -0.019   1.526   0.010  0.00  0.00    +0.031 C 
ATOM     16  C   UNL     1       0.002  -0.004   0.002  0.00  0.00    +0.103 C 
BRANCH  16  17
ATOM     17  C   UNL     1       0.707  -0.490  -1.238  0.00  0.00    -0.029 A 
ATOM     18  C   UNL     1       2.089  -0.511  -1.284  0.00  0.00    +0.006 A 
ATOM     19  C   UNL     1       2.736  -0.956  -2.421  0.00  0.00    +0.020 A 
ATOM     20  C   UNL     1       2.002  -1.382  -3.513  0.00  0.00    +0.041 A 
ATOM     21  C   UNL     1       0.619  -1.361  -3.466  0.00  0.00    +0.020 A 
ATOM     22  C   UNL     1      -0.027  -0.920  -2.327  0.00  0.00    +0.006 A 
ATOM     23 CL   UNL     1       2.814  -1.941  -4.941  0.00  0.00    -0.084 Cl
ENDBRANCH  16  17
ENDBRANCH  13  16
ENDBRANCH   1  13
TORSDOF 5
