REMARK  Name = ZINC17242868
REMARK  11 active torsions:
REMARK  status: ('A' for Active; 'I' for Inactive)
REMARK    1  A    between atoms: C_1  and  C_2
REMARK    2  A    between atoms: C_2  and  C_33
REMARK    3  A    between atoms: C_5  and  C_29
REMARK    4  A    between atoms: C_6  and  N_12
REMARK    5  A    between atoms: C_9  and  C_10
REMARK    6  A    between atoms: C_9  and  C_11
REMARK    7  A    between atoms: C_13  and  C_15
REMARK    8  A    between atoms: C_18  and  C_21
REMARK    9  A    between atoms: C_21  and  C_23
REMARK   10  A    between atoms: C_29  and  O_31
REMARK   11  A    between atoms: O_31  and  C_32
REMARK                            x       y       z     vdW  Elec       q    Type
REMARK                         _______ _______ _______ _____ _____    ______ ____
ROOT
ATOM      1  C   UNL     1      -3.659  -0.719  -1.522  0.00  0.00    -0.010 C 
ATOM      2  C   UNL     1      -2.328  -0.031  -1.170  0.00  0.00    -0.069 C 
ATOM      3  C   UNL     1      -1.199  -0.821  -1.841  0.00  0.00    +0.024 C 
ATOM      4  C   UNL     1       0.102  -0.070  -1.588  0.00  0.00    -0.024 A 
ATOM      5  C   UNL     1       1.414  -0.666  -1.453  0.00  0.00    +0.091 A 
ATOM      6  C   UNL     1       2.483   0.193  -1.212  0.00  0.00    +0.086 A 
ATOM      7  S   UNL     1       1.734   1.755  -1.169  0.00  0.00    -0.079 S 
ATOM      8  C   UNL     1       0.057   1.277  -1.467  0.00  0.00    -0.016 A 
ATOM      9  C   UNL     1      -1.158   2.139  -1.577  0.00  0.00    -0.041 C 
ATOM     10  C   UNL     1      -1.203   3.108  -0.387  0.00  0.00    -0.005 C 
ATOM     11  C   UNL     1      -1.044   2.974  -2.866  0.00  0.00    -0.005 C 
ATOM     12  C   UNL     1      -2.154  -0.095   0.350  0.00  0.00    -0.010 C 
ATOM     13  N   UNL     1      -2.434   1.370  -1.653  0.00  0.00    +0.389 N 
ATOM     14  H   UNL     1      -3.137   1.855  -1.083  0.00  0.00    -0.084 HD
ATOM     15  H   UNL     1      -2.741   1.351  -2.632  0.00  0.00    -0.084 HD
ENDROOT
BRANCH   6  16
ATOM     16  N   UNL     1       3.820  -0.127  -1.047  0.00  0.00    -0.275 N 
ATOM     17  C   UNL     1       4.722   0.848  -0.818  0.00  0.00    +0.249 C 
ATOM     18  O   UNL     1       4.362   2.007  -0.757  0.00  0.00    -0.270 OA
ATOM     19  H   UNL     1       4.107  -1.052  -1.096  0.00  0.00    +0.156 HD
BRANCH  17  20
ATOM     20  C   UNL     1       6.151   0.507  -0.642  0.00  0.00    +0.037 A 
ATOM     21  C   UNL     1       6.564  -0.825  -0.707  0.00  0.00    +0.014 A 
ATOM     22  C   UNL     1       7.895  -1.142  -0.549  0.00  0.00    +0.012 A 
ATOM     23  C   UNL     1       8.830  -0.132  -0.312  0.00  0.00    +0.022 A 
ATOM     24  C   UNL     1       8.416   1.200  -0.241  0.00  0.00    +0.012 A 
ATOM     25  C   UNL     1       7.085   1.517  -0.405  0.00  0.00    +0.014 A 
BRANCH  23  26
ATOM     26  C   UNL     1      10.258  -0.473  -0.135  0.00  0.00    +0.193 C 
ATOM     27  O   UNL     1      11.090   0.411  -0.066  0.00  0.00    -0.287 OA
BRANCH  26  28
ATOM     28  C   UNL     1      10.674  -1.887  -0.042  0.00  0.00    +0.022 A 
ATOM     29  C   UNL     1       9.841  -2.824   0.574  0.00  0.00    +0.012 A 
ATOM     30  C   UNL     1      10.234  -4.144   0.653  0.00  0.00    +0.001 A 
ATOM     31  C   UNL     1      11.454  -4.539   0.132  0.00  0.00    +0.000 A 
ATOM     32  C   UNL     1      12.286  -3.615  -0.474  0.00  0.00    +0.001 A 
ATOM     33  C   UNL     1      11.905  -2.293  -0.565  0.00  0.00    +0.012 A 
ENDBRANCH  26  28
ENDBRANCH  23  26
ENDBRANCH  17  20
ENDBRANCH   6  16
BRANCH   5  34
ATOM     34  C   UNL     1       1.623  -2.111  -1.568  0.00  0.00    +0.342 C 
ATOM     35  O   UNL     1       1.864  -2.607  -2.652  0.00  0.00    -0.245 OA
BRANCH  34  36
ATOM     36  O   UNL     1       1.550  -2.892  -0.470  0.00  0.00    -0.464 OA
ATOM     37  C   UNL     1       1.768  -4.315  -0.658  0.00  0.00    +0.280 C 
ENDBRANCH  34  36
ENDBRANCH   5  34
TORSDOF 6
