REMARK  Name = ZINC12564597
REMARK  5 active torsions:
REMARK  status: ('A' for Active; 'I' for Inactive)
REMARK    1  A    between atoms: C_1  and  C_2
REMARK    2  A    between atoms: C_3  and  C_22
REMARK    3  A    between atoms: C_4  and  C_10
REMARK    4  A    between atoms: C_13  and  C_15
REMARK    5  A    between atoms: N_24  and  C_25
REMARK                            x       y       z     vdW  Elec       q    Type
REMARK                         _______ _______ _______ _____ _____    ______ ____
ROOT
ATOM      1  C   UNL     1      -3.512   8.893   0.747  0.00  0.00    +0.061 C 
ATOM      2  C   UNL     1      -2.098   9.323   0.452  0.00  0.00    +0.019 C 
ATOM      3  C   UNL     1      -1.111   8.402   0.449  0.00  0.00    +0.059 C 
ATOM      4  C   UNL     1       0.295   8.876   0.141  0.00  0.00    +0.177 C 
ATOM      5  N   UNL     1       0.472  10.313  -0.126  0.00  0.00    -0.285 N 
ATOM      6  C   UNL     1      -0.613  11.112  -0.081  0.00  0.00    +0.304 C 
ATOM      7  O   UNL     1      -0.477  12.300  -0.299  0.00  0.00    -0.252 OA
ATOM      8  N   UNL     1      -1.834  10.640   0.197  0.00  0.00    -0.273 N 
ATOM      9  H   UNL     1       1.348  10.676  -0.329  0.00  0.00    +0.151 HD
ATOM     10  H   UNL     1      -2.575  11.266   0.215  0.00  0.00    +0.156 HD
ENDROOT
BRANCH   4  11
ATOM     11  C   UNL     1       1.175   8.508   1.308  0.00  0.00    +0.131 A 
ATOM     12  C   UNL     1       2.113   7.541   1.310  0.00  0.00    +0.047 A 
ATOM     13  C   UNL     1       2.698   7.536   2.593  0.00  0.00    +0.050 A 
ATOM     14  C   UNL     1       2.071   8.505   3.312  0.00  0.00    +0.135 A 
ATOM     15  O   UNL     1       1.150   9.086   2.520  0.00  0.00    -0.457 OA
BRANCH  14  16
ATOM     16  C   UNL     1       2.352   8.859   4.720  0.00  0.00    +0.017 A 
ATOM     17  C   UNL     1       3.335   8.169   5.432  0.00  0.00    +0.014 A 
ATOM     18  C   UNL     1       3.598   8.508   6.743  0.00  0.00    +0.039 A 
ATOM     19  C   UNL     1       2.879   9.522   7.357  0.00  0.00    +0.123 A 
ATOM     20  C   UNL     1       1.899  10.205   6.656  0.00  0.00    +0.039 A 
ATOM     21  C   UNL     1       1.632   9.879   5.343  0.00  0.00    +0.014 A 
ATOM     22  F   UNL     1       3.137   9.845   8.643  0.00  0.00    -0.205 F 
ENDBRANCH  14  16
ENDBRANCH   4  11
BRANCH   3  23
ATOM     23  C   UNL     1      -1.382   7.038   0.719  0.00  0.00    +0.248 C 
ATOM     24  O   UNL     1      -1.599   6.267  -0.199  0.00  0.00    -0.270 OA
ATOM     25  N   UNL     1      -1.400   6.593   1.991  0.00  0.00    -0.282 N 
ATOM     26  H   UNL     1      -1.344   7.224   2.726  0.00  0.00    +0.155 HD
BRANCH  25  27
ATOM     27  C   UNL     1      -1.498   5.223   2.251  0.00  0.00    +0.034 A 
ATOM     28  C   UNL     1      -0.883   4.682   3.373  0.00  0.00    +0.024 A 
ATOM     29  C   UNL     1      -0.982   3.328   3.627  0.00  0.00    +0.017 A 
ATOM     30  C   UNL     1      -1.693   2.511   2.767  0.00  0.00    +0.018 A 
ATOM     31  C   UNL     1      -2.303   3.046   1.646  0.00  0.00    +0.017 A 
ATOM     32  C   UNL     1      -2.212   4.400   1.389  0.00  0.00    +0.024 A 
ATOM     33 BR   UNL     1      -1.826   0.658   3.119  0.00  0.00    -0.050 Br
ENDBRANCH  25  27
ENDBRANCH   3  23
TORSDOF 4
