REMARK  Name = ZINC63608940
REMARK  6 active torsions:
REMARK  status: ('A' for Active; 'I' for Inactive)
REMARK    1  A    between atoms: C_8  and  C_30
REMARK    2  A    between atoms: N_10  and  C_16
REMARK    3  A    between atoms: C_16  and  N_18
REMARK    4  A    between atoms: N_18  and  C_19
REMARK    5  A    between atoms: C_24  and  O_25
REMARK    6  A    between atoms: O_25  and  C_26
REMARK                            x       y       z     vdW  Elec       q    Type
REMARK                         _______ _______ _______ _____ _____    ______ ____
ROOT
ATOM      1  C   UNL     1      -0.035   1.351  -0.068  0.00  0.00    +0.001 A 
ATOM      2  C   UNL     1       1.146   2.106  -0.070  0.00  0.00    +0.002 A 
ATOM      3  C   UNL     1       2.372   1.540  -0.066  0.00  0.00    +0.026 A 
ATOM      4  C   UNL     1       2.513   0.126  -0.061  0.00  0.00    +0.043 A 
ATOM      5  N   UNL     1       3.576  -0.645  -0.077  0.00  0.00    -0.375 N 
ATOM      6  C   UNL     1       3.141  -2.037   0.015  0.00  0.00    +0.135 C 
ATOM      7  C   UNL     1       3.648  -2.874  -1.165  0.00  0.00    +0.206 C 
ATOM      8  N   UNL     1       2.855  -4.112  -1.214  0.00  0.00    -0.299 N 
ATOM      9  C   UNL     1       1.399  -4.060  -1.388  0.00  0.00    +0.112 C 
ATOM     10  C   UNL     1       0.779  -3.233  -0.247  0.00  0.00    +0.052 C 
ATOM     11  C   UNL     1       1.624  -1.992  -0.071  0.00  0.00    -0.035 C 
ATOM     12  C   UNL     1       1.278  -0.697  -0.066  0.00  0.00    -0.001 A 
ATOM     13  C   UNL     1      -0.015  -0.000  -0.066  0.00  0.00    +0.010 A 
ATOM     14  H   UNL     1       4.495  -0.342  -0.141  0.00  0.00    +0.160 HD
ENDROOT
BRANCH   7  15
ATOM     15  C   UNL     1       3.471  -2.092  -2.468  0.00  0.00    +0.410 C 
ATOM     16  F   UNL     1       4.200  -0.900  -2.399  0.00  0.00    -0.169 F 
ATOM     17  F   UNL     1       3.936  -2.862  -3.540  0.00  0.00    -0.169 F 
ATOM     18  F   UNL     1       2.116  -1.800  -2.656  0.00  0.00    -0.169 F 
ENDBRANCH   7  15
BRANCH   8  19
ATOM     19  C   UNL     1       3.471  -5.305  -1.098  0.00  0.00    +0.138 C 
ATOM     20  S   UNL     1       5.180  -5.382  -1.023  0.00  0.00    -0.018 S 
BRANCH  19  21
ATOM     21  N   UNL     1       2.743  -6.438  -1.042  0.00  0.00    -0.294 N 
ATOM     22  H   UNL     1       2.578  -6.867  -0.188  0.00  0.00    +0.154 HD
BRANCH  21  23
ATOM     23  C   UNL     1       2.223  -6.995  -2.218  0.00  0.00    +0.075 A 
ATOM     24  C   UNL     1       2.548  -6.447  -3.450  0.00  0.00    +0.027 A 
ATOM     25  C   UNL     1       2.034  -6.999  -4.609  0.00  0.00    +0.002 A 
ATOM     26  C   UNL     1       1.196  -8.097  -4.543  0.00  0.00    +0.004 A 
ATOM     27  C   UNL     1       0.868  -8.649  -3.318  0.00  0.00    +0.048 A 
ATOM     28  C   UNL     1       1.383  -8.104  -2.153  0.00  0.00    +0.151 A 
BRANCH  28  29
ATOM     29  O   UNL     1       1.065  -8.649  -0.948  0.00  0.00    -0.404 OA
BRANCH  29  30
ATOM     30  C   UNL     1       0.199  -9.786  -0.958  0.00  0.00    +0.575 C 
ATOM     31  F   UNL     1       0.792 -10.818  -1.693  0.00  0.00    -0.133 F 
ATOM     32  F   UNL     1      -0.022 -10.215   0.355  0.00  0.00    -0.133 F 
ATOM     33  F   UNL     1      -1.022  -9.436  -1.546  0.00  0.00    -0.133 F 
ENDBRANCH  29  30
ENDBRANCH  28  29
ENDBRANCH  21  23
ENDBRANCH  19  21
ENDBRANCH   8  19
TORSDOF 6
