REMARK  Name = ZINC03220312
REMARK  8 active torsions:
REMARK  status: ('A' for Active; 'I' for Inactive)
REMARK    1  A    between atoms: C_1  and  C_2
REMARK    2  A    between atoms: C_2  and  C_4
REMARK    3  A    between atoms: C_2  and  S_17
REMARK    4  A    between atoms: N_6  and  C_7
REMARK    5  A    between atoms: C_10  and  N_13
REMARK    6  A    between atoms: C_14  and  C_16
REMARK    7  A    between atoms: S_17  and  C_18
REMARK    8  A    between atoms: N_31  and  C_32
REMARK                            x       y       z     vdW  Elec       q    Type
REMARK                         _______ _______ _______ _____ _____    ______ ____
ROOT
ATOM      1  C   UNL     1      -7.221   8.013   1.655  0.00  0.00    +0.174 A 
ATOM      2  N   UNL     1      -8.194   7.188   1.323  0.00  0.00    -0.216 NA
ATOM      3  C   UNL     1      -9.465   7.556   1.435  0.00  0.00    +0.117 A 
ATOM      4  C   UNL     1      -9.836   8.830   1.897  0.00  0.00    +0.076 A 
ATOM      5  C   UNL     1     -11.275   9.093   1.959  0.00  0.00    -0.023 A 
ATOM      6  C   UNL     1     -12.097   8.096   1.573  0.00  0.00    -0.004 A 
ATOM      7  S   UNL     1     -11.021   6.767   1.107  0.00  0.00    -0.073 S 
ATOM      8  C   UNL     1     -13.595   8.114   1.544  0.00  0.00    +0.043 C 
ATOM      9  C   UNL     1     -14.081   9.312   2.373  0.00  0.00    +0.005 C 
ATOM     10  C   UNL     1     -13.286  10.552   1.956  0.00  0.00    +0.005 C 
ATOM     11  C   UNL     1     -11.840  10.428   2.437  0.00  0.00    +0.037 C 
ATOM     12  C   UNL     1      -8.759   9.705   2.246  0.00  0.00    +0.263 A 
ATOM     13  O   UNL     1      -8.986  10.830   2.657  0.00  0.00    -0.267 OA
ATOM     14  N   UNL     1      -7.493   9.269   2.114  0.00  0.00    -0.284 N 
ENDROOT
BRANCH  14  15
ATOM     15  C   UNL     1      -6.386  10.160   2.469  0.00  0.00    +0.093 C 
ATOM     16  C   UNL     1      -6.517  10.605   3.940  0.00  0.00    +0.025 C 
ATOM     17  C   UNL     1      -6.040  12.080   3.934  0.00  0.00    +0.002 C 
ATOM     18  C   UNL     1      -6.608  12.617   2.596  0.00  0.00    +0.002 C 
ATOM     19  C   UNL     1      -6.443  11.438   1.615  0.00  0.00    +0.025 C 
ENDBRANCH  14  15
BRANCH   1  20
ATOM     20  S   UNL     1      -5.546   7.488   1.499  0.00  0.00    -0.075 S 
BRANCH  20  22
ATOM     21  C   UNL     1      -6.447   5.874  -0.512  0.00  0.00    +0.029 C 
ATOM     22  C   UNL     1      -5.800   5.809   0.873  0.00  0.00    +0.137 C 
BRANCH  22  23
ATOM     23  C   UNL     1      -4.472   5.104   0.774  0.00  0.00    +0.230 C 
ATOM     24  O   UNL     1      -3.444   5.748   0.738  0.00  0.00    -0.274 OA
ATOM     25  N   UNL     1      -4.425   3.758   0.727  0.00  0.00    -0.285 N 
ATOM     26  H   UNL     1      -5.240   3.241   0.823  0.00  0.00    +0.155 HD
BRANCH  25  27
ATOM     27  C   UNL     1      -3.200   3.105   0.537  0.00  0.00    +0.034 A 
ATOM     28  C   UNL     1      -3.145   1.933  -0.204  0.00  0.00    +0.025 A 
ATOM     29  C   UNL     1      -1.938   1.290  -0.390  0.00  0.00    +0.025 A 
ATOM     30  C   UNL     1      -0.779   1.815   0.164  0.00  0.00    +0.033 A 
ATOM     31  C   UNL     1      -0.835   2.985   0.911  0.00  0.00    +0.025 A 
ATOM     32  C   UNL     1      -2.041   3.631   1.092  0.00  0.00    +0.025 A 
BRANCH  30  33
ATOM     33  N   UNL     1       0.446   1.163  -0.025  0.00  0.00    -0.286 N 
ATOM     34  C   UNL     1       0.702   0.532  -1.188  0.00  0.00    +0.214 C 
ATOM     35  O   UNL     1      -0.158   0.462  -2.041  0.00  0.00    -0.276 OA
ATOM     36  C   UNL     1       2.055  -0.085  -1.429  0.00  0.00    +0.109 C 
ATOM     37  H   UNL     1       1.109   1.162   0.683  0.00  0.00    +0.155 HD
ENDBRANCH  30  33
ENDBRANCH  25  27
ENDBRANCH  22  23
ENDBRANCH  20  22
ENDBRANCH   1  20
TORSDOF 6
