REMARK  Name = ZINC38966347
REMARK  8 active torsions:
REMARK  status: ('A' for Active; 'I' for Inactive)
REMARK    1  A    between atoms: C_1  and  C_2
REMARK    2  A    between atoms: C_5  and  C_34
REMARK    3  A    between atoms: C_6  and  S_8
REMARK    4  A    between atoms: S_8  and  N_11
REMARK    5  A    between atoms: C_13  and  N_23
REMARK    6  A    between atoms: N_23  and  C_24
REMARK    7  A    between atoms: C_27  and  N_30
REMARK    8  A    between atoms: C_31  and  C_33
REMARK                            x       y       z     vdW  Elec       q    Type
REMARK                         _______ _______ _______ _____ _____    ______ ____
ROOT
ATOM      1  N   UNL     1      -1.470  -3.737   2.713  0.00  0.00    -0.110 NA
ATOM      2  C   UNL     1      -1.638  -4.494   3.756  0.00  0.00    +0.192 C 
ATOM      3  C   UNL     1      -2.887  -5.334   3.902  0.00  0.00    +0.237 C 
ATOM      4  N   UNL     1      -3.017  -6.170   5.106  0.00  0.00    -0.359 N 
ATOM      5  C   UNL     1      -2.055  -6.148   5.985  0.00  0.00    +0.063 A 
ATOM      6  C   UNL     1      -2.136  -6.965   7.205  0.00  0.00    +0.027 A 
ATOM      7  C   UNL     1      -1.119  -6.916   8.093  0.00  0.00    +0.002 A 
ATOM      8  C   UNL     1       0.009  -6.106   7.880  0.00  0.00    +0.002 A 
ATOM      9  C   UNL     1       0.155  -5.329   6.784  0.00  0.00    +0.030 A 
ATOM     10  C   UNL     1      -0.852  -5.303   5.786  0.00  0.00    +0.089 A 
ATOM     11  N   UNL     1      -0.703  -4.547   4.718  0.00  0.00    -0.226 NA
ATOM     12  H   UNL     1      -3.801  -6.724   5.242  0.00  0.00    +0.162 HD
ENDROOT
BRANCH   1  13
ATOM     13  S   UNL     1      -0.094  -2.828   2.563  0.00  0.00    +0.101 S 
ATOM     14  O   UNL     1       0.983  -3.743   2.414  0.00  0.00    -0.146 OA
ATOM     15  O   UNL     1      -0.132  -1.859   3.602  0.00  0.00    -0.146 OA
BRANCH  13  21
ATOM     16  C   UNL     1      -0.490   1.635  -0.129  0.00  0.00    +0.044 C 
ATOM     17  C   UNL     1      -0.399   0.131  -0.139  0.00  0.00    -0.049 A 
ATOM     18  C   UNL     1      -0.411  -0.555  -1.339  0.00  0.00    +0.004 A 
ATOM     19  C   UNL     1      -0.328  -1.935  -1.348  0.00  0.00    +0.005 A 
ATOM     20  C   UNL     1      -0.231  -2.629  -0.156  0.00  0.00    -0.024 A 
ATOM     21  C   UNL     1      -0.217  -1.943   1.044  0.00  0.00    +0.116 A 
ATOM     22  C   UNL     1      -0.296  -0.563   1.052  0.00  0.00    +0.032 A 
ATOM     23  C   UNL     1      -0.140  -4.133  -0.165  0.00  0.00    +0.046 C 
ENDBRANCH  13  21
ENDBRANCH   1  13
BRANCH   3  24
ATOM     24  N   UNL     1      -2.972  -6.215   2.735  0.00  0.00    -0.318 N 
ATOM     25  H   UNL     1      -2.179  -6.672   2.414  0.00  0.00    +0.148 HD
BRANCH  24  26
ATOM     26  C   UNL     1      -4.196  -6.398   2.083  0.00  0.00    +0.029 A 
ATOM     27  C   UNL     1      -4.298  -7.307   1.038  0.00  0.00    +0.025 A 
ATOM     28  C   UNL     1      -5.506  -7.487   0.395  0.00  0.00    +0.025 A 
ATOM     29  C   UNL     1      -6.620  -6.759   0.794  0.00  0.00    +0.033 A 
ATOM     30  C   UNL     1      -6.518  -5.851   1.838  0.00  0.00    +0.025 A 
ATOM     31  C   UNL     1      -5.312  -5.675   2.486  0.00  0.00    +0.025 A 
BRANCH  29  32
ATOM     32  N   UNL     1      -7.847  -6.942   0.141  0.00  0.00    -0.286 N 
ATOM     33  C   UNL     1      -8.196  -8.164  -0.307  0.00  0.00    +0.214 C 
ATOM     34  O   UNL     1      -7.415  -9.088  -0.222  0.00  0.00    -0.276 OA
ATOM     35  C   UNL     1      -9.558  -8.383  -0.914  0.00  0.00    +0.109 C 
ATOM     36  H   UNL     1      -8.444  -6.189   0.011  0.00  0.00    +0.155 HD
ENDBRANCH  29  32
ENDBRANCH  24  26
ENDBRANCH   3  24
TORSDOF 5
