REMARK  Name = ZINC46570056
REMARK  7 active torsions:
REMARK  status: ('A' for Active; 'I' for Inactive)
REMARK    1  A    between atoms: C_3  and  C_31
REMARK    2  A    between atoms: C_5  and  S_7
REMARK    3  A    between atoms: S_7  and  N_10
REMARK    4  A    between atoms: C_13  and  C_16
REMARK    5  A    between atoms: N_18  and  C_19
REMARK    6  A    between atoms: C_23  and  N_25
REMARK    7  A    between atoms: C_26  and  C_28
REMARK                            x       y       z     vdW  Elec       q    Type
REMARK                         _______ _______ _______ _____ _____    ______ ____
ROOT
ATOM      1  N   UNL     1       1.216  -2.937   1.567  0.00  0.00    -0.177 NA
ATOM      2  C   UNL     1       2.497  -3.146   2.255  0.00  0.00    +0.110 C 
ATOM      3  C   UNL     1       2.515  -4.560   2.845  0.00  0.00    +0.030 C 
ATOM      4  C   UNL     1       1.285  -4.752   3.735  0.00  0.00    +0.078 C 
ATOM      5  C   UNL     1       0.016  -4.596   2.895  0.00  0.00    +0.030 C 
ATOM      6  C   UNL     1      -0.030  -3.177   2.307  0.00  0.00    +0.110 C 
ENDROOT
BRANCH   4   7
ATOM      7  C   UNL     1       1.317  -6.130   4.345  0.00  0.00    +0.220 C 
ATOM      8  O   UNL     1       2.233  -6.884   4.092  0.00  0.00    -0.275 OA
ATOM      9  N   UNL     1       0.327  -6.525   5.170  0.00  0.00    -0.285 N 
ATOM     10  H   UNL     1      -0.370  -5.900   5.426  0.00  0.00    +0.155 HD
BRANCH   9  11
ATOM     11  C   UNL     1       0.305  -7.836   5.659  0.00  0.00    +0.035 A 
ATOM     12  C   UNL     1      -0.908  -8.487   5.849  0.00  0.00    +0.023 A 
ATOM     13  C   UNL     1      -0.930  -9.781   6.331  0.00  0.00    +0.004 A 
ATOM     14  C   UNL     1       0.252 -10.432   6.627  0.00  0.00    +0.023 A 
ATOM     15  C   UNL     1       1.468  -9.787   6.440  0.00  0.00    +0.035 A 
ATOM     16  C   UNL     1       1.494  -8.489   5.950  0.00  0.00    +0.046 A 
BRANCH  15  17
ATOM     17  N   UNL     1       2.665 -10.447   6.739  0.00  0.00    -0.285 N 
ATOM     18  C   UNL     1       2.776 -11.772   6.523  0.00  0.00    +0.220 C 
ATOM     19  O   UNL     1       1.813 -12.408   6.147  0.00  0.00    -0.275 OA
ATOM     20  H   UNL     1       3.414  -9.950   7.103  0.00  0.00    +0.155 HD
BRANCH  18  21
ATOM     21  C   UNL     1       4.096 -12.464   6.747  0.00  0.00    +0.075 C 
ATOM     22  C   UNL     1       4.832 -12.996   5.516  0.00  0.00    +0.013 C 
ATOM     23  C   UNL     1       4.157 -13.970   6.483  0.00  0.00    +0.013 C 
ENDBRANCH  18  21
ENDBRANCH  15  17
ENDBRANCH   9  11
ENDBRANCH   4   7
BRANCH   1  24
ATOM     24  S   UNL     1       1.178  -2.434  -0.010  0.00  0.00    +0.061 S 
ATOM     25  O   UNL     1      -0.075  -2.848  -0.538  0.00  0.00    -0.153 OA
ATOM     26  O   UNL     1       2.415  -2.823  -0.591  0.00  0.00    -0.153 OA
BRANCH  24  31
ATOM     27  C   UNL     1      -0.056   1.389   0.045  0.00  0.00    +0.002 A 
ATOM     28  C   UNL     1       1.134   2.092   0.027  0.00  0.00    +0.012 A 
ATOM     29  C   UNL     1       2.337   1.413  -0.003  0.00  0.00    +0.057 A 
ATOM     30  C   UNL     1       2.351   0.030  -0.014  0.00  0.00    +0.041 A 
ATOM     31  C   UNL     1       1.161  -0.672   0.005  0.00  0.00    +0.106 A 
ATOM     32  C   UNL     1      -0.043   0.007   0.034  0.00  0.00    +0.028 A 
BRANCH  29  33
ATOM     33  C   UNL     1       3.635   2.179  -0.024  0.00  0.00    +0.417 C 
ATOM     34  F   UNL     1       3.366   3.552  -0.008  0.00  0.00    -0.166 F 
ATOM     35  F   UNL     1       4.395   1.840   1.100  0.00  0.00    -0.166 F 
ATOM     36  F   UNL     1       4.348   1.857  -1.184  0.00  0.00    -0.166 F 
ENDBRANCH  29  33
ENDBRANCH  24  31
ENDBRANCH   1  24
TORSDOF 7
