REMARK  Name = ZINC20213470
REMARK  6 active torsions:
REMARK  status: ('A' for Active; 'I' for Inactive)
REMARK    1  A    between atoms: C_1  and  C_2
REMARK    2  A    between atoms: C_5  and  N_9
REMARK    3  A    between atoms: N_9  and  C_10
REMARK    4  A    between atoms: C_10  and  N_12
REMARK    5  A    between atoms: C_15  and  C_18
REMARK    6  A    between atoms: C_25  and  C_27
REMARK                            x       y       z     vdW  Elec       q    Type
REMARK                         _______ _______ _______ _____ _____    ______ ____
ROOT
ATOM      1  N   UNL     1      -0.124  -6.184  -1.190  0.00  0.00    -0.312 N 
ATOM      2  C   UNL     1      -0.225  -6.929   0.072  0.00  0.00    +0.107 C 
ATOM      3  C   UNL     1       0.878  -7.991   0.107  0.00  0.00    +0.028 C 
ATOM      4  C   UNL     1       0.780  -8.864  -1.147  0.00  0.00    +0.039 C 
ATOM      5  C   UNL     1       0.985  -7.996  -2.391  0.00  0.00    +0.028 C 
ATOM      6  C   UNL     1      -0.122  -6.933  -2.454  0.00  0.00    +0.107 C 
ENDROOT
BRANCH   4   7
ATOM      7  C   UNL     1       1.843  -9.932  -1.099  0.00  0.00    +0.026 A 
ATOM      8  C   UNL     1       1.490 -11.237  -1.118  0.00  0.00    +0.093 A 
ATOM      9  C   UNL     1       2.486 -12.233  -1.073  0.00  0.00    +0.275 A 
ATOM     10  N   UNL     1       3.786 -11.881  -1.012  0.00  0.00    -0.180 N 
ATOM     11  C   UNL     1       4.135 -10.560  -0.993  0.00  0.00    +0.139 A 
ATOM     12  N   UNL     1       3.158  -9.582  -1.043  0.00  0.00    -0.343 N 
ATOM     13  C   UNL     1       5.492 -10.494  -0.929  0.00  0.00    +0.076 A 
ATOM     14  C   UNL     1       5.986 -11.810  -0.908  0.00  0.00    +0.095 A 
ATOM     15  N   UNL     1       4.963 -12.638  -0.958  0.00  0.00    -0.162 NA
ATOM     16  O   UNL     1       2.173 -13.411  -1.090  0.00  0.00    -0.266 OA
ATOM     17  H   UNL     1       3.410  -8.646  -1.033  0.00  0.00    +0.167 HD
BRANCH  14  18
ATOM     18  C   UNL     1       7.417 -12.200  -0.842  0.00  0.00    +0.002 A 
ATOM     19  C   UNL     1       8.406 -11.220  -0.788  0.00  0.00    +0.011 A 
ATOM     20  C   UNL     1       9.735 -11.588  -0.727  0.00  0.00    +0.020 A 
ATOM     21  C   UNL     1      10.085 -12.927  -0.718  0.00  0.00    +0.041 A 
ATOM     22  C   UNL     1       9.106 -13.904  -0.771  0.00  0.00    +0.020 A 
ATOM     23  C   UNL     1       7.774 -13.546  -0.827  0.00  0.00    +0.011 A 
ATOM     24 CL   UNL     1      11.759 -13.383  -0.642  0.00  0.00    -0.084 Cl
ENDBRANCH  14  18
ENDBRANCH   4   7
BRANCH   1  25
ATOM     25  C   UNL     1      -0.040  -4.839  -1.190  0.00  0.00    +0.137 C 
ATOM     26  S   UNL     1      -0.065  -3.979  -2.669  0.00  0.00    -0.018 S 
BRANCH  25  27
ATOM     27  N   UNL     1       0.062  -4.171  -0.023  0.00  0.00    -0.296 N 
ATOM     28  H   UNL     1       0.145  -4.660   0.810  0.00  0.00    +0.154 HD
BRANCH  27  33
ATOM     29  C   UNL     1       0.008   1.503   0.009  0.00  0.00    +0.044 C 
ATOM     30  C   UNL     1       0.022  -0.004   0.001  0.00  0.00    -0.049 A 
ATOM     31  C   UNL     1       0.821  -0.682  -0.902  0.00  0.00    +0.005 A 
ATOM     32  C   UNL     1       0.837  -2.063  -0.912  0.00  0.00    +0.025 A 
ATOM     33  C   UNL     1       0.049  -2.772  -0.015  0.00  0.00    +0.051 A 
ATOM     34  C   UNL     1      -0.753  -2.088   0.891  0.00  0.00    +0.062 A 
ATOM     35  C   UNL     1      -0.760  -0.706   0.899  0.00  0.00    +0.025 A 
ATOM     36 CL   UNL     1      -1.740  -2.969   2.015  0.00  0.00    -0.082 Cl
ENDBRANCH  27  33
ENDBRANCH  25  27
ENDBRANCH   1  25
TORSDOF 5
