REMARK  Name = ZINC08763398
REMARK  8 active torsions:
REMARK  status: ('A' for Active; 'I' for Inactive)
REMARK    1  A    between atoms: C_1  and  C_2
REMARK    2  A    between atoms: C_3  and  C_30
REMARK    3  A    between atoms: C_5  and  N_22
REMARK    4  A    between atoms: C_6  and  C_7
REMARK    5  A    between atoms: C_7  and  C_9
REMARK    6  A    between atoms: C_7  and  N_16
REMARK    7  A    between atoms: N_16  and  C_17
REMARK    8  A    between atoms: C_23  and  C_25
REMARK                            x       y       z     vdW  Elec       q    Type
REMARK                         _______ _______ _______ _____ _____    ______ ____
ROOT
ATOM      1  C   UNL     1       2.753   4.216  -0.169  0.00  0.00    +0.135 C 
ENDROOT
BRANCH   1   7
ATOM      2  C   UNL     1       4.779   3.079   1.589  0.00  0.00    +0.045 C 
ATOM      3  C   UNL     1       3.744   4.032   2.131  0.00  0.00    -0.033 A 
ATOM      4  C   UNL     1       3.743   4.371   3.442  0.00  0.00    -0.008 A 
ATOM      5  S   UNL     1       2.353   5.487   3.537  0.00  0.00    -0.078 S 
ATOM      6  C   UNL     1       1.867   5.432   1.820  0.00  0.00    +0.078 A 
ATOM      7  C   UNL     1       2.783   4.571   1.296  0.00  0.00    +0.009 A 
ATOM      8  C   UNL     1       4.674   3.922   4.538  0.00  0.00    +0.052 C 
BRANCH   6   9
ATOM      9  N   UNL     1       0.819   6.098   1.180  0.00  0.00    -0.273 N 
ATOM     10  C   UNL     1       0.078   6.997   1.859  0.00  0.00    +0.284 C 
ATOM     11  O   UNL     1       0.322   7.228   3.029  0.00  0.00    -0.266 OA
ATOM     12  H   UNL     1       0.625   5.914   0.248  0.00  0.00    +0.156 HD
BRANCH  10  13
ATOM     13  C   UNL     1      -1.022   7.696   1.187  0.00  0.00    +0.189 A 
ATOM     14  C   UNL     1      -1.847   8.625   1.754  0.00  0.00    +0.054 A 
ATOM     15  C   UNL     1      -2.747   9.028   0.756  0.00  0.00    +0.042 A 
ATOM     16  C   UNL     1      -2.437   8.336  -0.363  0.00  0.00    +0.196 A 
ATOM     17  O   UNL     1      -1.393   7.539  -0.100  0.00  0.00    -0.458 OA
ENDBRANCH  10  13
ENDBRANCH   6   9
ENDBRANCH   1   7
BRANCH   1  18
ATOM     18  C   UNL     1       1.655   3.215  -0.421  0.00  0.00    -0.022 A 
ATOM     19  C   UNL     1       1.915   1.862  -0.308  0.00  0.00    +0.006 A 
ATOM     20  C   UNL     1       0.909   0.943  -0.540  0.00  0.00    +0.001 A 
ATOM     21  C   UNL     1      -0.356   1.376  -0.890  0.00  0.00    +0.015 A 
ATOM     22  C   UNL     1      -0.618   2.730  -0.999  0.00  0.00    +0.018 A 
ATOM     23  C   UNL     1       0.390   3.650  -0.767  0.00  0.00    +0.021 A 
ATOM     24 BR   UNL     1      -2.350   3.324  -1.471  0.00  0.00    -0.050 Br
ENDBRANCH   1  18
BRANCH   1  25
ATOM     25  N   UNL     1       2.502   5.425  -0.959  0.00  0.00    -0.320 N 
ATOM     26  H   UNL     1       2.140   6.217  -0.531  0.00  0.00    +0.148 HD
BRANCH  25  27
ATOM     27  C   UNL     1       2.784   5.436  -2.320  0.00  0.00    +0.097 A 
ATOM     28  C   UNL     1       3.309   4.299  -2.925  0.00  0.00    +0.041 A 
ATOM     29  C   UNL     1       3.579   4.322  -4.281  0.00  0.00    +0.005 A 
ATOM     30  C   UNL     1       3.325   5.491  -4.987  0.00  0.00    +0.018 A 
ATOM     31  C   UNL     1       2.809   6.585  -4.322  0.00  0.00    +0.084 A 
ATOM     32  N   UNL     1       2.526   6.596  -2.991  0.00  0.00    -0.350 N 
ATOM     33  H   UNL     1       2.142   7.424  -2.522  0.00  0.00    +0.166 HD
ENDBRANCH  25  27
ENDBRANCH   1  25
TORSDOF 6
