REMARK  Name = ZINC07254204
REMARK  6 active torsions:
REMARK  status: ('A' for Active; 'I' for Inactive)
REMARK    1  A    between atoms: C_1  and  C_2
REMARK    2  A    between atoms: C_2  and  C_31
REMARK    3  A    between atoms: C_13  and  C_15
REMARK    4  A    between atoms: C_15  and  N_16
REMARK    5  A    between atoms: C_18  and  C_27
REMARK    6  A    between atoms: N_29  and  C_30
REMARK                            x       y       z     vdW  Elec       q    Type
REMARK                         _______ _______ _______ _____ _____    ______ ____
ROOT
ATOM      1  C   UNL     1      -0.213   0.856  -0.021  0.00  0.00    +0.042 C 
ATOM      2  C   UNL     1      -0.733   1.549   1.240  0.00  0.00    +0.113 C 
ATOM      3  C   UNL     1      -0.463   3.029   1.149  0.00  0.00    +0.241 C 
ATOM      4  O   UNL     1      -0.456   3.572   0.065  0.00  0.00    -0.273 OA
ATOM      5  N   UNL     1      -0.231   3.756   2.258  0.00  0.00    -0.282 N 
ATOM      6  C   UNL     1      -0.185   3.147   3.517  0.00  0.00    +0.055 A 
ATOM      7  C   UNL     1      -0.233   3.906   4.675  0.00  0.00    +0.025 A 
ATOM      8  C   UNL     1      -0.176   3.284   5.909  0.00  0.00    +0.002 A 
ATOM      9  C   UNL     1      -0.072   1.908   5.993  0.00  0.00    +0.002 A 
ATOM     10  C   UNL     1      -0.025   1.141   4.843  0.00  0.00    +0.025 A 
ATOM     11  C   UNL     1      -0.084   1.757   3.605  0.00  0.00    +0.059 A 
ATOM     12  N   UNL     1      -0.043   1.007   2.420  0.00  0.00    -0.254 N 
ATOM     13  C   UNL     1       0.608  -0.172   2.364  0.00  0.00    +0.238 C 
ATOM     14  O   UNL     1       0.675  -0.778   1.316  0.00  0.00    -0.273 OA
ATOM     15  C   UNL     1      -2.239   1.309   1.371  0.00  0.00    +0.042 C 
ATOM     16  H   UNL     1      -0.093   4.714   2.184  0.00  0.00    +0.155 HD
ENDROOT
BRANCH  13  17
ATOM     17  C   UNL     1       1.251  -0.736   3.604  0.00  0.00    +0.201 C 
BRANCH  17  18
ATOM     18  N   UNL     1       2.172  -1.817   3.229  0.00  0.00    -0.314 N 
ATOM     19  C   UNL     1       3.351  -1.287   2.535  0.00  0.00    +0.160 C 
ATOM     20  C   UNL     1       4.330  -2.441   2.281  0.00  0.00    +0.276 C 
ATOM     21  O   UNL     1       4.757  -2.942   3.553  0.00  0.00    -0.476 OA
ATOM     22  C   UNL     1       3.788  -3.138   4.489  0.00  0.00    +0.143 A 
ATOM     23  C   UNL     1       2.519  -2.589   4.343  0.00  0.00    +0.073 A 
ATOM     24  C   UNL     1       1.560  -2.808   5.326  0.00  0.00    +0.027 A 
ATOM     25  C   UNL     1       1.865  -3.568   6.438  0.00  0.00    +0.002 A 
ATOM     26  C   UNL     1       3.126  -4.116   6.580  0.00  0.00    +0.004 A 
ATOM     27  C   UNL     1       4.086  -3.902   5.608  0.00  0.00    +0.047 A 
BRANCH  20  28
ATOM     28  C   UNL     1       5.520  -1.939   1.506  0.00  0.00    +0.255 C 
ATOM     29  O   UNL     1       6.622  -1.944   2.014  0.00  0.00    -0.272 OA
ATOM     30  N   UNL     1       5.361  -1.484   0.247  0.00  0.00    -0.315 N 
ATOM     31  C   UNL     1       6.518  -0.996  -0.507  0.00  0.00    +0.128 C 
ATOM     32  H   UNL     1       4.480  -1.480  -0.160  0.00  0.00    +0.148 HD
ENDBRANCH  20  28
ENDBRANCH  17  18
ENDBRANCH  13  17
TORSDOF 3
