REMARK  Name = ZINC32189088
REMARK  6 active torsions:
REMARK  status: ('A' for Active; 'I' for Inactive)
REMARK    1  A    between atoms: C_1  and  C_2
REMARK    2  A    between atoms: C_4  and  C_26
REMARK    3  A    between atoms: C_5  and  C_25
REMARK    4  A    between atoms: N_6  and  C_7
REMARK    5  A    between atoms: C_8  and  C_16
REMARK    6  A    between atoms: N_18  and  C_19
REMARK                            x       y       z     vdW  Elec       q    Type
REMARK                         _______ _______ _______ _____ _____    ______ ____
ROOT
ATOM      1  C   UNL     1      -1.021  -3.446  -1.180  0.00  0.00    +0.097 A 
ATOM      2  C   UNL     1      -0.069  -3.121  -0.225  0.00  0.00    +0.072 A 
ATOM      3  C   UNL     1      -0.199  -3.728   1.087  0.00  0.00    -0.023 A 
ATOM      4  C   UNL     1      -1.260  -4.552   1.238  0.00  0.00    -0.004 A 
ATOM      5  S   UNL     1      -2.070  -4.536  -0.336  0.00  0.00    -0.075 S 
ATOM      6  C   UNL     1      -1.647  -5.310   2.470  0.00  0.00    +0.043 C 
ATOM      7  C   UNL     1      -0.454  -5.303   3.437  0.00  0.00    +0.005 C 
ATOM      8  C   UNL     1       0.080  -3.872   3.551  0.00  0.00    +0.005 C 
ATOM      9  C   UNL     1       0.760  -3.465   2.242  0.00  0.00    +0.037 C 
ENDROOT
BRANCH   1  15
ATOM     10  C   UNL     1       0.094  -5.004  -3.539  0.00  0.00    +0.064 C 
ATOM     11  C   UNL     1      -0.621  -3.678  -3.582  0.00  0.00    +0.022 A 
ATOM     12  C   UNL     1      -0.883  -2.971  -4.694  0.00  0.00    +0.031 A 
ATOM     13  C   UNL     1      -1.585  -1.755  -4.262  0.00  0.00    -0.002 A 
ATOM     14  C   UNL     1      -1.691  -1.843  -2.888  0.00  0.00    +0.029 A 
ATOM     15  N   UNL     1      -1.110  -3.006  -2.496  0.00  0.00    -0.311 N 
ATOM     16  C   UNL     1      -2.338  -0.826  -1.984  0.00  0.00    +0.064 C 
BRANCH  13  17
ATOM     17  C   UNL     1      -2.073  -0.668  -5.117  0.00  0.00    +0.040 C 
ATOM     18  C   UNL     1      -1.330  -0.249  -6.175  0.00  0.00    +0.104 C 
ATOM     19  C   UNL     1       0.038  -0.654  -6.519  0.00  0.00    +0.266 C 
ATOM     20  O   UNL     1       0.742  -1.440  -5.911  0.00  0.00    -0.268 OA
ATOM     21  N   UNL     1       0.358   0.015  -7.645  0.00  0.00    -0.261 N 
ATOM     22  C   UNL     1      -0.669   0.794  -8.019  0.00  0.00    +0.150 C 
ATOM     23  S   UNL     1      -0.663   1.812  -9.396  0.00  0.00    -0.016 SA
ATOM     24  N   UNL     1      -1.703   0.669  -7.168  0.00  0.00    -0.333 N 
ATOM     25  H   UNL     1       1.345  -0.129  -8.109  0.00  0.00    +0.157 HD
ATOM     26  H   UNL     1      -2.626   1.244  -7.335  0.00  0.00    +0.168 HD
ENDBRANCH  13  17
ENDBRANCH   1  15
BRANCH   2  27
ATOM     27  C   UNL     1       1.032  -2.201  -0.532  0.00  0.00    +0.251 C 
ATOM     28  O   UNL     1       1.048  -1.086  -0.045  0.00  0.00    -0.270 OA
ATOM     29  N   UNL     1       2.027  -2.591  -1.354  0.00  0.00    -0.281 N 
ATOM     30  H   UNL     1       1.974  -3.568  -1.857  0.00  0.00    +0.155 HD
BRANCH  29  31
ATOM     31  C   UNL     1       3.127  -1.754  -1.567  0.00  0.00    +0.034 A 
ATOM     32  C   UNL     1       2.951  -0.378  -1.639  0.00  0.00    +0.023 A 
ATOM     33  C   UNL     1       4.040   0.446  -1.843  0.00  0.00    +0.002 A 
ATOM     34  C   UNL     1       5.303  -0.098  -1.989  0.00  0.00    +0.000 A 
ATOM     35  C   UNL     1       5.481  -1.467  -1.924  0.00  0.00    +0.002 A 
ATOM     36  C   UNL     1       4.397  -2.297  -1.714  0.00  0.00    +0.023 A 
ENDBRANCH  29  31
ENDBRANCH   2  27
TORSDOF 4
