REMARK  Name = ZINC13640951
REMARK  12 active torsions:
REMARK  status: ('A' for Active; 'I' for Inactive)
REMARK    1  A    between atoms: C_1  and  C_2
REMARK    2  A    between atoms: C_5  and  N_9
REMARK    3  A    between atoms: C_6  and  C_8
REMARK    4  A    between atoms: N_9  and  S_10
REMARK    5  A    between atoms: S_10  and  C_13
REMARK    6  A    between atoms: C_26  and  C_29
REMARK    7  A    between atoms: C_31  and  O_39
REMARK    8  A    between atoms: C_32  and  O_37
REMARK    9  A    between atoms: C_33  and  O_35
REMARK   10  A    between atoms: O_35  and  C_36
REMARK   11  A    between atoms: O_37  and  C_38
REMARK   12  A    between atoms: O_39  and  C_40
REMARK                            x       y       z     vdW  Elec       q    Type
REMARK                         _______ _______ _______ _____ _____    ______ ____
ROOT
ATOM      1  C   UNL     1      -2.881  -2.064   1.282  0.00  0.00    +0.109 A 
ATOM      2  C   UNL     1      -3.881  -1.252   0.779  0.00  0.00    +0.030 A 
ATOM      3  C   UNL     1      -3.560  -0.068   0.148  0.00  0.00    +0.025 A 
ATOM      4  C   UNL     1      -2.232   0.319   0.014  0.00  0.00    +0.031 A 
ATOM      5  C   UNL     1      -1.225  -0.514   0.516  0.00  0.00    -0.018 A 
ATOM      6  C   UNL     1      -1.557  -1.692   1.149  0.00  0.00    +0.034 A 
ATOM      7  C   UNL     1       0.176  -0.076   0.336  0.00  0.00    +0.049 C 
ATOM      8  C   UNL     1       1.257  -0.503   1.260  0.00  0.00    -0.023 C 
ATOM      9  C   UNL     1       2.166   0.462   1.325  0.00  0.00    -0.030 C 
ATOM     10  C   UNL     1       1.734   1.646   0.458  0.00  0.00    +0.033 C 
ATOM     11  C   UNL     1       0.209   1.478   0.444  0.00  0.00    +0.029 C 
ATOM     12  C   UNL     1      -0.533   1.984  -0.780  0.00  0.00    +0.105 C 
ATOM     13  N   UNL     1      -1.932   1.535  -0.612  0.00  0.00    -0.336 N 
ATOM     14  H   UNL     1      -2.655   2.092  -0.941  0.00  0.00    +0.147 HD
ENDROOT
BRANCH  12  15
ATOM     15  C   UNL     1      -0.473   3.489  -0.840  0.00  0.00    -0.020 A 
ATOM     16  C   UNL     1      -1.334   4.244  -0.066  0.00  0.00    +0.055 A 
ATOM     17  C   UNL     1      -1.279   5.629  -0.114  0.00  0.00    +0.165 A 
ATOM     18  C   UNL     1      -0.364   6.257  -0.951  0.00  0.00    +0.204 A 
ATOM     19  C   UNL     1       0.496   5.494  -1.732  0.00  0.00    +0.165 A 
ATOM     20  C   UNL     1       0.438   4.110  -1.674  0.00  0.00    +0.055 A 
BRANCH  19  21
ATOM     21  O   UNL     1       1.392   6.104  -2.553  0.00  0.00    -0.491 OA
ATOM     22  C   UNL     1       2.244   5.257  -3.327  0.00  0.00    +0.277 C 
ENDBRANCH  19  21
BRANCH  18  23
ATOM     23  O   UNL     1      -0.311   7.616  -1.006  0.00  0.00    -0.488 OA
ATOM     24  C   UNL     1      -1.143   8.260  -1.973  0.00  0.00    +0.277 C 
ENDBRANCH  18  23
BRANCH  17  25
ATOM     25  O   UNL     1      -2.122   6.371   0.652  0.00  0.00    -0.491 OA
ATOM     26  C   UNL     1      -3.035   5.659   1.488  0.00  0.00    +0.277 C 
ENDBRANCH  17  25
ENDBRANCH  12  15
BRANCH   1  27
ATOM     27  S   UNL     1      -3.296  -3.572   2.095  0.00  0.00    +0.072 S 
ATOM     28  O   UNL     1      -2.209  -3.882   2.955  0.00  0.00    -0.150 OA
ATOM     29  O   UNL     1      -4.627  -3.424   2.571  0.00  0.00    -0.150 OA
BRANCH  27  30
ATOM     30  N   UNL     1      -3.336  -4.756   0.938  0.00  0.00    -0.216 N 
ATOM     31  H   UNL     1      -4.157  -5.248   0.775  0.00  0.00    +0.174 HD
BRANCH  30  36
ATOM     32  C   UNL     1       1.321  -5.942  -2.072  0.00  0.00    +0.044 C 
ATOM     33  C   UNL     1       0.083  -5.626  -1.272  0.00  0.00    -0.050 A 
ATOM     34  C   UNL     1       0.195  -5.266   0.058  0.00  0.00    +0.005 A 
ATOM     35  C   UNL     1      -0.937  -4.976   0.794  0.00  0.00    +0.025 A 
ATOM     36  C   UNL     1      -2.189  -5.047   0.196  0.00  0.00    +0.051 A 
ATOM     37  C   UNL     1      -2.298  -5.414  -1.139  0.00  0.00    -0.028 A 
ATOM     38  C   UNL     1      -1.161  -5.697  -1.870  0.00  0.00    +0.008 A 
ATOM     39  C   UNL     1      -3.655  -5.499  -1.790  0.00  0.00    +0.046 C 
ENDBRANCH  30  36
ENDBRANCH  27  30
ENDBRANCH   1  27
TORSDOF 7
