REMARK  Name = ZINC39677318
REMARK  6 active torsions:
REMARK  status: ('A' for Active; 'I' for Inactive)
REMARK    1  A    between atoms: C_1  and  C_2
REMARK    2  A    between atoms: C_6  and  C_7
REMARK    3  A    between atoms: C_7  and  N_8
REMARK    4  A    between atoms: C_9  and  C_11
REMARK    5  A    between atoms: C_22  and  C_24
REMARK    6  A    between atoms: C_27  and  C_29
REMARK                            x       y       z     vdW  Elec       q    Type
REMARK                         _______ _______ _______ _____ _____    ______ ____
ROOT
ATOM      1  C   UNL     1      -3.007   0.580   4.784  0.00  0.00    +0.100 C 
ATOM      2  C   UNL     1      -3.718   1.716   4.016  0.00  0.00    +0.121 C 
ATOM      3  N   UNL     1      -4.572   2.377   5.030  0.00  0.00    -0.294 N 
ATOM      4  C   UNL     1      -3.741   2.392   6.258  0.00  0.00    +0.115 C 
ATOM      5  C   UNL     1      -3.024   1.028   6.256  0.00  0.00    -0.004 C 
ATOM      6  C   UNL     1      -1.599   1.181   6.778  0.00  0.00    -0.010 C 
ATOM      7  C   UNL     1      -1.641   1.569   8.258  0.00  0.00    -0.082 C 
ATOM      8  N   UNL     1      -2.353   0.534   9.018  0.00  0.00    +0.379 N 
ATOM      9  C   UNL     1      -3.749   0.459   8.572  0.00  0.00    -0.082 C 
ATOM     10  C   UNL     1      -3.796   0.023   7.105  0.00  0.00    -0.010 C 
ATOM     11  C   UNL     1      -5.822   2.857   4.873  0.00  0.00    +0.282 C 
ATOM     12  O   UNL     1      -6.397   3.378   5.811  0.00  0.00    -0.267 OA
ATOM     13  H   UNL     1      -1.905  -0.357   8.870  0.00  0.00    -0.086 HD
ATOM     14  H   UNL     1      -2.326   0.762  10.000  0.00  0.00    -0.086 HD
ENDROOT
BRANCH  11  15
ATOM     15  C   UNL     1      -6.489   2.751   3.572  0.00  0.00    +0.190 A 
ATOM     16  C   UNL     1      -7.756   3.201   3.274  0.00  0.00    +0.055 A 
ATOM     17  C   UNL     1      -7.986   2.896   1.929  0.00  0.00    +0.050 A 
ATOM     18  C   UNL     1      -6.864   2.276   1.460  0.00  0.00    +0.136 A 
ATOM     19  O   UNL     1      -5.966   2.199   2.457  0.00  0.00    -0.450 OA
BRANCH  18  20
ATOM     20  C   UNL     1      -6.667   1.777   0.084  0.00  0.00    +0.017 A 
ATOM     21  C   UNL     1      -7.677   1.928  -0.869  0.00  0.00    +0.011 A 
ATOM     22  C   UNL     1      -7.486   1.461  -2.152  0.00  0.00    +0.001 A 
ATOM     23  C   UNL     1      -6.296   0.844  -2.497  0.00  0.00    +0.000 A 
ATOM     24  C   UNL     1      -5.291   0.691  -1.559  0.00  0.00    +0.001 A 
ATOM     25  C   UNL     1      -5.467   1.158  -0.273  0.00  0.00    +0.011 A 
ENDBRANCH  18  20
ENDBRANCH  11  15
BRANCH   1  27
ATOM     26  N   UNL     1      -0.981  -0.776   4.365  0.00  0.00    -0.310 N 
ATOM     27  C   UNL     1      -1.589   0.425   4.299  0.00  0.00    +0.218 C 
ATOM     28  O   UNL     1      -0.995   1.381   3.848  0.00  0.00    -0.275 OA
ATOM     29  H   UNL     1      -1.457  -1.541   4.726  0.00  0.00    +0.149 HD
BRANCH  26  30
ATOM     30  C   UNL     1       0.398  -0.926   3.894  0.00  0.00    +0.147 C 
BRANCH  30  36
ATOM     31  C   UNL     1       0.102  -3.211   1.862  0.00  0.00    +0.044 C 
ATOM     32  C   UNL     1       0.733  -3.398   3.217  0.00  0.00    -0.039 A 
ATOM     33  C   UNL     1       1.218  -4.635   3.601  0.00  0.00    +0.011 A 
ATOM     34  C   UNL     1       1.780  -4.769   4.827  0.00  0.00    +0.046 A 
ATOM     35  S   UNL     1       1.633  -3.115   5.484  0.00  0.00    -0.100 S 
ATOM     36  C   UNL     1       0.838  -2.356   4.077  0.00  0.00    +0.010 A 
ENDBRANCH  30  36
ENDBRANCH  26  30
ENDBRANCH   1  27
TORSDOF 5
