REMARK  Name = ZINC20905309
REMARK  7 active torsions:
REMARK  status: ('A' for Active; 'I' for Inactive)
REMARK    1  A    between atoms: C_10  and  C_11
REMARK    2  A    between atoms: N_12  and  N_13
REMARK    3  A    between atoms: C_16  and  S_19
REMARK    4  A    between atoms: S_19  and  C_20
REMARK    5  A    between atoms: C_20  and  C_21
REMARK    6  A    between atoms: N_23  and  C_24
REMARK    7  A    between atoms: C_27  and  C_30
REMARK                            x       y       z     vdW  Elec       q    Type
REMARK                         _______ _______ _______ _____ _____    ______ ____
ROOT
ATOM      1  N   UNL     1      -1.858  -1.076   0.037  0.00  0.00    -0.205 N 
ATOM      2  C   UNL     1      -0.604  -0.484  -0.010  0.00  0.00    +0.232 A 
ATOM      3  N   UNL     1      -0.350   0.860  -0.024  0.00  0.00    -0.186 NA
ATOM      4  C   UNL     1       1.003   1.033  -0.072  0.00  0.00    +0.211 A 
ATOM      5  N   UNL     1       1.564  -0.153  -0.086  0.00  0.00    -0.144 NA
ATOM      6  N   UNL     1       0.545  -1.114  -0.047  0.00  0.00    -0.245 N 
ATOM      7  H   UNL     1      -2.761  -0.450   0.067  0.00  0.00    +0.177 HD
ATOM      8  H   UNL     1       0.570  -2.213  -0.043  0.00  0.00    +0.192 HD
ENDROOT
BRANCH   1  10
ATOM      9  C   UNL     1      -3.147  -3.028   0.091  0.00  0.00    +0.139 C 
ATOM     10  N   UNL     1      -1.972  -2.473   0.048  0.00  0.00    -0.188 NA
BRANCH   9  20
ATOM     11  C   UNL     1       0.133  -7.000   0.349  0.00  0.00    +0.001 A 
ATOM     12  C   UNL     1       0.288  -5.615   0.341  0.00  0.00    +0.001 A 
ATOM     13  C   UNL     1      -0.794  -4.790   0.262  0.00  0.00    +0.009 A 
ATOM     14  C   UNL     1      -2.079  -5.340   0.188  0.00  0.00    -0.009 A 
ATOM     15  C   UNL     1      -2.240  -6.747   0.195  0.00  0.00    -0.017 A 
ATOM     16  C   UNL     1      -1.102  -7.567   0.278  0.00  0.00    +0.008 A 
ATOM     17  C   UNL     1      -3.532  -7.294   0.120  0.00  0.00    +0.008 A 
ATOM     18  C   UNL     1      -4.625  -6.487   0.040  0.00  0.00    +0.001 A 
ATOM     19  C   UNL     1      -4.515  -5.104   0.037  0.00  0.00    +0.010 A 
ATOM     20  C   UNL     1      -3.268  -4.493   0.102  0.00  0.00    +0.002 A 
ENDBRANCH   9  20
ENDBRANCH   1  10
BRANCH   4  21
ATOM     21  S   UNL     1       1.849   2.579  -0.109  0.00  0.00    -0.075 S 
BRANCH  21  22
ATOM     22  C   UNL     1       3.562   1.998  -0.166  0.00  0.00    +0.173 C 
BRANCH  22  23
ATOM     23  C   UNL     1       4.493   3.183  -0.204  0.00  0.00    +0.227 C 
ATOM     24  O   UNL     1       4.042   4.309  -0.194  0.00  0.00    -0.275 OA
ATOM     25  N   UNL     1       5.826   2.991  -0.249  0.00  0.00    -0.285 N 
ATOM     26  H   UNL     1       6.238   1.974  -0.182  0.00  0.00    +0.155 HD
BRANCH  25  27
ATOM     27  C   UNL     1       6.686   4.087  -0.382  0.00  0.00    +0.033 A 
ATOM     28  C   UNL     1       7.860   3.966  -1.115  0.00  0.00    +0.024 A 
ATOM     29  C   UNL     1       8.704   5.051  -1.248  0.00  0.00    +0.014 A 
ATOM     30  C   UNL     1       8.388   6.253  -0.643  0.00  0.00    +0.055 A 
ATOM     31  C   UNL     1       7.223   6.376   0.092  0.00  0.00    +0.014 A 
ATOM     32  C   UNL     1       6.372   5.296   0.225  0.00  0.00    +0.024 A 
BRANCH  30  33
ATOM     33  C   UNL     1       9.314   7.433  -0.786  0.00  0.00    +0.417 C 
ATOM     34  F   UNL     1      10.247   7.422   0.257  0.00  0.00    -0.166 F 
ATOM     35  F   UNL     1       9.984   7.355  -2.012  0.00  0.00    -0.166 F 
ATOM     36  F   UNL     1       8.572   8.618  -0.735  0.00  0.00    -0.166 F 
ENDBRANCH  30  33
ENDBRANCH  25  27
ENDBRANCH  22  23
ENDBRANCH  21  22
ENDBRANCH   4  21
TORSDOF 7
