REMARK  Name = ZINC43424145
REMARK  4 active torsions:
REMARK  status: ('A' for Active; 'I' for Inactive)
REMARK    1  A    between atoms: C_3  and  O_22
REMARK    2  A    between atoms: C_4  and  N_21
REMARK    3  A    between atoms: C_6  and  S_7
REMARK    4  A    between atoms: S_7  and  N_10
REMARK                            x       y       z     vdW  Elec       q    Type
REMARK                         _______ _______ _______ _____ _____    ______ ____
ROOT
ATOM      1  S   UNL     1      -1.513  -0.904   0.012  0.00  0.00    +0.061 S 
ATOM      2  O   UNL     1      -1.704   0.479   0.280  0.00  0.00    -0.153 OA
ATOM      3  O   UNL     1      -0.259  -1.548   0.190  0.00  0.00    -0.153 OA
ENDROOT
BRANCH   1   4
ATOM      4  N   UNL     1      -1.950  -1.145  -1.567  0.00  0.00    -0.169 NA
ATOM      5  C   UNL     1      -2.879  -0.243  -2.286  0.00  0.00    +0.138 C 
ATOM      6  C   UNL     1      -3.960  -1.045  -3.008  0.00  0.00    +0.177 C 
ATOM      7  O   UNL     1      -3.411  -2.174  -3.712  0.00  0.00    -0.374 OA
ATOM      8  C   UNL     1      -2.715  -3.032  -2.835  0.00  0.00    +0.137 C 
ATOM      9  C   UNL     1      -1.446  -2.258  -2.360  0.00  0.00    +0.109 C 
ATOM     10  C   UNL     1      -0.638  -3.330  -1.641  0.00  0.00    +0.023 C 
ATOM     11  C   UNL     1      -0.994  -4.658  -2.357  0.00  0.00    +0.004 C 
ATOM     12  C   UNL     1      -2.101  -4.310  -3.403  0.00  0.00    +0.033 C 
ENDBRANCH   1   4
BRANCH   1  18
ATOM     13  C   UNL     1      -2.432  -3.090   1.361  0.00  0.00    +0.032 A 
ATOM     14  C   UNL     1      -3.339  -3.779   2.147  0.00  0.00    +0.049 A 
ATOM     15  C   UNL     1      -4.492  -3.151   2.586  0.00  0.00    +0.137 A 
ATOM     16  C   UNL     1      -4.736  -1.824   2.235  0.00  0.00    +0.068 A 
ATOM     17  C   UNL     1      -3.822  -1.140   1.448  0.00  0.00    +0.055 A 
ATOM     18  C   UNL     1      -2.673  -1.774   1.013  0.00  0.00    +0.107 A 
BRANCH  16  19
ATOM     19  N   UNL     1      -5.900  -1.185   2.676  0.00  0.00    -0.355 N 
ATOM     20  H   UNL     1      -6.538  -1.665   3.226  0.00  0.00    +0.142 HD
ATOM     21  H   UNL     1      -6.068  -0.261   2.431  0.00  0.00    +0.142 HD
ENDBRANCH  16  19
BRANCH  15  22
ATOM     22  O   UNL     1      -5.385  -3.827   3.357  0.00  0.00    -0.505 OA
ATOM     23  H   UNL     1      -5.219  -3.753   4.307  0.00  0.00    +0.292 HD
ENDBRANCH  15  22
ENDBRANCH   1  18
TORSDOF 4
