REMARK  Name = ZINC25611773
REMARK  5 active torsions:
REMARK  status: ('A' for Active; 'I' for Inactive)
REMARK    1  A    between atoms: C_6  and  C_7
REMARK    2  A    between atoms: C_9  and  C_12
REMARK    3  A    between atoms: N_14  and  C_15
REMARK    4  A    between atoms: C_17  and  C_27
REMARK    5  A    between atoms: C_20  and  N_21
REMARK                            x       y       z     vdW  Elec       q    Type
REMARK                         _______ _______ _______ _____ _____    ______ ____
ROOT
ATOM      1  C   UNL     1      -3.647   2.104   0.124  0.00  0.00    +0.056 A 
ATOM      2  C   UNL     1      -3.608   3.485   0.123  0.00  0.00    +0.038 A 
ATOM      3  C   UNL     1      -4.796   4.215   0.226  0.00  0.00    +0.038 A 
ATOM      4  C   UNL     1      -6.019   3.545   0.328  0.00  0.00    +0.015 A 
ATOM      5  C   UNL     1      -6.053   2.168   0.329  0.00  0.00    +0.026 A 
ATOM      6  C   UNL     1      -4.874   1.440   0.222  0.00  0.00    +0.051 A 
ENDROOT
BRANCH   6   7
ATOM      7  N   UNL     1      -4.914   0.048   0.217  0.00  0.00    -0.328 N 
ATOM      8  C   UNL     1      -5.625  -0.454  -0.966  0.00  0.00    +0.105 C 
ATOM      9  C   UNL     1      -5.523  -1.980  -1.014  0.00  0.00    +0.019 C 
ATOM     10  C   UNL     1      -6.136  -2.567   0.260  0.00  0.00    +0.003 C 
ATOM     11  C   UNL     1      -5.410  -1.992   1.479  0.00  0.00    +0.019 C 
ATOM     12  C   UNL     1      -5.514  -0.465   1.454  0.00  0.00    +0.105 C 
ENDBRANCH   6   7
BRANCH   3  13
ATOM     13  C   UNL     1      -4.760   5.689   0.226  0.00  0.00    +0.242 C 
ATOM     14  O   UNL     1      -3.695   6.271   0.136  0.00  0.00    -0.270 OA
ATOM     15  N   UNL     1      -5.905   6.392   0.324  0.00  0.00    -0.325 N 
ATOM     16  H   UNL     1      -5.878   7.492   0.324  0.00  0.00    +0.145 HD
ATOM     17  H   UNL     1      -6.868   5.866   0.405  0.00  0.00    +0.145 HD
ENDBRANCH   3  13
BRANCH   1  20
ATOM     18  C   UNL     1      -1.375   1.918  -0.562  0.00  0.00    +0.267 C 
ATOM     19  O   UNL     1      -1.456   3.011  -1.088  0.00  0.00    -0.268 OA
ATOM     20  N   UNL     1      -2.459   1.369   0.022  0.00  0.00    -0.279 N 
ATOM     21  H   UNL     1      -2.410   0.343   0.417  0.00  0.00    +0.155 HD
BRANCH  18  24
ATOM     22  C   UNL     1       1.159  -0.640  -0.001  0.00  0.00    +0.109 A 
ATOM     23  N   UNL     1       0.006   0.002   0.009  0.00  0.00    -0.234 NA
ATOM     24  C   UNL     1      -0.092   1.194  -0.561  0.00  0.00    +0.133 A 
ATOM     25  C   UNL     1       1.016   1.742  -1.157  0.00  0.00    +0.080 A 
ATOM     26  S   UNL     1       2.206   0.508  -0.881  0.00  0.00    -0.075 S 
BRANCH  22  32
ATOM     27  C   UNL     1       0.521  -2.709   1.230  0.00  0.00    +0.013 A 
ATOM     28  C   UNL     1       0.839  -3.945   1.754  0.00  0.00    +0.039 A 
ATOM     29  C   UNL     1       2.127  -4.442   1.631  0.00  0.00    +0.123 A 
ATOM     30  C   UNL     1       3.100  -3.703   0.978  0.00  0.00    +0.039 A 
ATOM     31  C   UNL     1       2.791  -2.468   0.446  0.00  0.00    +0.013 A 
ATOM     32  C   UNL     1       1.496  -1.964   0.567  0.00  0.00    +0.007 A 
ATOM     33  F   UNL     1       2.434  -5.651   2.150  0.00  0.00    -0.205 F 
ENDBRANCH  22  32
ENDBRANCH  18  24
ENDBRANCH   1  20
TORSDOF 5
