REMARK  Name = ZINC38663959
REMARK  7 active torsions:
REMARK  status: ('A' for Active; 'I' for Inactive)
REMARK    1  A    between atoms: C_1  and  C_2
REMARK    2  A    between atoms: C_2  and  O_3
REMARK    3  A    between atoms: O_3  and  C_4
REMARK    4  A    between atoms: C_4  and  C_6
REMARK    5  A    between atoms: C_9  and  N_13
REMARK    6  A    between atoms: C_14  and  C_16
REMARK    7  A    between atoms: C_28  and  C_31
REMARK                            x       y       z     vdW  Elec       q    Type
REMARK                         _______ _______ _______ _____ _____    ______ ____
ROOT
ATOM      1  N   UNL     1      -2.001  -6.128   1.760  0.00  0.00    -0.284 N 
ATOM      2  C   UNL     1      -1.890  -7.360   2.295  0.00  0.00    +0.246 C 
ATOM      3  O   UNL     1      -1.916  -8.340   1.576  0.00  0.00    -0.270 OA
ATOM      4  H   UNL     1      -1.980  -5.346   2.334  0.00  0.00    +0.152 HD
ENDROOT
BRANCH   2   5
ATOM      5  C   UNL     1      -1.736  -7.520   3.755  0.00  0.00    +0.037 A 
ATOM      6  C   UNL     1      -1.712  -6.390   4.584  0.00  0.00    +0.015 A 
ATOM      7  C   UNL     1      -1.571  -6.521   5.934  0.00  0.00    +0.027 A 
ATOM      8  C   UNL     1      -1.448  -7.785   6.508  0.00  0.00    +0.047 A 
ATOM      9  C   UNL     1      -1.471  -8.930   5.685  0.00  0.00    +0.004 A 
ATOM     10  C   UNL     1      -1.621  -8.792   4.307  0.00  0.00    +0.023 A 
ATOM     11  C   UNL     1      -1.322 -10.070   6.584  0.00  0.00    -0.019 A 
ATOM     12  C   UNL     1      -1.222  -9.583   7.835  0.00  0.00    +0.020 A 
ATOM     13  N   UNL     1      -1.296  -8.219   7.804  0.00  0.00    -0.358 N 
ATOM     14  H   UNL     1      -1.248  -7.641   8.581  0.00  0.00    +0.166 HD
ATOM     15  C   UNL     1      -1.055 -10.452   9.061  0.00  0.00    +0.054 C 
ATOM     16  C   UNL     1      -1.442 -11.889   8.696  0.00  0.00    +0.009 C 
ATOM     17  C   UNL     1      -0.707 -12.308   7.420  0.00  0.00    -0.009 C 
ATOM     18  C   UNL     1      -1.280 -11.534   6.227  0.00  0.00    +0.040 C 
ATOM     19  C   UNL     1      -0.894 -13.810   7.192  0.00  0.00    +0.008 C 
ENDBRANCH   2   5
BRANCH   1  23
ATOM     20  C   UNL     1      -2.794  -2.396   0.016  0.00  0.00    +0.110 C 
ATOM     21  C   UNL     1      -2.956  -3.733  -0.092  0.00  0.00    +0.023 C 
ATOM     22  N   UNL     1      -1.901  -4.572  -0.104  0.00  0.00    -0.320 N 
ATOM     23  C   UNL     1      -2.153  -5.970   0.312  0.00  0.00    +0.219 C 
ATOM     24  S   UNL     1      -3.916  -6.156  -0.200  0.00  0.00    -0.114 S 
ATOM     25  C   UNL     1      -4.336  -4.361  -0.198  0.00  0.00    +0.123 C 
ATOM     26  H   UNL     1      -1.018  -4.274  -0.373  0.00  0.00    +0.148 HD
BRANCH  20  27
ATOM     27  C   UNL     1      -1.512  -1.857   0.257  0.00  0.00    +0.333 C 
ATOM     28  O   UNL     1      -0.572  -2.599   0.475  0.00  0.00    -0.246 OA
BRANCH  27  29
ATOM     29  O   UNL     1      -1.329  -0.520   0.247  0.00  0.00    -0.462 OA
BRANCH  29  31
ATOM     30  C   UNL     1       0.006   1.484   0.447  0.00  0.00    +0.048 C 
ATOM     31  C   UNL     1      -0.005  -0.045   0.499  0.00  0.00    +0.229 C 
ENDBRANCH  29  31
ENDBRANCH  27  29
ENDBRANCH  20  27
ENDBRANCH   1  23
TORSDOF 5
