REMARK  Name = ZINC49122199
REMARK  6 active torsions:
REMARK  status: ('A' for Active; 'I' for Inactive)
REMARK    1  A    between atoms: C_1  and  C_2
REMARK    2  A    between atoms: C_2  and  C_3
REMARK    3  A    between atoms: C_9  and  N_11
REMARK    4  A    between atoms: C_12  and  C_16
REMARK    5  A    between atoms: C_18  and  N_23
REMARK    6  A    between atoms: C_20  and  N_22
REMARK                            x       y       z     vdW  Elec       q    Type
REMARK                         _______ _______ _______ _____ _____    ______ ____
ROOT
ATOM      1  N   UNL     1       1.474  -2.118  -0.310  0.00  0.00    -0.222 N 
ATOM      2  C   UNL     1       1.232  -3.249  -1.018  0.00  0.00    +0.182 A 
ATOM      3  N   UNL     1       2.353  -3.569  -1.629  0.00  0.00    -0.108 NA
ATOM      4  N   UNL     1       3.275  -2.719  -1.351  0.00  0.00    -0.023 NA
ATOM      5  N   UNL     1       2.821  -1.805  -0.563  0.00  0.00    -0.043 NA
ENDROOT
BRANCH   1  11
ATOM      6  C   UNL     1       0.512   0.092   0.107  0.00  0.00    +0.013 C 
ATOM      7  C   UNL     1      -0.472   0.865   0.987  0.00  0.00    +0.005 C 
ATOM      8  C   UNL     1      -0.035   0.764   2.450  0.00  0.00    +0.000 C 
ATOM      9  C   UNL     1      -0.016  -0.706   2.876  0.00  0.00    +0.002 C 
ATOM     10  C   UNL     1       0.968  -1.479   1.996  0.00  0.00    +0.027 C 
ATOM     11  C   UNL     1       0.531  -1.378   0.533  0.00  0.00    +0.114 C 
BRANCH   6  13
ATOM     12  C   UNL     1       0.176   1.648  -1.819  0.00  0.00    +0.004 C 
ATOM     13  C   UNL     1       0.076   0.193  -1.356  0.00  0.00    +0.002 C 
ENDBRANCH   6  13
ENDBRANCH   1  11
BRANCH   2  14
ATOM     14  C   UNL     1      -0.051  -3.985  -1.091  0.00  0.00    +0.024 A 
ATOM     15  C   UNL     1      -0.907  -4.004   0.009  0.00  0.00    +0.034 A 
ATOM     16  C   UNL     1      -2.109  -4.695  -0.062  0.00  0.00    +0.027 A 
ATOM     17  C   UNL     1      -2.458  -5.366  -1.226  0.00  0.00    +0.045 A 
ATOM     18  C   UNL     1      -1.606  -5.349  -2.323  0.00  0.00    +0.027 A 
ATOM     19  C   UNL     1      -0.406  -4.655  -2.260  0.00  0.00    +0.034 A 
BRANCH  18  20
ATOM     20  N   UNL     1      -1.960  -6.026  -3.492  0.00  0.00    -0.358 N 
ATOM     21  H   UNL     1      -2.801  -6.507  -3.538  0.00  0.00    +0.142 HD
ATOM     22  H   UNL     1      -1.365  -6.014  -4.259  0.00  0.00    +0.142 HD
ENDBRANCH  18  20
BRANCH  16  23
ATOM     23  N   UNL     1      -2.968  -4.715   1.039  0.00  0.00    -0.358 N 
ATOM     24  H   UNL     1      -2.724  -4.247   1.853  0.00  0.00    +0.142 HD
ATOM     25  H   UNL     1      -3.808  -5.198   0.990  0.00  0.00    +0.142 HD
ENDBRANCH  16  23
ENDBRANCH   2  14
TORSDOF 5
