REMARK  Name = ZINC36818912
REMARK  4 active torsions:
REMARK  status: ('A' for Active; 'I' for Inactive)
REMARK    1  A    between atoms: C_5  and  N_7
REMARK    2  A    between atoms: C_8  and  C_10
REMARK    3  A    between atoms: C_10  and  S_11
REMARK    4  A    between atoms: S_11  and  C_12
REMARK                            x       y       z     vdW  Elec       q    Type
REMARK                         _______ _______ _______ _____ _____    ______ ____
ROOT
ATOM      1  C   UNL     1      -1.370  -6.655   0.452  0.00  0.00    +0.191 A 
ATOM      2  N   UNL     1      -0.146  -7.170   0.429  0.00  0.00    -0.207 NA
ATOM      3  C   UNL     1       0.070  -8.473   0.495  0.00  0.00    +0.129 A 
ATOM      4  C   UNL     1      -1.040  -9.358   0.594  0.00  0.00    +0.051 A 
ATOM      5  C   UNL     1      -1.040 -10.820   0.676  0.00  0.00    -0.025 A 
ATOM      6  C   UNL     1      -2.240 -11.428   0.764  0.00  0.00    -0.004 A 
ATOM      7  S   UNL     1      -3.428 -10.111   0.742  0.00  0.00    -0.073 S 
ATOM      8  C   UNL     1      -2.307  -8.742   0.614  0.00  0.00    +0.115 A 
ATOM      9  N   UNL     1      -2.441  -7.431   0.549  0.00  0.00    -0.214 NA
ATOM     10  C   UNL     1      -2.508 -12.899   0.857  0.00  0.00    +0.043 C 
ATOM     11  C   UNL     1      -1.228 -13.651   0.465  0.00  0.00    +0.005 C 
ATOM     12  C   UNL     1      -0.046 -13.033   1.218  0.00  0.00    +0.005 C 
ATOM     13  C   UNL     1       0.248 -11.638   0.665  0.00  0.00    +0.037 C 
ATOM     14  N   UNL     1       1.360  -8.970   0.468  0.00  0.00    -0.343 N 
ATOM     15  H   UNL     1       2.082  -8.470   0.882  0.00  0.00    +0.144 HD
ATOM     16  H   UNL     1       1.544  -9.818   0.034  0.00  0.00    +0.144 HD
ENDROOT
BRANCH   1  17
ATOM     17  S   UNL     1      -1.574  -4.907   0.360  0.00  0.00    -0.077 S 
BRANCH  17  18
ATOM     18  C   UNL     1       0.121  -4.273   0.242  0.00  0.00    +0.173 C 
BRANCH  18  20
ATOM     19  N   UNL     1       1.241  -2.075   0.060  0.00  0.00    -0.284 N 
ATOM     20  C   UNL     1       0.089  -2.768   0.155  0.00  0.00    +0.228 C 
ATOM     21  O   UNL     1      -0.972  -2.182   0.172  0.00  0.00    -0.275 OA
ATOM     22  H   UNL     1       2.083  -2.545  -0.038  0.00  0.00    +0.155 HD
BRANCH  19  27
ATOM     23  C   UNL     1       0.157   1.367   0.770  0.00  0.00    +0.002 A 
ATOM     24  C   UNL     1       1.179   2.090   0.183  0.00  0.00    +0.001 A 
ATOM     25  C   UNL     1       2.222   1.435  -0.445  0.00  0.00    +0.017 A 
ATOM     26  C   UNL     1       2.246   0.053  -0.488  0.00  0.00    +0.039 A 
ATOM     27  C   UNL     1       1.220  -0.676   0.101  0.00  0.00    +0.047 A 
ATOM     28  C   UNL     1       0.175  -0.014   0.731  0.00  0.00    +0.024 A 
ATOM     29 BR   UNL     1       3.672  -0.843  -1.347  0.00  0.00    -0.048 Br
ENDBRANCH  19  27
ENDBRANCH  18  20
ENDBRANCH  17  18
ENDBRANCH   1  17
TORSDOF 4
