REMARK  Name = ZINC63720215
REMARK  5 active torsions:
REMARK  status: ('A' for Active; 'I' for Inactive)
REMARK    1  A    between atoms: C_1  and  C_2
REMARK    2  A    between atoms: C_5  and  N_9
REMARK    3  A    between atoms: C_6  and  C_8
REMARK    4  A    between atoms: C_10  and  S_33
REMARK    5  A    between atoms: C_14  and  C_17
REMARK                            x       y       z     vdW  Elec       q    Type
REMARK                         _______ _______ _______ _____ _____    ______ ____
ROOT
ATOM      1  N   UNL     1      -0.360  -4.143   0.063  0.00  0.00    -0.242 N 
ATOM      2  C   UNL     1      -1.723  -4.651   0.076  0.00  0.00    +0.225 C 
ATOM      3  N   UNL     1      -1.796  -6.036  -0.363  0.00  0.00    -0.288 N 
ATOM      4  C   UNL     1      -0.749  -6.866  -0.352  0.00  0.00    +0.229 C 
ATOM      5  C   UNL     1       0.613  -6.430   0.103  0.00  0.00    +0.180 C 
ATOM      6  C   UNL     1       0.718  -4.932   0.077  0.00  0.00    +0.235 C 
ATOM      7  O   UNL     1       1.819  -4.422   0.074  0.00  0.00    -0.274 OA
ATOM      8  O   UNL     1      -0.905  -8.011  -0.723  0.00  0.00    -0.275 OA
ATOM      9  H   UNL     1      -2.649  -6.374  -0.678  0.00  0.00    +0.151 HD
ENDROOT
BRANCH   5  10
ATOM     10  C   UNL     1       0.857  -6.935   1.526  0.00  0.00    +0.101 C 
ATOM     11  C   UNL     1       0.887  -8.465   1.532  0.00  0.00    +0.124 C 
ATOM     12  C   UNL     1       0.961  -8.884   2.996  0.00  0.00    -0.036 C 
ATOM     13  C   UNL     1       2.011  -9.685   3.105  0.00  0.00    -0.001 A 
ATOM     14  C   UNL     1       2.540 -10.463   4.237  0.00  0.00    +0.010 A 
ATOM     15  C   UNL     1       3.669 -11.181   3.996  0.00  0.00    +0.001 A 
ATOM     16  C   UNL     1       4.317 -11.202   2.757  0.00  0.00    +0.002 A 
ATOM     17  C   UNL     1       3.898 -10.522   1.661  0.00  0.00    +0.026 A 
ATOM     18  C   UNL     1       2.717  -9.735   1.788  0.00  0.00    +0.043 A 
ATOM     19  N   UNL     1       2.083  -9.007   0.889  0.00  0.00    -0.376 N 
ATOM     20  C   UNL     1       0.010  -8.327   4.028  0.00  0.00    +0.048 C 
ATOM     21  C   UNL     1      -0.007  -6.802   3.818  0.00  0.00    +0.085 C 
ATOM     22  N   UNL     1      -0.236  -6.489   2.405  0.00  0.00    -0.310 NA
ATOM     23  H   UNL     1      -0.424  -5.506   2.277  0.00  0.00    +0.122 HD
ATOM     24  H   UNL     1       2.354  -8.850  -0.029  0.00  0.00    +0.160 HD
ENDBRANCH   5  10
BRANCH   1  29
ATOM     25  C   UNL     1       0.419   1.475  -0.077  0.00  0.00    +0.044 C 
ATOM     26  C   UNL     1       0.212  -0.018  -0.040  0.00  0.00    -0.050 A 
ATOM     27  C   UNL     1       0.216  -0.685   1.172  0.00  0.00    +0.005 A 
ATOM     28  C   UNL     1       0.027  -2.052   1.209  0.00  0.00    +0.024 A 
ATOM     29  C   UNL     1      -0.168  -2.757   0.029  0.00  0.00    +0.042 A 
ATOM     30  C   UNL     1      -0.172  -2.084  -1.186  0.00  0.00    -0.029 A 
ATOM     31  C   UNL     1       0.013  -0.716  -1.216  0.00  0.00    +0.008 A 
ATOM     32  C   UNL     1      -0.383  -2.846  -2.469  0.00  0.00    +0.045 C 
ENDBRANCH   1  29
BRANCH   2  33
ATOM     33  S   UNL     1      -2.379  -4.534   1.763  0.00  0.00    -0.136 S 
ATOM     34  H   UNL     1      -3.627  -5.024   1.661  0.00  0.00    +0.105 HD
ENDBRANCH   2  33
TORSDOF 3
