REMARK  Name = ZINC20426679
REMARK  6 active torsions:
REMARK  status: ('A' for Active; 'I' for Inactive)
REMARK    1  A    between atoms: C_1  and  C_2
REMARK    2  A    between atoms: N_8  and  C_9
REMARK    3  A    between atoms: C_9  and  C_10
REMARK    4  A    between atoms: C_9  and  C_14
REMARK    5  A    between atoms: C_9  and  N_18
REMARK    6  A    between atoms: C_19  and  C_21
REMARK                            x       y       z     vdW  Elec       q    Type
REMARK                         _______ _______ _______ _____ _____    ______ ____
ROOT
ATOM      1  C   UNL     1       2.311  -2.680   0.079  0.00  0.00    +0.294 C 
ENDROOT
BRANCH   1   9
ATOM      2  C   UNL     1      -0.585  -4.939  -3.494  0.00  0.00    +0.044 C 
ATOM      3  C   UNL     1      -0.733  -3.726  -2.612  0.00  0.00    -0.046 A 
ATOM      4  C   UNL     1      -1.875  -2.938  -2.674  0.00  0.00    +0.021 A 
ATOM      5  C   UNL     1      -1.979  -1.833  -1.853  0.00  0.00    +0.084 A 
ATOM      6  N   UNL     1      -1.010  -1.519  -1.015  0.00  0.00    -0.350 N 
ATOM      7  C   UNL     1       0.094  -2.244  -0.927  0.00  0.00    +0.098 A 
ATOM      8  C   UNL     1       0.266  -3.372  -1.724  0.00  0.00    +0.045 A 
ATOM      9  N   UNL     1       1.090  -1.877  -0.030  0.00  0.00    -0.296 N 
ATOM     10  H   UNL     1       0.962  -0.983   0.599  0.00  0.00    +0.150 HD
ATOM     11  H   UNL     1      -1.107  -0.635  -0.368  0.00  0.00    +0.166 HD
ENDBRANCH   1   9
BRANCH   1  12
ATOM     12  C   UNL     1       3.214  -2.400  -1.124  0.00  0.00    +0.436 C 
ATOM     13  F   UNL     1       3.649  -1.071  -1.082  0.00  0.00    -0.166 F 
ATOM     14  F   UNL     1       4.321  -3.254  -1.085  0.00  0.00    -0.166 F 
ATOM     15  F   UNL     1       2.498  -2.619  -2.306  0.00  0.00    -0.166 F 
ENDBRANCH   1  12
BRANCH   1  16
ATOM     16  C   UNL     1       3.050  -2.313   1.367  0.00  0.00    +0.436 C 
ATOM     17  F   UNL     1       2.188  -2.466   2.459  0.00  0.00    -0.166 F 
ATOM     18  F   UNL     1       4.157  -3.153   1.526  0.00  0.00    -0.166 F 
ATOM     19  F   UNL     1       3.480  -0.983   1.296  0.00  0.00    -0.166 F 
ENDBRANCH   1  16
BRANCH   1  20
ATOM     20  N   UNL     1       1.960  -4.102   0.106  0.00  0.00    -0.276 N 
ATOM     21  C   UNL     1       0.943  -4.530   0.880  0.00  0.00    +0.247 C 
ATOM     22  O   UNL     1       0.262  -3.727   1.488  0.00  0.00    -0.270 OA
ATOM     23  H   UNL     1       2.525  -4.820  -0.506  0.00  0.00    +0.152 HD
BRANCH  21  24
ATOM     24  C   UNL     1       0.658  -5.975   0.992  0.00  0.00    +0.055 A 
ATOM     25  C   UNL     1       1.439  -6.900   0.295  0.00  0.00    +0.016 A 
ATOM     26  C   UNL     1       1.168  -8.247   0.403  0.00  0.00    +0.021 A 
ATOM     27  C   UNL     1       0.123  -8.686   1.200  0.00  0.00    +0.042 A 
ATOM     28  C   UNL     1      -0.656  -7.775   1.894  0.00  0.00    +0.040 A 
ATOM     29  C   UNL     1      -0.392  -6.423   1.798  0.00  0.00    +0.054 A 
ATOM     30 CL   UNL     1      -1.364  -5.282   2.674  0.00  0.00    -0.083 Cl
ATOM     31 CL   UNL     1      -0.211 -10.384   1.330  0.00  0.00    -0.083 Cl
ENDBRANCH  21  24
ENDBRANCH   1  20
TORSDOF 5
