REMARK  Name = ZINC11996065
REMARK  8 active torsions:
REMARK  status: ('A' for Active; 'I' for Inactive)
REMARK    1  A    between atoms: C_1  and  C_2
REMARK    2  A    between atoms: C_2  and  C_4
REMARK    3  A    between atoms: C_2  and  N_25
REMARK    4  A    between atoms: C_13  and  C_14
REMARK    5  A    between atoms: C_13  and  N_57
REMARK    6  A    between atoms: C_17  and  O_20
REMARK    7  A    between atoms: O_20  and  C_21
REMARK    8  A    between atoms: C_26  and  C_28
REMARK                            x       y       z     vdW  Elec       q    Type
REMARK                         _______ _______ _______ _____ _____    ______ ____
ROOT
ATOM      1  C   UNL     1      -0.134   3.427   2.888  0.00  0.00    +0.154 A 
ATOM      2  N   UNL     1       0.396   4.616   2.763  0.00  0.00    -0.132 NA
ATOM      3  N   UNL     1       0.690   4.833   1.528  0.00  0.00    -0.134 NA
ATOM      4  C   UNL     1       0.368   3.793   0.815  0.00  0.00    +0.132 A 
ATOM      5  N   UNL     1      -0.180   2.881   1.654  0.00  0.00    -0.315 N 
ATOM      6  C   UNL     1      -0.727   1.578   1.270  0.00  0.00    +0.106 C 
ATOM      7  C   UNL     1      -0.013   1.086   0.008  0.00  0.00    -0.056 C 
ATOM      8  C   UNL     1      -0.739   3.033  -1.259  0.00  0.00    -0.071 C 
ATOM      9  C   UNL     1       0.556   3.598  -0.667  0.00  0.00    +0.058 C 
ATOM     10  N   UNL     1      -0.753   1.554  -1.185  0.00  0.00    +0.384 N 
ATOM     11  H   UNL     1      -1.727   1.236  -1.116  0.00  0.00    -0.081 HD
ENDROOT
BRANCH   1  13
ATOM     12  C   UNL     1      -1.931   3.421   4.596  0.00  0.00    +0.036 C 
ATOM     13  C   UNL     1      -0.606   2.788   4.168  0.00  0.00    +0.138 C 
BRANCH  13  14
ATOM     14  N   UNL     1       0.396   2.996   5.216  0.00  0.00    -0.302 N 
ATOM     15  C   UNL     1       0.472   2.141   6.255  0.00  0.00    +0.247 C 
ATOM     16  O   UNL     1      -0.290   1.197   6.323  0.00  0.00    -0.270 OA
ATOM     17  H   UNL     1       1.005   3.749   5.162  0.00  0.00    +0.150 HD
BRANCH  15  18
ATOM     18  C   UNL     1       1.483   2.352   7.312  0.00  0.00    +0.075 A 
ATOM     19  C   UNL     1       2.361   3.435   7.237  0.00  0.00    +0.054 A 
ATOM     20  C   UNL     1       3.303   3.626   8.229  0.00  0.00    +0.124 A 
ATOM     21  C   UNL     1       3.378   2.745   9.297  0.00  0.00    +0.041 A 
ATOM     22  C   UNL     1       2.513   1.670   9.377  0.00  0.00    +0.042 A 
ATOM     23  C   UNL     1       1.561   1.470   8.394  0.00  0.00    +0.136 A 
ATOM     24  F   UNL     1       0.712   0.423   8.477  0.00  0.00    -0.205 F 
ATOM     25  F   UNL     1       4.153   4.673   8.158  0.00  0.00    -0.205 F 
ENDBRANCH  15  18
ENDBRANCH  13  14
ENDBRANCH   1  13
BRANCH  10  26
ATOM     26  C   UNL     1      -0.152   0.987  -2.406  0.00  0.00    -0.043 C 
BRANCH  26  27
ATOM     27  C   UNL     1      -1.046   1.307  -3.576  0.00  0.00    -0.064 A 
ATOM     28  C   UNL     1      -2.068   0.442  -3.921  0.00  0.00    +0.005 A 
ATOM     29  C   UNL     1      -2.892   0.736  -4.990  0.00  0.00    +0.046 A 
ATOM     30  C   UNL     1      -2.686   1.895  -5.725  0.00  0.00    +0.130 A 
ATOM     31  C   UNL     1      -1.655   2.758  -5.381  0.00  0.00    +0.046 A 
ATOM     32  C   UNL     1      -0.838   2.462  -4.307  0.00  0.00    +0.005 A 
BRANCH  30  33
ATOM     33  O   UNL     1      -3.491   2.183  -6.781  0.00  0.00    -0.406 OA
BRANCH  33  34
ATOM     34  C   UNL     1      -4.532   1.249  -7.077  0.00  0.00    +0.575 C 
ATOM     35  F   UNL     1      -5.384   1.135  -5.974  0.00  0.00    -0.133 F 
ATOM     36  F   UNL     1      -5.260   1.698  -8.184  0.00  0.00    -0.133 F 
ATOM     37  F   UNL     1      -3.969   0.001  -7.364  0.00  0.00    -0.133 F 
ENDBRANCH  33  34
ENDBRANCH  30  33
ENDBRANCH  26  27
ENDBRANCH  10  26
TORSDOF 7
