REMARK  Name = ZINC37558167
REMARK  5 active torsions:
REMARK  status: ('A' for Active; 'I' for Inactive)
REMARK    1  A    between atoms: C_1  and  C_2
REMARK    2  A    between atoms: C_9  and  N_11
REMARK    3  A    between atoms: N_11  and  S_12
REMARK    4  A    between atoms: S_12  and  C_15
REMARK    5  A    between atoms: C_20  and  N_21
REMARK                            x       y       z     vdW  Elec       q    Type
REMARK                         _______ _______ _______ _____ _____    ______ ____
ROOT
ATOM      1  S   UNL     1       0.101  -7.215   0.346  0.00  0.00    +0.098 S 
ATOM      2  O   UNL     1      -1.150  -7.098  -0.319  0.00  0.00    -0.148 OA
ATOM      3  O   UNL     1       1.341  -7.064  -0.332  0.00  0.00    -0.148 OA
ENDROOT
BRANCH   1   4
ATOM      4  C   UNL     1       0.126  -8.810   1.093  0.00  0.00    +0.166 A 
ATOM      5  C   UNL     1      -0.885  -9.773   1.015  0.00  0.00    +0.133 A 
ATOM      6  N   UNL     1      -0.505 -10.825   1.694  0.00  0.00    -0.304 N 
ATOM      7  H   UNL     1       1.284 -11.178   2.777  0.00  0.00    +0.188 HD
ATOM      8  N   UNL     1       0.764 -10.570   2.230  0.00  0.00    -0.286 N 
ATOM      9  C   UNL     1       1.137  -9.328   1.845  0.00  0.00    +0.137 A 
ATOM     10  H   UNL     1      -1.015 -11.642   1.807  0.00  0.00    +0.186 HD
BRANCH   9  11
ATOM     11  N   UNL     1       2.334  -8.694   2.162  0.00  0.00    -0.342 N 
ATOM     12  H   UNL     1       2.508  -7.796   1.838  0.00  0.00    +0.144 HD
ATOM     13  H   UNL     1       2.995  -9.149   2.707  0.00  0.00    +0.144 HD
ENDBRANCH   9  11
ENDBRANCH   1   4
BRANCH   1  14
ATOM     14  N   UNL     1       0.092  -6.101   1.571  0.00  0.00    -0.070 NA
BRANCH  14  23
ATOM     15  C   UNL     1      -0.018   1.503   0.010  0.00  0.00    +0.044 C 
ATOM     16  C   UNL     1       0.002  -0.004   0.002  0.00  0.00    -0.049 A 
ATOM     17  C   UNL     1       0.006  -0.698  -1.199  0.00  0.00    +0.005 A 
ATOM     18  C   UNL     1       0.024  -2.068  -1.234  0.00  0.00    +0.029 A 
ATOM     19  C   UNL     1       0.039  -2.822  -0.038  0.00  0.00    +0.080 A 
ATOM     20  C   UNL     1       0.035  -2.081   1.166  0.00  0.00    +0.041 A 
ATOM     21  C   UNL     1       0.023  -0.709   1.192  0.00  0.00    +0.020 A 
ATOM     22  S   UNL     1       0.059  -3.361   2.398  0.00  0.00    -0.049 S 
ATOM     23  C   UNL     1       0.072  -4.753   1.277  0.00  0.00    +0.202 A 
ATOM     24  N   UNL     1       0.058  -4.165   0.102  0.00  0.00    -0.222 NA
ENDBRANCH  14  23
ENDBRANCH   1  14
TORSDOF 4
