REMARK  Name = ZINC11328334
REMARK  7 active torsions:
REMARK  status: ('A' for Active; 'I' for Inactive)
REMARK    1  A    between atoms: C_4  and  N_7
REMARK    2  A    between atoms: N_8  and  C_9
REMARK    3  A    between atoms: C_12  and  N_15
REMARK    4  A    between atoms: C_16  and  C_18
REMARK    5  A    between atoms: C_22  and  S_24
REMARK    6  A    between atoms: S_24  and  N_27
REMARK    7  A    between atoms: N_27  and  C_28
REMARK                            x       y       z     vdW  Elec       q    Type
REMARK                         _______ _______ _______ _____ _____    ______ ____
ROOT
ATOM      1  N   UNL     1      -4.331   0.920  -4.732  0.00  0.00    -0.282 N 
ATOM      2  C   UNL     1      -3.747   0.593  -3.562  0.00  0.00    +0.248 C 
ATOM      3  O   UNL     1      -4.045  -0.444  -3.002  0.00  0.00    -0.270 OA
ATOM      4  H   UNL     1      -4.151   1.781  -5.140  0.00  0.00    +0.155 HD
ENDROOT
BRANCH   1   8
ATOM      5  C   UNL     1      -6.907  -1.772  -6.598  0.00  0.00    +0.086 A 
ATOM      6  C   UNL     1      -7.133  -0.395  -6.705  0.00  0.00    +0.031 A 
ATOM      7  C   UNL     1      -6.280   0.491  -6.087  0.00  0.00    +0.025 A 
ATOM      8  C   UNL     1      -5.193   0.019  -5.357  0.00  0.00    +0.034 A 
ATOM      9  C   UNL     1      -4.962  -1.349  -5.253  0.00  0.00    +0.025 A 
ATOM     10  C   UNL     1      -5.813  -2.242  -5.863  0.00  0.00    +0.031 A 
BRANCH   5  12
ATOM     11  N   UNL     1      -7.540  -3.922  -7.110  0.00  0.00    -0.149 NA
ATOM     12  N   UNL     1      -7.750  -2.653  -7.210  0.00  0.00    -0.149 NA
BRANCH  11  16
ATOM     13  C   UNL     1     -10.098  -6.594  -8.962  0.00  0.00    +0.000 A 
ATOM     14  C   UNL     1      -9.018  -7.065  -8.237  0.00  0.00    +0.002 A 
ATOM     15  C   UNL     1      -8.161  -6.180  -7.617  0.00  0.00    +0.029 A 
ATOM     16  C   UNL     1      -8.386  -4.805  -7.722  0.00  0.00    +0.086 A 
ATOM     17  C   UNL     1      -9.482  -4.337  -8.452  0.00  0.00    +0.029 A 
ATOM     18  C   UNL     1     -10.327  -5.233  -9.071  0.00  0.00    +0.002 A 
ENDBRANCH  11  16
ENDBRANCH   5  12
ENDBRANCH   1   8
BRANCH   2  19
ATOM     19  C   UNL     1      -2.745   1.496  -2.959  0.00  0.00    +0.039 A 
ATOM     20  C   UNL     1      -2.400   2.688  -3.599  0.00  0.00    +0.013 A 
ATOM     21  C   UNL     1      -1.463   3.527  -3.030  0.00  0.00    +0.003 A 
ATOM     22  C   UNL     1      -0.866   3.188  -1.829  0.00  0.00    +0.028 A 
ATOM     23  C   UNL     1      -1.204   2.009  -1.189  0.00  0.00    +0.106 A 
ATOM     24  C   UNL     1      -2.135   1.159  -1.749  0.00  0.00    +0.041 A 
BRANCH  23  25
ATOM     25  S   UNL     1      -0.437   1.588   0.341  0.00  0.00    +0.059 S 
ATOM     26  O   UNL     1      -0.523   0.175   0.463  0.00  0.00    -0.153 OA
ATOM     27  O   UNL     1       0.802   2.282   0.379  0.00  0.00    -0.153 OA
BRANCH  25  28
ATOM     28  N   UNL     1      -1.374   2.225   1.549  0.00  0.00    -0.185 NA
ATOM     29  H   UNL     1      -1.019   2.924   2.120  0.00  0.00    +0.148 HD
BRANCH  28  30
ATOM     30  C   UNL     1      -2.737   1.731   1.756  0.00  0.00    +0.099 C 
ATOM     31  C   UNL     1      -2.728   0.649   2.848  0.00  0.00    +0.044 C 
ATOM     32  C   UNL     1      -4.200   0.370   3.266  0.00  0.00    +0.167 C 
ATOM     33  S   UNL     1      -4.875   2.084   3.284  0.00  0.00    -0.029 S 
ATOM     34  O   UNL     1      -4.751   2.616   4.596  0.00  0.00    -0.174 OA
ATOM     35  O   UNL     1      -6.144   2.090   2.645  0.00  0.00    -0.174 OA
ATOM     36  C   UNL     1      -3.649   2.906   2.187  0.00  0.00    +0.186 C 
ENDBRANCH  28  30
ENDBRANCH  25  28
ENDBRANCH  23  25
ENDBRANCH   2  19
TORSDOF 7
