REMARK  Name = ZINC35729064
REMARK  8 active torsions:
REMARK  status: ('A' for Active; 'I' for Inactive)
REMARK    1  A    between atoms: C_1  and  C_2
REMARK    2  A    between atoms: C_2  and  C_3
REMARK    3  A    between atoms: C_3  and  C_5
REMARK    4  A    between atoms: C_3  and  C_6
REMARK    5  A    between atoms: C_6  and  C_8
REMARK    6  A    between atoms: C_6  and  N_23
REMARK    7  A    between atoms: C_14  and  C_16
REMARK    8  A    between atoms: N_26  and  C_27
REMARK                            x       y       z     vdW  Elec       q    Type
REMARK                         _______ _______ _______ _____ _____    ______ ____
ROOT
ATOM      1  C   UNL     1       1.814  -0.107  -1.349  0.00  0.00    +0.163 C 
ENDROOT
BRANCH   1   2
ATOM      2  C   UNL     1       1.723   1.328  -0.897  0.00  0.00    +0.239 C 
ATOM      3  O   UNL     1       2.279   2.200  -1.532  0.00  0.00    -0.273 OA
ATOM      4  N   UNL     1       1.024   1.643   0.211  0.00  0.00    -0.262 N 
ATOM      5  C   UNL     1       0.845   2.975   0.564  0.00  0.00    +0.188 A 
ATOM      6  N   UNL     1       1.262   4.080  -0.039  0.00  0.00    -0.125 NA
ATOM      7  N   UNL     1       1.008   5.227   0.421  0.00  0.00    -0.140 NA
ATOM      8  C   UNL     1       0.308   5.396   1.537  0.00  0.00    +0.134 A 
ATOM      9  S   UNL     1      -0.024   3.688   1.959  0.00  0.00    -0.030 S 
ATOM     10  H   UNL     1       0.647   0.940   0.762  0.00  0.00    +0.157 HD
BRANCH   8  11
ATOM     11  C   UNL     1      -0.089   6.640   2.230  0.00  0.00    +0.009 A 
ATOM     12  C   UNL     1      -0.830   6.578   3.410  0.00  0.00    +0.013 A 
ATOM     13  C   UNL     1      -1.198   7.741   4.053  0.00  0.00    +0.039 A 
ATOM     14  C   UNL     1      -0.833   8.971   3.528  0.00  0.00    +0.123 A 
ATOM     15  C   UNL     1      -0.097   9.038   2.356  0.00  0.00    +0.039 A 
ATOM     16  C   UNL     1       0.281   7.881   1.708  0.00  0.00    +0.013 A 
ATOM     17  F   UNL     1      -1.196  10.108   4.161  0.00  0.00    -0.205 F 
ENDBRANCH   8  11
ENDBRANCH   1   2
BRANCH   1  18
ATOM     18  N   UNL     1       2.952  -0.261  -2.258  0.00  0.00    -0.288 N 
ATOM     19  C   UNL     1       3.546  -1.464  -2.397  0.00  0.00    +0.305 C 
ATOM     20  O   UNL     1       3.136  -2.420  -1.767  0.00  0.00    -0.252 OA
ATOM     21  N   UNL     1       4.593  -1.606  -3.233  0.00  0.00    -0.268 N 
ATOM     22  H   UNL     1       3.279   0.501  -2.761  0.00  0.00    +0.151 HD
ATOM     23  H   UNL     1       4.962  -0.831  -3.685  0.00  0.00    +0.156 HD
BRANCH  21  24
ATOM     24  C   UNL     1       5.148  -2.872  -3.450  0.00  0.00    +0.049 A 
ATOM     25  C   UNL     1       5.103  -3.833  -2.449  0.00  0.00    +0.024 A 
ATOM     26  C   UNL     1       5.651  -5.082  -2.666  0.00  0.00    +0.002 A 
ATOM     27  C   UNL     1       6.245  -5.377  -3.880  0.00  0.00    +0.001 A 
ATOM     28  C   UNL     1       6.293  -4.423  -4.879  0.00  0.00    +0.017 A 
ATOM     29  C   UNL     1       5.741  -3.173  -4.670  0.00  0.00    +0.039 A 
ATOM     30 BR   UNL     1       5.800  -1.871  -6.040  0.00  0.00    -0.048 Br
ENDBRANCH  21  24
ENDBRANCH   1  18
BRANCH   1  31
ATOM     31  C   UNL     1       0.525  -0.496  -2.075  0.00  0.00    +0.015 C 
ATOM     32  C   UNL     1       0.409   0.306  -3.373  0.00  0.00    +0.010 C 
BRANCH  31  34
ATOM     33  C   UNL     1       0.500  -2.796  -1.100  0.00  0.00    +0.004 C 
ATOM     34  C   UNL     1       0.553  -1.990  -2.400  0.00  0.00    +0.002 C 
ENDBRANCH  31  34
ENDBRANCH   1  31
TORSDOF 6
