REMARK  Name = ZINC11998030
REMARK  7 active torsions:
REMARK  status: ('A' for Active; 'I' for Inactive)
REMARK    1  A    between atoms: C_3  and  C_6
REMARK    2  A    between atoms: C_9  and  O_24
REMARK    3  A    between atoms: C_10  and  C_12
REMARK    4  A    between atoms: C_12  and  N_67
REMARK    5  A    between atoms: O_24  and  C_25
REMARK    6  A    between atoms: C_25  and  C_26
REMARK    7  A    between atoms: N_28  and  C_29
REMARK                            x       y       z     vdW  Elec       q    Type
REMARK                         _______ _______ _______ _____ _____    ______ ____
ROOT
ATOM      1  C   UNL     1      10.922   2.966   0.559  0.00  0.00    -0.011 A 
ATOM      2  C   UNL     1       9.804   3.798   0.477  0.00  0.00    +0.012 A 
ATOM      3  C   UNL     1       8.544   3.248   0.370  0.00  0.00    +0.046 A 
ATOM      4  C   UNL     1       8.386   1.868   0.354  0.00  0.00    +0.123 A 
ATOM      5  C   UNL     1       9.495   1.038   0.435  0.00  0.00    -0.022 A 
ATOM      6  C   UNL     1      10.759   1.580   0.537  0.00  0.00    +0.014 A 
ENDROOT
BRANCH   1   9
ATOM      7  C   UNL     1      13.983   5.179   0.811  0.00  0.00    +0.008 A 
ATOM      8  C   UNL     1      12.644   4.869   0.705  0.00  0.00    +0.016 A 
ATOM      9  C   UNL     1      12.275   3.551   0.668  0.00  0.00    +0.019 A 
ATOM     10  S   UNL     1      13.852   2.724   0.793  0.00  0.00    -0.097 S 
ATOM     11  C   UNL     1      14.892   4.173   0.875  0.00  0.00    +0.046 A 
ENDBRANCH   1   9
BRANCH   5  12
ATOM     12  C   UNL     1       9.318  -0.459   0.411  0.00  0.00    -0.039 C 
BRANCH  12  24
ATOM     13  C   UNL     1       7.864  -0.400  -1.525  0.00  0.00    -0.059 C 
ATOM     14  C   UNL     1       7.742  -0.821  -2.991  0.00  0.00    +0.089 C 
ATOM     15  N   UNL     1       7.803  -2.286  -3.083  0.00  0.00    -0.303 N 
ATOM     16  C   UNL     1       9.068  -2.794  -2.534  0.00  0.00    +0.089 C 
ATOM     17  C   UNL     1       9.189  -2.373  -1.068  0.00  0.00    -0.059 C 
ATOM     18  C   UNL     1       7.624  -2.709  -4.389  0.00  0.00    +0.218 A 
ATOM     19  N   UNL     1       8.552  -3.465  -4.957  0.00  0.00    -0.223 NA
ATOM     20  C   UNL     1       8.410  -3.890  -6.202  0.00  0.00    +0.116 A 
ATOM     21  C   UNL     1       7.279  -3.526  -6.915  0.00  0.00    +0.039 A 
ATOM     22  C   UNL     1       6.331  -2.729  -6.293  0.00  0.00    +0.116 A 
ATOM     23  N   UNL     1       6.532  -2.343  -5.044  0.00  0.00    -0.223 NA
ATOM     24  N   UNL     1       9.149  -0.897  -0.991  0.00  0.00    +0.384 N 
ATOM     25  H   UNL     1       9.916  -0.513  -1.555  0.00  0.00    -0.081 HD
ENDBRANCH  12  24
ENDBRANCH   5  12
BRANCH   4  26
ATOM     26  O   UNL     1       7.142   1.330   0.254  0.00  0.00    -0.483 OA
BRANCH  26  27
ATOM     27  C   UNL     1       6.045   2.242   0.174  0.00  0.00    +0.324 C 
BRANCH  27  28
ATOM     28  C   UNL     1       4.755   1.469   0.068  0.00  0.00    +0.255 C 
ATOM     29  O   UNL     1       4.774   0.257   0.062  0.00  0.00    -0.272 OA
ATOM     30  N   UNL     1       3.582   2.126  -0.019  0.00  0.00    -0.283 N 
ATOM     31  H   UNL     1       3.571   3.093  -0.091  0.00  0.00    +0.155 HD
BRANCH  30  32
ATOM     32  C   UNL     1       2.378   1.412  -0.006  0.00  0.00    +0.034 A 
ATOM     33  C   UNL     1       2.270   0.244   0.739  0.00  0.00    +0.023 A 
ATOM     34  C   UNL     1       1.081  -0.459   0.751  0.00  0.00    +0.008 A 
ATOM     35  C   UNL     1       0.001  -0.003   0.022  0.00  0.00    -0.016 A 
ATOM     36  C   UNL     1       0.106   1.162  -0.723  0.00  0.00    -0.015 A 
ATOM     37  C   UNL     1       1.290   1.869  -0.739  0.00  0.00    +0.029 A 
ATOM     38  C   UNL     1      -1.227   1.384  -1.399  0.00  0.00    +0.196 C 
ATOM     39  O   UNL     1      -1.915   0.123  -1.343  0.00  0.00    -0.371 OA
ATOM     40  C   UNL     1      -1.401  -0.531  -0.168  0.00  0.00    +0.195 C 
ENDBRANCH  30  32
ENDBRANCH  27  28
ENDBRANCH  26  27
ENDBRANCH   4  26
TORSDOF 7
