REMARK  Name = ZINC65601173
REMARK  12 active torsions:
REMARK  status: ('A' for Active; 'I' for Inactive)
REMARK    1  A    between atoms: C_1  and  C_2
REMARK    2  A    between atoms: C_5  and  C_8
REMARK    3  A    between atoms: C_8  and  C_9
REMARK    4  A    between atoms: C_8  and  N_27
REMARK    5  A    between atoms: C_9  and  N_10
REMARK    6  A    between atoms: C_11  and  C_13
REMARK    7  A    between atoms: N_15  and  C_16
REMARK    8  A    between atoms: C_19  and  C_23
REMARK    9  A    between atoms: C_21  and  C_22
REMARK   10  A    between atoms: N_25  and  C_26
REMARK   11  A    between atoms: N_27  and  C_28
REMARK   12  A    between atoms: N_27  and  C_29
REMARK                            x       y       z     vdW  Elec       q    Type
REMARK                         _______ _______ _______ _____ _____    ______ ____
ROOT
ATOM      1  N   UNL     1      -1.269  -6.360   0.213  0.00  0.00    -0.309 N 
ATOM      2  C   UNL     1      -2.361  -7.142   0.327  0.00  0.00    +0.299 C 
ATOM      3  O   UNL     1      -3.460  -6.639   0.432  0.00  0.00    -0.265 OA
ATOM      4  H   UNL     1      -0.391  -6.762   0.129  0.00  0.00    +0.149 HD
ENDROOT
BRANCH   2   5
ATOM      5  C   UNL     1      -2.218  -8.629   0.322  0.00  0.00    +0.303 C 
ATOM      6  O   UNL     1      -1.118  -9.132   0.217  0.00  0.00    -0.265 OA
ATOM      7  N   UNL     1      -3.309  -9.411   0.436  0.00  0.00    -0.278 N 
ATOM      8  H   UNL     1      -4.177  -9.012   0.604  0.00  0.00    +0.155 HD
BRANCH   7   9
ATOM      9  C   UNL     1      -3.191 -10.793   0.312  0.00  0.00    +0.037 A 
ATOM     10  C   UNL     1      -2.134 -11.338  -0.412  0.00  0.00    +0.024 A 
ATOM     11  C   UNL     1      -2.015 -12.704  -0.537  0.00  0.00    +0.015 A 
ATOM     12  C   UNL     1      -2.956 -13.544   0.065  0.00  0.00    +0.037 A 
ATOM     13  C   UNL     1      -4.016 -12.994   0.791  0.00  0.00    +0.018 A 
ATOM     14  C   UNL     1      -4.127 -11.627   0.917  0.00  0.00    -0.029 A 
ATOM     15  C   UNL     1      -5.266 -11.034   1.705  0.00  0.00    +0.045 C 
BRANCH  12  16
ATOM     16  C   UNL     1      -2.831 -15.008  -0.067  0.00  0.00    +0.244 C 
ATOM     17  O   UNL     1      -3.651 -15.738   0.457  0.00  0.00    -0.270 OA
ATOM     18  N   UNL     1      -1.809 -15.537  -0.768  0.00  0.00    -0.314 N 
ATOM     19  C   UNL     1      -1.685 -16.991  -0.899  0.00  0.00    +0.128 C 
ATOM     20  H   UNL     1      -1.155 -14.955  -1.186  0.00  0.00    +0.149 HD
ENDBRANCH  12  16
ENDBRANCH   7   9
ENDBRANCH   2   5
BRANCH   1  21
ATOM     21  C   UNL     1      -1.410  -4.901   0.217  0.00  0.00    +0.094 C 
BRANCH  21  22
ATOM     22  C   UNL     1      -0.048  -4.257  -0.049  0.00  0.00    -0.021 C 
BRANCH  22  27
ATOM     23  C   UNL     1       1.897  -5.939  -5.224  0.00  0.00    +0.044 C 
ATOM     24  C   UNL     1       1.390  -5.500  -3.874  0.00  0.00    -0.050 A 
ATOM     25  C   UNL     1       1.864  -6.108  -2.727  0.00  0.00    +0.003 A 
ATOM     26  C   UNL     1       1.399  -5.705  -1.489  0.00  0.00    +0.002 A 
ATOM     27  C   UNL     1       0.460  -4.695  -1.398  0.00  0.00    -0.059 A 
ATOM     28  C   UNL     1      -0.014  -4.087  -2.546  0.00  0.00    +0.002 A 
ATOM     29  C   UNL     1       0.455  -4.486  -3.783  0.00  0.00    +0.003 A 
ENDBRANCH  22  27
BRANCH  22  30
ATOM     30  N   UNL     1      -0.186  -2.795  -0.028  0.00  0.00    +0.382 N 
ATOM     31  C   UNL     1      -0.570  -2.358   1.320  0.00  0.00    -0.096 C 
ATOM     32  C   UNL     1       1.095  -2.177  -0.397  0.00  0.00    -0.096 C 
ATOM     33  H   UNL     1      -0.896  -2.514  -0.688  0.00  0.00    -0.082 HD
ENDBRANCH  22  30
ENDBRANCH  21  22
ENDBRANCH   1  21
TORSDOF 7
