REMARK  Name = ZINC12042994
REMARK  10 active torsions:
REMARK  status: ('A' for Active; 'I' for Inactive)
REMARK    1  A    between atoms: C_1  and  C_2
REMARK    2  A    between atoms: C_3  and  C_38
REMARK    3  A    between atoms: C_5  and  N_29
REMARK    4  A    between atoms: C_6  and  C_7
REMARK    5  A    between atoms: C_7  and  C_9
REMARK    6  A    between atoms: C_7  and  N_70
REMARK    7  A    between atoms: C_12  and  O_15
REMARK    8  A    between atoms: O_15  and  C_16
REMARK    9  A    between atoms: N_19  and  C_22
REMARK   10  A    between atoms: C_30  and  C_32
REMARK                            x       y       z     vdW  Elec       q    Type
REMARK                         _______ _______ _______ _____ _____    ______ ____
ROOT
ATOM      1  C   UNL     1       7.569   1.307  -0.188  0.00  0.00    -0.004 C 
ENDROOT
BRANCH   1   7
ATOM      2  C   UNL     1      10.015  -0.264  -0.398  0.00  0.00    +0.045 C 
ATOM      3  C   UNL     1       8.679  -0.945  -0.248  0.00  0.00    -0.037 A 
ATOM      4  C   UNL     1       8.598  -2.296  -0.208  0.00  0.00    -0.008 A 
ATOM      5  S   UNL     1       6.842  -2.559  -0.017  0.00  0.00    -0.078 S 
ATOM      6  C   UNL     1       6.329  -0.849  -0.012  0.00  0.00    +0.074 A 
ATOM      7  C   UNL     1       7.519  -0.199  -0.148  0.00  0.00    -0.025 A 
ATOM      8  C   UNL     1       9.704  -3.315  -0.296  0.00  0.00    +0.052 C 
BRANCH   6   9
ATOM      9  N   UNL     1       5.044  -0.317   0.106  0.00  0.00    -0.276 N 
ATOM     10  C   UNL     1       3.983  -1.139   0.227  0.00  0.00    +0.249 C 
ATOM     11  O   UNL     1       4.152  -2.338   0.333  0.00  0.00    -0.270 OA
ATOM     12  H   UNL     1       4.915   0.644   0.101  0.00  0.00    +0.156 HD
BRANCH  10  13
ATOM     13  C   UNL     1       2.613  -0.582   0.231  0.00  0.00    +0.037 A 
ATOM     14  C   UNL     1       1.509  -1.436   0.243  0.00  0.00    +0.013 A 
ATOM     15  C   UNL     1       0.234  -0.910   0.247  0.00  0.00    +0.001 A 
ATOM     16  C   UNL     1       0.048   0.461   0.239  0.00  0.00    +0.000 A 
ATOM     17  C   UNL     1       1.138   1.313   0.227  0.00  0.00    +0.001 A 
ATOM     18  C   UNL     1       2.419   0.800   0.223  0.00  0.00    +0.013 A 
ENDBRANCH  10  13
ENDBRANCH   6   9
ENDBRANCH   1   7
BRANCH   1  24
ATOM     19  C   UNL     1       6.677   3.324   0.813  0.00  0.00    -0.058 C 
ATOM     20  C   UNL     1       5.644   3.855   1.810  0.00  0.00    +0.086 C 
ATOM     21  N   UNL     1       5.942   3.325   3.148  0.00  0.00    -0.333 N 
ATOM     22  C   UNL     1       5.909   1.856   3.148  0.00  0.00    +0.086 C 
ATOM     23  C   UNL     1       6.941   1.325   2.151  0.00  0.00    -0.058 C 
ATOM     24  N   UNL     1       6.618   1.847   0.807  0.00  0.00    +0.389 N 
ATOM     25  H   UNL     1       5.668   1.552   0.554  0.00  0.00    -0.080 HD
BRANCH  21  26
ATOM     26  C   UNL     1       5.061   3.846   4.100  0.00  0.00    +0.030 A 
ATOM     27  C   UNL     1       4.299   2.990   4.885  0.00  0.00    +0.026 A 
ATOM     28  C   UNL     1       3.433   3.507   5.829  0.00  0.00    +0.040 A 
ATOM     29  C   UNL     1       3.316   4.878   5.985  0.00  0.00    +0.124 A 
ATOM     30  C   UNL     1       4.071   5.733   5.201  0.00  0.00    +0.040 A 
ATOM     31  C   UNL     1       4.942   5.221   4.259  0.00  0.00    +0.026 A 
ATOM     32  F   UNL     1       2.465   5.382   6.906  0.00  0.00    -0.205 F 
ENDBRANCH  21  26
ENDBRANCH   1  24
BRANCH   1  33
ATOM     33  C   UNL     1       7.168   1.787  -1.558  0.00  0.00    -0.056 A 
ATOM     34  C   UNL     1       5.831   1.958  -1.866  0.00  0.00    +0.006 A 
ATOM     35  C   UNL     1       5.461   2.404  -3.120  0.00  0.00    +0.046 A 
ATOM     36  C   UNL     1       6.432   2.668  -4.075  0.00  0.00    +0.120 A 
ATOM     37  C   UNL     1       7.773   2.490  -3.766  0.00  0.00    +0.046 A 
ATOM     38  C   UNL     1       8.138   2.050  -2.509  0.00  0.00    +0.006 A 
BRANCH  36  39
ATOM     39  O   UNL     1       6.070   3.100  -5.312  0.00  0.00    -0.495 OA
ATOM     40  C   UNL     1       4.672   3.261  -5.560  0.00  0.00    +0.277 C 
ENDBRANCH  36  39
ENDBRANCH   1  33
TORSDOF 7
