REMARK  Name = ZINC35201758
REMARK  9 active torsions:
REMARK  status: ('A' for Active; 'I' for Inactive)
REMARK    1  A    between atoms: C_1  and  C_2
REMARK    2  A    between atoms: C_6  and  N_8
REMARK    3  A    between atoms: C_9  and  C_11
REMARK    4  A    between atoms: N_22  and  C_39
REMARK    5  A    between atoms: C_23  and  C_25
REMARK    6  A    between atoms: N_27  and  C_28
REMARK    7  A    between atoms: C_33  and  C_38
REMARK    8  A    between atoms: C_35  and  C_37
REMARK    9  A    between atoms: C_39  and  C_40
REMARK                            x       y       z     vdW  Elec       q    Type
REMARK                         _______ _______ _______ _____ _____    ______ ____
ROOT
ATOM      1  C   UNL     1      -0.129  -4.898   3.686  0.00  0.00    +0.123 C 
ATOM      2  C   UNL     1      -1.457  -4.554   4.434  0.00  0.00    +0.155 C 
ATOM      3  C   UNL     1      -2.600  -4.776   3.438  0.00  0.00    +0.004 C 
ATOM      4  C   UNL     1      -2.741  -6.098   3.282  0.00  0.00    +0.009 C 
ATOM      5  C   UNL     1      -1.671  -6.671   4.140  0.00  0.00    +0.127 C 
ATOM      6  C   UNL     1      -0.290  -6.408   3.434  0.00  0.00    +0.128 C 
ATOM      7  C   UNL     1       0.635  -7.285   4.230  0.00  0.00    +0.224 C 
ATOM      8  O   UNL     1       1.830  -7.115   4.353  0.00  0.00    -0.275 OA
ATOM      9  N   UNL     1      -0.076  -8.296   4.789  0.00  0.00    -0.282 N 
ATOM     10  C   UNL     1      -1.552  -8.118   4.502  0.00  0.00    +0.199 C 
ATOM     11  O   UNL     1      -1.586  -5.751   5.284  0.00  0.00    -0.358 OA
ENDROOT
BRANCH   1  13
ATOM     12  N   UNL     1       0.052  -2.797   2.393  0.00  0.00    -0.285 N 
ATOM     13  C   UNL     1      -0.031  -4.143   2.385  0.00  0.00    +0.224 C 
ATOM     14  O   UNL     1      -0.028  -4.745   1.333  0.00  0.00    -0.275 OA
ATOM     15  H   UNL     1       0.117  -2.320   3.235  0.00  0.00    +0.155 HD
BRANCH  12  21
ATOM     16  C   UNL     1      -1.253   1.194  -0.165  0.00  0.00    +0.044 C 
ATOM     17  C   UNL     1      -0.581  -0.153  -0.082  0.00  0.00    -0.049 A 
ATOM     18  C   UNL     1       0.029  -0.690  -1.201  0.00  0.00    +0.003 A 
ATOM     19  C   UNL     1       0.647  -1.925  -1.129  0.00  0.00    +0.002 A 
ATOM     20  C   UNL     1       0.656  -2.626   0.061  0.00  0.00    +0.023 A 
ATOM     21  C   UNL     1       0.045  -2.090   1.186  0.00  0.00    +0.034 A 
ATOM     22  C   UNL     1      -0.571  -0.846   1.112  0.00  0.00    +0.026 A 
ENDBRANCH  12  21
ENDBRANCH   1  13
BRANCH  10  23
ATOM     23  C   UNL     1      -2.011  -8.988   3.360  0.00  0.00    +0.237 C 
ATOM     24  O   UNL     1      -1.196  -9.502   2.624  0.00  0.00    -0.274 OA
ATOM     25  N   UNL     1      -3.328  -9.194   3.157  0.00  0.00    -0.311 N 
ATOM     26  H   UNL     1      -3.979  -8.783   3.746  0.00  0.00    +0.149 HD
BRANCH  25  27
ATOM     27  C   UNL     1      -3.774 -10.039   2.047  0.00  0.00    +0.076 C 
ATOM     28  C   UNL     1      -3.858  -9.201   0.769  0.00  0.00    +0.022 C 
ATOM     29  C   UNL     1      -4.324 -10.084  -0.390  0.00  0.00    +0.002 C 
ATOM     30  C   UNL     1      -5.703 -10.663  -0.068  0.00  0.00    +0.003 C 
ATOM     31  C   UNL     1      -5.619 -11.501   1.209  0.00  0.00    -0.009 C 
ATOM     32  C   UNL     1      -5.153 -10.618   2.369  0.00  0.00    +0.009 C 
ATOM     33  C   UNL     1      -6.150  -9.476   2.573  0.00  0.00    +0.009 C 
ATOM     34  C   UNL     1      -6.998 -12.080   1.531  0.00  0.00    +0.008 C 
ENDBRANCH  25  27
ENDBRANCH  10  23
BRANCH   9  35
ATOM     35  C   UNL     1       0.510  -9.412   5.536  0.00  0.00    +0.151 C 
BRANCH  35  36
ATOM     36  C   UNL     1       0.597  -9.049   6.996  0.00  0.00    +0.007 A 
ATOM     37  C   UNL     1      -0.312  -9.248   7.981  0.00  0.00    +0.013 A 
ATOM     38  C   UNL     1      -0.014  -8.828   9.264  0.00  0.00    +0.008 A 
ATOM     39  C   UNL     1       1.179  -8.230   9.498  0.00  0.00    +0.045 A 
ATOM     40  S   UNL     1       1.929  -8.252   7.878  0.00  0.00    -0.100 S 
ENDBRANCH  35  36
ENDBRANCH   9  35
TORSDOF 6
