REMARK  Name = ZINC39675251
REMARK  13 active torsions:
REMARK  status: ('A' for Active; 'I' for Inactive)
REMARK    1  A    between atoms: C_1  and  C_2
REMARK    2  A    between atoms: C_2  and  C_4
REMARK    3  A    between atoms: C_2  and  N_14
REMARK    4  A    between atoms: C_4  and  C_5
REMARK    5  A    between atoms: C_5  and  C_6
REMARK    6  A    between atoms: C_9  and  O_12
REMARK    7  A    between atoms: O_12  and  C_13
REMARK    8  A    between atoms: C_15  and  C_17
REMARK    9  A    between atoms: C_28  and  C_30
REMARK   10  A    between atoms: C_33  and  O_38
REMARK   11  A    between atoms: C_35  and  O_36
REMARK   12  A    between atoms: O_36  and  C_37
REMARK   13  A    between atoms: O_38  and  C_39
REMARK                            x       y       z     vdW  Elec       q    Type
REMARK                         _______ _______ _______ _____ _____    ______ ____
ROOT
ATOM      1  C   UNL     1       2.776  -1.093   2.396  0.00  0.00    +0.100 C 
ATOM      2  C   UNL     1       2.679  -0.061   3.542  0.00  0.00    +0.121 C 
ATOM      3  N   UNL     1       3.999  -0.120   4.212  0.00  0.00    -0.296 N 
ATOM      4  C   UNL     1       4.970  -0.267   3.102  0.00  0.00    +0.115 C 
ATOM      5  C   UNL     1       4.281  -1.225   2.110  0.00  0.00    -0.004 C 
ATOM      6  C   UNL     1       4.585  -0.805   0.674  0.00  0.00    -0.010 C 
ATOM      7  C   UNL     1       6.078  -1.000   0.396  0.00  0.00    -0.082 C 
ATOM      8  N   UNL     1       6.436  -2.408   0.601  0.00  0.00    +0.379 N 
ATOM      9  C   UNL     1       6.229  -2.778   2.006  0.00  0.00    -0.082 C 
ATOM     10  C   UNL     1       4.742  -2.658   2.353  0.00  0.00    -0.010 C 
ATOM     11  C   UNL     1       4.258  -0.057   5.533  0.00  0.00    +0.250 C 
ATOM     12  O   UNL     1       3.341  -0.035   6.332  0.00  0.00    -0.270 OA
ATOM     13  H   UNL     1       5.859  -2.990   0.013  0.00  0.00    -0.086 HD
ATOM     14  H   UNL     1       7.406  -2.546   0.358  0.00  0.00    -0.086 HD
ENDROOT
BRANCH  11  15
ATOM     15  C   UNL     1       5.651  -0.013   6.009  0.00  0.00    +0.079 A 
ATOM     16  C   UNL     1       6.625   0.665   5.268  0.00  0.00    +0.020 A 
ATOM     17  C   UNL     1       7.925   0.704   5.716  0.00  0.00    +0.046 A 
ATOM     18  C   UNL     1       8.276   0.071   6.905  0.00  0.00    +0.124 A 
ATOM     19  C   UNL     1       7.318  -0.603   7.648  0.00  0.00    +0.092 A 
ATOM     20  C   UNL     1       6.005  -0.645   7.211  0.00  0.00    +0.136 A 
BRANCH  20  21
ATOM     21  O   UNL     1       5.066  -1.299   7.938  0.00  0.00    -0.494 OA
ATOM     22  C   UNL     1       5.500  -1.919   9.150  0.00  0.00    +0.277 C 
ENDBRANCH  20  21
BRANCH  18  23
ATOM     23  O   UNL     1       9.561   0.115   7.340  0.00  0.00    -0.495 OA
ATOM     24  C   UNL     1      10.497   0.826   6.528  0.00  0.00    +0.277 C 
ENDBRANCH  18  23
ENDBRANCH  11  15
BRANCH   1  26
ATOM     25  N   UNL     1       1.648  -1.458   0.225  0.00  0.00    -0.312 N 
ATOM     26  C   UNL     1       2.051  -0.591   1.174  0.00  0.00    +0.218 C 
ATOM     27  O   UNL     1       1.831   0.595   1.044  0.00  0.00    -0.275 OA
ATOM     28  H   UNL     1       1.824  -2.407   0.329  0.00  0.00    +0.149 HD
BRANCH  25  30
ATOM     29  C   UNL     1      -0.549  -0.841  -0.654  0.00  0.00    +0.028 C 
ATOM     30  C   UNL     1       0.944  -0.970  -0.963  0.00  0.00    +0.070 C 
BRANCH  30  31
ATOM     31  C   UNL     1       1.143  -1.956  -2.116  0.00  0.00    +0.026 C 
BRANCH  31  32
ATOM     32  C   UNL     1       2.621  -1.991  -2.508  0.00  0.00    +0.037 C 
BRANCH  32  33
ATOM     33  C   UNL     1       2.817  -2.963  -3.643  0.00  0.00    -0.047 A 
ATOM     34  C   UNL     1       3.089  -4.292  -3.375  0.00  0.00    +0.007 A 
ATOM     35  C   UNL     1       3.270  -5.184  -4.414  0.00  0.00    +0.046 A 
ATOM     36  C   UNL     1       3.177  -4.746  -5.727  0.00  0.00    +0.120 A 
ATOM     37  C   UNL     1       2.904  -3.412  -5.993  0.00  0.00    +0.046 A 
ATOM     38  C   UNL     1       2.719  -2.525  -4.951  0.00  0.00    +0.007 A 
BRANCH  36  39
ATOM     39  O   UNL     1       3.355  -5.622  -6.751  0.00  0.00    -0.495 OA
ATOM     40  C   UNL     1       3.245  -5.101  -8.077  0.00  0.00    +0.277 C 
ENDBRANCH  36  39
ENDBRANCH  32  33
ENDBRANCH  31  32
ENDBRANCH  30  31
ENDBRANCH  25  30
ENDBRANCH   1  26
TORSDOF 9
