REMARK  Name = ZINC09696039
REMARK  8 active torsions:
REMARK  status: ('A' for Active; 'I' for Inactive)
REMARK    1  A    between atoms: C_1  and  O_2
REMARK    2  A    between atoms: O_2  and  C_3
REMARK    3  A    between atoms: C_8  and  C_9
REMARK    4  A    between atoms: N_11  and  C_12
REMARK    5  A    between atoms: C_12  and  N_14
REMARK    6  A    between atoms: C_19  and  C_20
REMARK    7  A    between atoms: C_19  and  C_26
REMARK    8  A    between atoms: C_19  and  N_59
REMARK                            x       y       z     vdW  Elec       q    Type
REMARK                         _______ _______ _______ _____ _____    ______ ____
ROOT
ATOM      1  N   UNL     1      -0.653   2.468   0.635  0.00  0.00    -0.316 N 
ATOM      2  C   UNL     1      -0.531   1.005   0.728  0.00  0.00    +0.088 C 
ATOM      3  C   UNL     1       0.208   0.498  -0.515  0.00  0.00    -0.058 C 
ATOM      4  C   UNL     1      -0.435   2.457  -1.793  0.00  0.00    -0.058 C 
ATOM      5  C   UNL     1      -1.200   3.044  -0.603  0.00  0.00    +0.088 C 
ATOM      6  N   UNL     1      -0.502   0.981  -1.720  0.00  0.00    +0.389 N 
ATOM      7  H   UNL     1      -1.486   0.695  -1.663  0.00  0.00    -0.080 HD
ENDROOT
BRANCH   1   8
ATOM      8  C   UNL     1      -0.273   3.260   1.657  0.00  0.00    +0.139 C 
ATOM      9  S   UNL     1      -0.550   4.947   1.582  0.00  0.00    -0.018 S 
BRANCH   8  12
ATOM     10  C   UNL     1       0.600   3.494   3.810  0.00  0.00    +0.253 C 
ATOM     11  O   UNL     1       0.308   4.674   3.800  0.00  0.00    -0.270 OA
ATOM     12  N   UNL     1       0.325   2.723   2.739  0.00  0.00    -0.264 N 
ATOM     13  H   UNL     1       0.558   1.781   2.747  0.00  0.00    +0.157 HD
BRANCH  10  19
ATOM     14  C   UNL     1       1.542   3.705   6.109  0.00  0.00    +0.132 A 
ATOM     15  C   UNL     1       2.157   3.142   7.217  0.00  0.00    +0.047 A 
ATOM     16  C   UNL     1       2.484   1.801   7.221  0.00  0.00    +0.019 A 
ATOM     17  C   UNL     1       2.202   1.007   6.120  0.00  0.00    +0.019 A 
ATOM     18  C   UNL     1       1.586   1.549   5.012  0.00  0.00    +0.032 A 
ATOM     19  C   UNL     1       1.254   2.906   4.993  0.00  0.00    +0.080 A 
ATOM     20 BR   UNL     1       2.657  -0.828   6.141  0.00  0.00    -0.050 Br
BRANCH  14  22
ATOM     21  C   UNL     1       1.543   5.774   7.277  0.00  0.00    +0.277 C 
ATOM     22  O   UNL     1       1.220   5.023   6.105  0.00  0.00    -0.494 OA
ENDBRANCH  14  22
ENDBRANCH  10  19
ENDBRANCH   8  12
ENDBRANCH   1   8
BRANCH   6  23
ATOM     23  C   UNL     1       0.101   0.388  -2.932  0.00  0.00    -0.007 C 
BRANCH  23  24
ATOM     24  C   UNL     1       0.046  -1.114  -2.820  0.00  0.00    -0.057 A 
ATOM     25  C   UNL     1      -1.026  -1.722  -2.195  0.00  0.00    +0.002 A 
ATOM     26  C   UNL     1      -1.079  -3.100  -2.097  0.00  0.00    +0.000 A 
ATOM     27  C   UNL     1      -0.054  -3.869  -2.616  0.00  0.00    +0.000 A 
ATOM     28  C   UNL     1       1.021  -3.261  -3.236  0.00  0.00    +0.000 A 
ATOM     29  C   UNL     1       1.071  -1.883  -3.339  0.00  0.00    +0.002 A 
ENDBRANCH  23  24
BRANCH  23  30
ATOM     30  C   UNL     1      -0.690   0.832  -4.136  0.00  0.00    -0.057 A 
ATOM     31  C   UNL     1      -2.058   1.001  -4.040  0.00  0.00    +0.002 A 
ATOM     32  C   UNL     1      -2.783   1.413  -5.143  0.00  0.00    +0.000 A 
ATOM     33  C   UNL     1      -2.140   1.645  -6.345  0.00  0.00    +0.000 A 
ATOM     34  C   UNL     1      -0.772   1.470  -6.442  0.00  0.00    +0.000 A 
ATOM     35  C   UNL     1      -0.047   1.063  -5.338  0.00  0.00    +0.002 A 
ENDBRANCH  23  30
ENDBRANCH   6  23
TORSDOF 7
