REMARK  Name = ZINC09941960
REMARK  4 active torsions:
REMARK  status: ('A' for Active; 'I' for Inactive)
REMARK    1  A    between atoms: C_1  and  C_2
REMARK    2  A    between atoms: C_3  and  C_19
REMARK    3  A    between atoms: C_4  and  C_12
REMARK    4  A    between atoms: N_21  and  C_22
REMARK                            x       y       z     vdW  Elec       q    Type
REMARK                         _______ _______ _______ _____ _____    ______ ____
ROOT
ATOM      1  C   UNL     1      -5.386   1.927   2.487  0.00  0.00    +0.061 C 
ATOM      2  C   UNL     1      -4.594   1.797   1.211  0.00  0.00    +0.018 C 
ATOM      3  C   UNL     1      -3.397   1.194   1.251  0.00  0.00    +0.060 C 
ATOM      4  C   UNL     1      -2.521   1.023   0.037  0.00  0.00    +0.179 C 
ATOM      5  N   UNL     1      -3.288   1.341  -1.161  0.00  0.00    -0.201 N 
ATOM      6  C   UNL     1      -4.504   1.945  -1.141  0.00  0.00    +0.240 A 
ATOM      7  N   UNL     1      -4.889   2.080  -2.378  0.00  0.00    -0.092 NA
ATOM      8  N   UNL     1      -4.000   1.598  -3.178  0.00  0.00    -0.021 NA
ATOM      9  N   UNL     1      -2.998   1.129  -2.508  0.00  0.00    -0.042 NA
ATOM     10  N   UNL     1      -5.124   2.301   0.048  0.00  0.00    -0.286 N 
ATOM     11  H   UNL     1      -5.900   2.882   0.058  0.00  0.00    +0.155 HD
ENDROOT
BRANCH   4  12
ATOM     12  C   UNL     1      -1.337   1.950   0.137  0.00  0.00    -0.018 A 
ATOM     13  C   UNL     1      -0.055   1.434   0.148  0.00  0.00    +0.007 A 
ATOM     14  C   UNL     1       1.032   2.285   0.234  0.00  0.00    +0.015 A 
ATOM     15  C   UNL     1       0.835   3.651   0.314  0.00  0.00    +0.018 A 
ATOM     16  C   UNL     1      -0.448   4.167   0.309  0.00  0.00    +0.015 A 
ATOM     17  C   UNL     1      -1.534   3.316   0.223  0.00  0.00    +0.007 A 
ATOM     18 BR   UNL     1       2.321   4.815   0.431  0.00  0.00    -0.050 Br
ENDBRANCH   4  12
BRANCH   3  19
ATOM     19  C   UNL     1      -2.934   0.694   2.491  0.00  0.00    +0.248 C 
ATOM     20  O   UNL     1      -3.619   0.817   3.491  0.00  0.00    -0.270 OA
ATOM     21  N   UNL     1      -1.736   0.082   2.567  0.00  0.00    -0.282 N 
ATOM     22  H   UNL     1      -1.225  -0.084   1.759  0.00  0.00    +0.155 HD
BRANCH  21  23
ATOM     23  C   UNL     1      -1.229  -0.312   3.809  0.00  0.00    +0.034 A 
ATOM     24  C   UNL     1      -1.500   0.443   4.943  0.00  0.00    +0.025 A 
ATOM     25  C   UNL     1      -1.002   0.048   6.169  0.00  0.00    +0.022 A 
ATOM     26  C   UNL     1      -0.226  -1.093   6.268  0.00  0.00    +0.041 A 
ATOM     27  C   UNL     1       0.051  -1.844   5.139  0.00  0.00    +0.022 A 
ATOM     28  C   UNL     1      -0.449  -1.457   3.911  0.00  0.00    +0.025 A 
ATOM     29 CL   UNL     1       0.403  -1.583   7.810  0.00  0.00    -0.084 Cl
ENDBRANCH  21  23
ENDBRANCH   3  19
TORSDOF 3
