REMARK  Name = ZINC27477426
REMARK  6 active torsions:
REMARK  status: ('A' for Active; 'I' for Inactive)
REMARK    1  A    between atoms: C_4  and  N_7
REMARK    2  A    between atoms: N_10  and  C_11
REMARK    3  A    between atoms: C_14  and  N_17
REMARK    4  A    between atoms: C_18  and  C_20
REMARK    5  A    between atoms: C_20  and  N_21
REMARK    6  A    between atoms: C_29  and  C_31
REMARK                            x       y       z     vdW  Elec       q    Type
REMARK                         _______ _______ _______ _____ _____    ______ ____
ROOT
ATOM      1  N   UNL     1       3.566   3.208   4.363  0.00  0.00    -0.287 N 
ATOM      2  C   UNL     1       3.562   3.547   3.059  0.00  0.00    +0.201 C 
ATOM      3  O   UNL     1       4.578   3.952   2.534  0.00  0.00    -0.278 OA
ATOM      4  H   UNL     1       2.625   2.933   4.863  0.00  0.00    +0.155 HD
ENDROOT
BRANCH   1   8
ATOM      5  C   UNL     1       7.143   3.203   6.506  0.00  0.00    +0.035 A 
ATOM      6  C   UNL     1       5.938   3.394   7.168  0.00  0.00    +0.025 A 
ATOM      7  C   UNL     1       4.753   3.396   6.459  0.00  0.00    +0.025 A 
ATOM      8  C   UNL     1       4.768   3.206   5.083  0.00  0.00    +0.033 A 
ATOM      9  C   UNL     1       5.973   3.009   4.422  0.00  0.00    +0.025 A 
ATOM     10  C   UNL     1       7.157   3.014   5.130  0.00  0.00    +0.025 A 
BRANCH   5  14
ATOM     11  N   UNL     1      10.596   3.799   7.396  0.00  0.00    -0.269 N 
ATOM     12  C   UNL     1       9.463   3.713   6.672  0.00  0.00    +0.308 C 
ATOM     13  O   UNL     1       9.448   4.098   5.518  0.00  0.00    -0.252 OA
ATOM     14  N   UNL     1       8.345   3.203   7.226  0.00  0.00    -0.269 N 
ATOM     15  H   UNL     1      10.634   3.372   8.409  0.00  0.00    +0.156 HD
ATOM     16  H   UNL     1       8.377   2.785   8.243  0.00  0.00    +0.156 HD
BRANCH  11  20
ATOM     17  C   UNL     1      13.953   5.680   5.801  0.00  0.00    +0.000 A 
ATOM     18  C   UNL     1      12.689   6.149   5.495  0.00  0.00    +0.002 A 
ATOM     19  C   UNL     1      11.574   5.528   6.022  0.00  0.00    +0.023 A 
ATOM     20  C   UNL     1      11.723   4.430   6.860  0.00  0.00    +0.035 A 
ATOM     21  C   UNL     1      12.995   3.965   7.169  0.00  0.00    +0.023 A 
ATOM     22  C   UNL     1      14.105   4.588   6.635  0.00  0.00    +0.002 A 
ENDBRANCH  11  20
ENDBRANCH   5  14
ENDBRANCH   1   8
BRANCH   2  23
ATOM     23  C   UNL     1       2.295   3.423   2.252  0.00  0.00    +0.020 C 
BRANCH  23  24
ATOM     24  N   UNL     1       2.551   3.851   0.870  0.00  0.00    +0.393 N 
ATOM     25  C   UNL     1       2.896   5.279   0.816  0.00  0.00    -0.072 C 
ATOM     26  C   UNL     1       3.545   5.581  -0.545  0.00  0.00    +0.024 C 
ATOM     27  C   UNL     1       2.703   4.943  -1.602  0.00  0.00    -0.010 A 
ATOM     28  C   UNL     1       1.727   4.012  -1.413  0.00  0.00    -0.046 A 
ATOM     29  C   UNL     1       1.069   3.560  -2.554  0.00  0.00    +0.010 A 
ATOM     30  C   UNL     1       1.412   4.045  -3.770  0.00  0.00    +0.045 A 
ATOM     31  S   UNL     1       2.715   5.195  -3.354  0.00  0.00    -0.101 S 
ATOM     32  C   UNL     1       1.415   3.525  -0.001  0.00  0.00    +0.002 C 
ATOM     33  H   UNL     1       3.420   3.293   0.491  0.00  0.00    -0.080 HD
BRANCH  32  34
ATOM     34  C   UNL     1       1.201   2.033  -0.016  0.00  0.00    -0.019 A 
ATOM     35  C   UNL     1       0.038   1.337  -0.018  0.00  0.00    +0.010 A 
ATOM     36  C   UNL     1       0.084  -0.044  -0.034  0.00  0.00    +0.008 A 
ATOM     37  C   UNL     1       1.290  -0.662  -0.047  0.00  0.00    +0.045 A 
ATOM     38  S   UNL     1       2.415   0.724  -0.037  0.00  0.00    -0.103 S 
ENDBRANCH  32  34
ENDBRANCH  23  24
ENDBRANCH   2  23
TORSDOF 6
