REMARK  Name = ZINC12487922
REMARK  10 active torsions:
REMARK  status: ('A' for Active; 'I' for Inactive)
REMARK    1  A    between atoms: C_1  and  C_2
REMARK    2  A    between atoms: C_5  and  C_8
REMARK    3  A    between atoms: C_8  and  C_10
REMARK    4  A    between atoms: C_8  and  N_19
REMARK    5  A    between atoms: N_12  and  C_13
REMARK    6  A    between atoms: C_13  and  C_14
REMARK    7  A    between atoms: N_19  and  C_20
REMARK    8  A    between atoms: C_27  and  C_29
REMARK    9  A    between atoms: C_29  and  N_30
REMARK   10  A    between atoms: C_31  and  C_33
REMARK                            x       y       z     vdW  Elec       q    Type
REMARK                         _______ _______ _______ _____ _____    ______ ____
ROOT
ATOM      1  N   UNL     1       2.623   1.493   0.263  0.00  0.00    -0.254 N 
ATOM      2  C   UNL     1       2.713   0.758   1.389  0.00  0.00    +0.238 C 
ATOM      3  O   UNL     1       1.734   0.593   2.086  0.00  0.00    -0.274 OA
ENDROOT
BRANCH   1   4
ATOM      4  C   UNL     1       3.772   1.769  -0.487  0.00  0.00    +0.038 A 
ATOM      5  C   UNL     1       4.411   0.750  -1.180  0.00  0.00    +0.026 A 
ATOM      6  C   UNL     1       5.541   1.025  -1.925  0.00  0.00    +0.040 A 
ATOM      7  C   UNL     1       6.044   2.314  -1.971  0.00  0.00    +0.124 A 
ATOM      8  C   UNL     1       5.412   3.331  -1.275  0.00  0.00    +0.040 A 
ATOM      9  C   UNL     1       4.278   3.061  -0.535  0.00  0.00    +0.026 A 
ATOM     10  F   UNL     1       7.153   2.580  -2.696  0.00  0.00    -0.205 F 
ENDBRANCH   1   4
BRANCH   1  11
ATOM     11  C   UNL     1       1.322   2.004  -0.175  0.00  0.00    +0.197 C 
BRANCH  11  16
ATOM     12  C   UNL     1       2.049   5.432  -4.770  0.00  0.00    +0.044 C 
ATOM     13  C   UNL     1       1.859   4.538  -3.572  0.00  0.00    -0.050 A 
ATOM     14  C   UNL     1       1.243   5.027  -2.435  0.00  0.00    +0.004 A 
ATOM     15  C   UNL     1       1.069   4.207  -1.336  0.00  0.00    +0.006 A 
ATOM     16  C   UNL     1       1.511   2.898  -1.374  0.00  0.00    -0.018 A 
ATOM     17  C   UNL     1       2.131   2.410  -2.509  0.00  0.00    +0.006 A 
ATOM     18  C   UNL     1       2.300   3.228  -3.610  0.00  0.00    +0.004 A 
ENDBRANCH  11  16
BRANCH  11  19
ATOM     19  C   UNL     1       0.428   0.849  -0.546  0.00  0.00    +0.239 C 
ATOM     20  O   UNL     1       0.837  -0.289  -0.453  0.00  0.00    -0.273 OA
ATOM     21  N   UNL     1      -0.825   1.081  -0.986  0.00  0.00    -0.306 N 
ATOM     22  H   UNL     1      -1.152   1.991  -1.060  0.00  0.00    +0.149 HD
BRANCH  21  23
ATOM     23  C   UNL     1      -1.692  -0.042  -1.352  0.00  0.00    +0.178 C 
BRANCH  23  24
ATOM     24  C   UNL     1      -3.029   0.484  -1.809  0.00  0.00    +0.122 A 
ATOM     25  C   UNL     1      -3.357   0.808  -3.072  0.00  0.00    +0.046 A 
ATOM     26  C   UNL     1      -4.698   1.253  -3.046  0.00  0.00    +0.041 A 
ATOM     27  C   UNL     1      -5.110   1.175  -1.768  0.00  0.00    +0.195 A 
ATOM     28  O   UNL     1      -4.096   0.703  -1.024  0.00  0.00    -0.466 OA
ENDBRANCH  23  24
ENDBRANCH  21  23
ENDBRANCH  11  19
ENDBRANCH   1  11
BRANCH   2  29
ATOM     29  C   UNL     1       4.031   0.141   1.782  0.00  0.00    +0.201 C 
BRANCH  29  30
ATOM     30  N   UNL     1       3.847  -0.681   2.981  0.00  0.00    -0.302 N 
ATOM     31  C   UNL     1       4.896  -1.335   3.518  0.00  0.00    +0.251 C 
ATOM     32  O   UNL     1       5.997  -1.241   3.006  0.00  0.00    -0.270 OA
ATOM     33  H   UNL     1       2.970  -0.755   3.388  0.00  0.00    +0.150 HD
BRANCH  31  34
ATOM     34  C   UNL     1       4.712  -2.157   4.717  0.00  0.00    +0.074 A 
ATOM     35  C   UNL     1       5.647  -2.906   5.415  0.00  0.00    +0.021 A 
ATOM     36  C   UNL     1       5.202  -3.588   6.519  0.00  0.00    +0.008 A 
ATOM     37  C   UNL     1       3.891  -3.509   6.865  0.00  0.00    +0.046 A 
ATOM     38  S   UNL     1       3.225  -2.462   5.654  0.00  0.00    -0.092 S 
ENDBRANCH  31  34
ENDBRANCH  29  30
ENDBRANCH   2  29
TORSDOF 9
