REMARK  Name = ZINC03047125
REMARK  6 active torsions:
REMARK  status: ('A' for Active; 'I' for Inactive)
REMARK    1  A    between atoms: C_6  and  C_7
REMARK    2  A    between atoms: N_16  and  C_19
REMARK    3  A    between atoms: C_19  and  C_20
REMARK    4  A    between atoms: C_20  and  N_21
REMARK    5  A    between atoms: N_21  and  C_22
REMARK    6  A    between atoms: C_25  and  C_27
REMARK                            x       y       z     vdW  Elec       q    Type
REMARK                         _______ _______ _______ _____ _____    ______ ____
ROOT
ATOM      1  C   UNL     1      -2.604   1.421   0.720  0.00  0.00    +0.105 C 
ATOM      2  N   UNL     1      -2.841   1.448  -0.573  0.00  0.00    -0.248 NA
ATOM      3  C   UNL     1      -1.944   1.722  -1.514  0.00  0.00    +0.122 C 
ATOM      4  C   UNL     1      -0.616   1.649  -1.274  0.00  0.00    +0.055 C 
ATOM      5  C   UNL     1      -0.013   1.086   0.008  0.00  0.00    +0.175 C 
ATOM      6  S   UNL     1      -0.988   1.729   1.393  0.00  0.00    -0.088 S 
ATOM      7  C   UNL     1       1.382   1.659  -0.002  0.00  0.00    +0.240 C 
ATOM      8  O   UNL     1       2.175   1.651   0.914  0.00  0.00    -0.274 OA
ATOM      9  N   UNL     1       1.574   2.183  -1.230  0.00  0.00    -0.236 N 
ATOM     10  C   UNL     1       0.476   2.137  -2.000  0.00  0.00    +0.252 C 
ATOM     11  O   UNL     1       0.435   2.475  -3.170  0.00  0.00    -0.270 OA
ENDROOT
BRANCH   1  17
ATOM     12  C   UNL     1      -3.479   1.068   3.024  0.00  0.00    +0.012 A 
ATOM     13  C   UNL     1      -4.517   0.780   3.885  0.00  0.00    +0.020 A 
ATOM     14  C   UNL     1      -5.782   0.518   3.386  0.00  0.00    +0.041 A 
ATOM     15  C   UNL     1      -6.016   0.550   2.021  0.00  0.00    +0.020 A 
ATOM     16  C   UNL     1      -4.988   0.843   1.149  0.00  0.00    +0.012 A 
ATOM     17  C   UNL     1      -3.709   1.107   1.646  0.00  0.00    +0.007 A 
ATOM     18 CL   UNL     1      -7.082   0.149   4.476  0.00  0.00    -0.084 Cl
ENDBRANCH   1  17
BRANCH   9  19
ATOM     19  C   UNL     1       2.852   2.743  -1.678  0.00  0.00    +0.135 C 
BRANCH  19  20
ATOM     20  C   UNL     1       3.694   1.641  -2.324  0.00  0.00    +0.122 C 
BRANCH  20  21
ATOM     21  N   UNL     1       4.971   2.202  -2.772  0.00  0.00    -0.328 N 
ATOM     22  H   UNL     1       5.162   3.143  -2.634  0.00  0.00    +0.147 HD
BRANCH  21  23
ATOM     23  C   UNL     1       5.909   1.385  -3.394  0.00  0.00    +0.115 A 
ATOM     24  C   UNL     1       7.119   1.926  -3.822  0.00  0.00    +0.079 A 
ATOM     25  C   UNL     1       8.045   1.100  -4.434  0.00  0.00    +0.037 A 
ATOM     26  C   UNL     1       7.725  -0.240  -4.608  0.00  0.00    +0.072 A 
ATOM     27  C   UNL     1       6.504  -0.707  -4.164  0.00  0.00    +0.096 A 
ATOM     28 CL   UNL     1       7.463   3.611  -3.585  0.00  0.00    -0.080 Cl
ATOM     29  N   UNL     1       5.573   0.073  -3.554  0.00  0.00    -0.348 N 
ATOM     30  H   UNL     1       4.672  -0.302  -3.233  0.00  0.00    +0.167 HD
BRANCH  26  31
ATOM     31  C   UNL     1       8.700  -1.175  -5.276  0.00  0.00    +0.419 C 
ATOM     32  F   UNL     1       8.150  -2.460  -5.333  0.00  0.00    -0.166 F 
ATOM     33  F   UNL     1       8.965  -0.724  -6.574  0.00  0.00    -0.166 F 
ATOM     34  F   UNL     1       9.890  -1.209  -4.542  0.00  0.00    -0.166 F 
ENDBRANCH  26  31
ENDBRANCH  21  23
ENDBRANCH  20  21
ENDBRANCH  19  20
ENDBRANCH   9  19
TORSDOF 6
