REMARK  Name = ZINC36053129
REMARK  11 active torsions:
REMARK  status: ('A' for Active; 'I' for Inactive)
REMARK    1  A    between atoms: C_1  and  C_2
REMARK    2  A    between atoms: C_7  and  C_8
REMARK    3  A    between atoms: C_10  and  C_30
REMARK    4  A    between atoms: C_11  and  C_29
REMARK    5  A    between atoms: C_15  and  C_18
REMARK    6  A    between atoms: C_19  and  N_21
REMARK    7  A    between atoms: N_21  and  C_22
REMARK    8  A    between atoms: C_22  and  C_23
REMARK    9  A    between atoms: C_30  and  O_32
REMARK   10  A    between atoms: O_32  and  C_33
REMARK   11  A    between atoms: C_33  and  C_34
REMARK                            x       y       z     vdW  Elec       q    Type
REMARK                         _______ _______ _______ _____ _____    ______ ____
ROOT
ATOM      1  C   UNL     1      -0.090   0.317   2.875  0.00  0.00    +0.150 C 
ATOM      2  C   UNL     1       1.268   0.971   2.761  0.00  0.00    +0.083 C 
ATOM      3  C   UNL     1       2.178   0.748   3.776  0.00  0.00    +0.053 C 
ATOM      4  N   UNL     1       1.858  -0.015   4.809  0.00  0.00    -0.230 NA
ATOM      5  C   UNL     1       0.695  -0.613   4.969  0.00  0.00    +0.166 C 
ATOM      6  N   UNL     1      -0.339  -0.520   4.080  0.00  0.00    -0.267 N 
ATOM      7  C   UNL     1      -1.495  -1.207   4.391  0.00  0.00    +0.048 C 
ATOM      8  C   UNL     1      -1.514  -1.914   5.542  0.00  0.00    +0.072 C 
ATOM      9  S   UNL     1       0.114  -1.604   6.192  0.00  0.00    -0.060 S 
ATOM     10  C   UNL     1       3.546   1.378   3.708  0.00  0.00    +0.066 C 
ENDROOT
BRANCH   1  17
ATOM     11  C   UNL     1      -1.983   1.102   0.839  0.00  0.00    +0.044 C 
ATOM     12  C   UNL     1      -1.197  -0.174   0.685  0.00  0.00    -0.045 A 
ATOM     13  C   UNL     1      -1.378  -0.967  -0.433  0.00  0.00    +0.004 A 
ATOM     14  C   UNL     1      -0.657  -2.138  -0.575  0.00  0.00    +0.000 A 
ATOM     15  C   UNL     1       0.244  -2.516   0.402  0.00  0.00    +0.000 A 
ATOM     16  C   UNL     1       0.426  -1.724   1.520  0.00  0.00    +0.006 A 
ATOM     17  C   UNL     1      -0.292  -0.550   1.659  0.00  0.00    -0.019 A 
ENDBRANCH   1  17
BRANCH   7  18
ATOM     18  C   UNL     1      -2.664  -1.171   3.500  0.00  0.00    +0.091 C 
ATOM     19  C   UNL     1      -3.820  -1.748   3.882  0.00  0.00    +0.239 C 
ATOM     20  O   UNL     1      -3.942  -2.257   5.133  0.00  0.00    -0.271 OA
BRANCH  19  21
ATOM     21  N   UNL     1      -4.882  -1.822   2.998  0.00  0.00    -0.306 N 
ATOM     22  H   UNL     1      -4.795  -1.458   2.103  0.00  0.00    +0.149 HD
BRANCH  21  23
ATOM     23  C   UNL     1      -6.139  -2.449   3.413  0.00  0.00    +0.160 C 
BRANCH  23  24
ATOM     24  C   UNL     1      -7.126  -2.400   2.275  0.00  0.00    +0.058 A 
ATOM     25  C   UNL     1      -7.249  -3.487   1.430  0.00  0.00    +0.025 A 
ATOM     26  C   UNL     1      -8.159  -3.432   0.387  0.00  0.00    +0.003 A 
ATOM     27  C   UNL     1      -8.915  -2.279   0.231  0.00  0.00    +0.020 A 
ATOM     28  C   UNL     1      -8.737  -1.232   1.115  0.00  0.00    +0.111 A 
ATOM     29  N   UNL     1      -7.865  -1.322   2.100  0.00  0.00    -0.258 NA
ENDBRANCH  23  24
ENDBRANCH  21  23
ENDBRANCH  19  21
ENDBRANCH   7  18
BRANCH   2  30
ATOM     30  C   UNL     1       1.593   1.775   1.662  0.00  0.00    +0.339 C 
ATOM     31  O   UNL     1       2.720   2.226   1.549  0.00  0.00    -0.245 OA
BRANCH  30  32
ATOM     32  O   UNL     1       0.658   2.051   0.726  0.00  0.00    -0.457 OA
BRANCH  32  33
ATOM     33  C   UNL     1       1.087   2.785  -0.423  0.00  0.00    +0.259 C 
BRANCH  33  34
ATOM     34  C   UNL     1      -0.105   3.102  -1.289  0.00  0.00    +0.006 C 
ATOM     35  C   UNL     1      -0.250   4.304  -1.789  0.00  0.00    +0.007 C 
ENDBRANCH  33  34
ENDBRANCH  32  33
ENDBRANCH  30  32
ENDBRANCH   2  30
TORSDOF 9
