REMARK  Name = ZINC15223892
REMARK  5 active torsions:
REMARK  status: ('A' for Active; 'I' for Inactive)
REMARK    1  A    between atoms: C_1  and  C_2
REMARK    2  A    between atoms: C_9  and  C_11
REMARK    3  A    between atoms: N_13  and  N_14
REMARK    4  A    between atoms: C_15  and  C_16
REMARK    5  A    between atoms: C_21  and  O_22
REMARK                            x       y       z     vdW  Elec       q    Type
REMARK                         _______ _______ _______ _____ _____    ______ ____
ROOT
ATOM      1  C   UNL     1      -2.211  -0.374   2.196  0.00  0.00    +0.236 C 
ATOM      2  O   UNL     1      -2.497   0.009   3.310  0.00  0.00    -0.274 OA
ATOM      3  N   UNL     1      -2.140  -1.695   1.935  0.00  0.00    -0.207 N 
ATOM      4  H   UNL     1      -1.912  -2.002   1.044  0.00  0.00    +0.177 HD
ENDROOT
BRANCH   1  12
ATOM      5  C   UNL     1       0.152   1.232   2.488  0.00  0.00    +0.012 C 
ATOM      6  C   UNL     1      -0.684   1.483   1.232  0.00  0.00    -0.017 C 
ATOM      7  C   UNL     1       0.123   1.837  -0.008  0.00  0.00    +0.008 C 
ATOM      8  C   UNL     1      -0.792   2.380  -1.105  0.00  0.00    +0.001 C 
ATOM      9  C   UNL     1      -1.589   3.560  -0.537  0.00  0.00    +0.000 C 
ATOM     10  C   UNL     1      -2.672   3.014   0.392  0.00  0.00    +0.005 C 
ATOM     11  C   UNL     1      -2.048   2.116   1.458  0.00  0.00    +0.008 C 
ATOM     12  C   UNL     1      -1.935   0.625   1.102  0.00  0.00    +0.086 C 
ENDBRANCH   1  12
BRANCH   3  13
ATOM     13  N   UNL     1      -2.397  -2.624   2.951  0.00  0.00    -0.188 NA
ATOM     14  C   UNL     1      -2.328  -3.896   2.700  0.00  0.00    +0.142 C 
BRANCH  14  15
ATOM     15  C   UNL     1      -2.598  -4.874   3.769  0.00  0.00    +0.037 A 
ATOM     16  C   UNL     1      -2.526  -6.243   3.503  0.00  0.00    +0.028 A 
ATOM     17  C   UNL     1      -2.779  -7.153   4.509  0.00  0.00    +0.019 A 
ATOM     18  C   UNL     1      -3.104  -6.714   5.782  0.00  0.00    +0.019 A 
ATOM     19  C   UNL     1      -3.179  -5.362   6.057  0.00  0.00    +0.047 A 
ATOM     20  C   UNL     1      -2.923  -4.435   5.060  0.00  0.00    +0.126 A 
ATOM     21 BR   UNL     1      -2.681  -9.007   4.149  0.00  0.00    -0.050 Br
BRANCH  20  22
ATOM     22  O   UNL     1      -2.991  -3.106   5.331  0.00  0.00    -0.506 OA
ATOM     23  H   UNL     1      -3.867  -2.721   5.194  0.00  0.00    +0.292 HD
ENDBRANCH  20  22
ENDBRANCH  14  15
ENDBRANCH   3  13
TORSDOF 4
