REMARK  Name = ZINC09704406
REMARK  7 active torsions:
REMARK  status: ('A' for Active; 'I' for Inactive)
REMARK    1  A    between atoms: C_1  and  C_2
REMARK    2  A    between atoms: C_2  and  O_3
REMARK    3  A    between atoms: O_3  and  C_4
REMARK    4  A    between atoms: C_7  and  C_9
REMARK    5  A    between atoms: C_13  and  N_14
REMARK    6  A    between atoms: C_15  and  C_17
REMARK    7  A    between atoms: C_23  and  C_27
REMARK                            x       y       z     vdW  Elec       q    Type
REMARK                         _______ _______ _______ _____ _____    ______ ____
ROOT
ATOM      1  C   UNL     1       2.166   0.883  -3.672  0.00  0.00    +0.069 A 
ATOM      2  C   UNL     1       1.339   1.061  -2.490  0.00  0.00    -0.023 A 
ATOM      3  C   UNL     1       2.009   1.379  -1.361  0.00  0.00    -0.004 A 
ATOM      4  S   UNL     1       3.710   1.446  -1.848  0.00  0.00    -0.077 S 
ATOM      5  C   UNL     1       3.537   1.056  -3.527  0.00  0.00    +0.085 A 
ATOM      6  C   UNL     1       1.427   1.620  -0.003  0.00  0.00    +0.046 C 
ATOM      7  C   UNL     1      -0.013   1.086   0.008  0.00  0.00    -0.009 C 
ATOM      8  C   UNL     1      -0.738   1.596  -1.241  0.00  0.00    +0.008 C 
ATOM      9  C   UNL     1      -0.177   0.908  -2.486  0.00  0.00    +0.037 C 
ATOM     10  C   UNL     1      -0.734   1.582   1.262  0.00  0.00    +0.008 C 
ENDROOT
BRANCH   1  14
ATOM     11  C   UNL     1       0.647   1.191  -7.006  0.00  0.00    +0.407 C 
ATOM     12  O   UNL     1       0.506   0.025  -7.316  0.00  0.00    -0.226 OA
ATOM     13  N   UNL     1       1.189   1.510  -5.814  0.00  0.00    -0.217 N 
ATOM     14  C   UNL     1       1.576   0.536  -4.967  0.00  0.00    +0.255 C 
ATOM     15  O   UNL     1       1.436  -0.632  -5.278  0.00  0.00    -0.270 OA
ATOM     16  H   UNL     1       1.301   2.442  -5.566  0.00  0.00    +0.161 HD
BRANCH  11  17
ATOM     17  O   UNL     1       0.260   2.164  -7.852  0.00  0.00    -0.450 OA
BRANCH  17  19
ATOM     18  C   UNL     1      -0.692   2.982  -9.939  0.00  0.00    +0.048 C 
ATOM     19  C   UNL     1      -0.316   1.747  -9.117  0.00  0.00    +0.230 C 
ENDBRANCH  17  19
ENDBRANCH  11  17
ENDBRANCH   1  14
BRANCH   5  20
ATOM     20  N   UNL     1       4.524   0.944  -4.491  0.00  0.00    -0.273 N 
ATOM     21  C   UNL     1       5.815   1.149  -4.160  0.00  0.00    +0.287 C 
ATOM     22  O   UNL     1       6.112   1.433  -3.016  0.00  0.00    -0.266 OA
ATOM     23  H   UNL     1       4.288   0.717  -5.404  0.00  0.00    +0.156 HD
BRANCH  21  24
ATOM     24  C   UNL     1       6.867   1.029  -5.186  0.00  0.00    +0.222 A 
ATOM     25  C   UNL     1       8.212   1.212  -5.011  0.00  0.00    +0.077 A 
ATOM     26  C   UNL     1       8.755   0.977  -6.293  0.00  0.00    +0.157 A 
ATOM     27  N   UNL     1       7.753   0.702  -7.077  0.00  0.00    -0.086 NA
ATOM     28  O   UNL     1       6.698   0.725  -6.487  0.00  0.00    -0.350 OA
ENDBRANCH  21  24
ENDBRANCH   5  20
TORSDOF 5
