REMARK  Name = ZINC63752613
REMARK  7 active torsions:
REMARK  status: ('A' for Active; 'I' for Inactive)
REMARK    1  A    between atoms: C_1  and  O_2
REMARK    2  A    between atoms: O_2  and  C_3
REMARK    3  A    between atoms: C_8  and  C_9
REMARK    4  A    between atoms: C_9  and  N_10
REMARK    5  A    between atoms: C_11  and  C_13
REMARK    6  A    between atoms: C_15  and  N_23
REMARK    7  A    between atoms: C_24  and  C_26
REMARK                            x       y       z     vdW  Elec       q    Type
REMARK                         _______ _______ _______ _____ _____    ______ ____
ROOT
ATOM      1  C   UNL     1       2.332  -3.659   3.445  0.00  0.00    +0.211 C 
ATOM      2  C   UNL     1       3.066  -2.357   3.216  0.00  0.00    +0.051 C 
ATOM      3  C   UNL     1       4.366  -2.711   2.892  0.00  0.00    +0.018 A 
ATOM      4  C   UNL     1       5.513  -1.945   2.574  0.00  0.00    +0.011 A 
ATOM      5  C   UNL     1       6.681  -2.571   2.291  0.00  0.00    +0.001 A 
ATOM      6  C   UNL     1       6.788  -3.965   2.306  0.00  0.00    +0.002 A 
ATOM      7  C   UNL     1       5.732  -4.760   2.602  0.00  0.00    +0.026 A 
ATOM      8  C   UNL     1       4.474  -4.179   2.909  0.00  0.00    +0.045 A 
ATOM      9  N   UNL     1       3.315  -4.724   3.224  0.00  0.00    -0.369 N 
ATOM     10  H   UNL     1       3.141  -5.675   3.299  0.00  0.00    +0.161 HD
ENDROOT
BRANCH   1  12
ATOM     11  N   UNL     1       0.026  -3.162   2.699  0.00  0.00    -0.309 N 
ATOM     12  C   UNL     1       1.194  -3.792   2.465  0.00  0.00    +0.241 C 
ATOM     13  O   UNL     1       1.330  -4.466   1.466  0.00  0.00    -0.273 OA
ATOM     14  H   UNL     1      -0.083  -2.623   3.497  0.00  0.00    +0.149 HD
BRANCH  11  15
ATOM     15  C   UNL     1      -1.079  -3.292   1.746  0.00  0.00    +0.143 C 
BRANCH  15  21
ATOM     16  C   UNL     1      -2.303  -1.123   2.045  0.00  0.00    +0.125 A 
ATOM     17  C   UNL     1      -3.395  -0.395   2.494  0.00  0.00    +0.046 A 
ATOM     18  C   UNL     1      -4.436  -1.037   3.135  0.00  0.00    +0.004 A 
ATOM     19  C   UNL     1      -4.390  -2.405   3.330  0.00  0.00    +0.001 A 
ATOM     20  C   UNL     1      -3.303  -3.134   2.885  0.00  0.00    +0.009 A 
ATOM     21  C   UNL     1      -2.261  -2.496   2.237  0.00  0.00    +0.011 A 
BRANCH  16  23
ATOM     22  C   UNL     1      -1.387   0.922   1.250  0.00  0.00    +0.277 C 
ATOM     23  O   UNL     1      -1.277  -0.493   1.413  0.00  0.00    -0.495 OA
ENDBRANCH  16  23
ENDBRANCH  15  21
ENDBRANCH  11  15
ENDBRANCH   1  12
BRANCH   2  24
ATOM     24  N   UNL     1       2.556  -1.099   3.309  0.00  0.00    -0.282 N 
ATOM     25  C   UNL     1       3.345  -0.080   3.704  0.00  0.00    +0.248 C 
ATOM     26  O   UNL     1       4.519  -0.278   3.945  0.00  0.00    -0.270 OA
ATOM     27  H   UNL     1       1.625  -0.936   3.091  0.00  0.00    +0.155 HD
BRANCH  25  28
ATOM     28  C   UNL     1       2.781   1.278   3.844  0.00  0.00    +0.037 A 
ATOM     29  C   UNL     1       1.430   1.508   3.574  0.00  0.00    +0.014 A 
ATOM     30  C   UNL     1       0.910   2.778   3.707  0.00  0.00    +0.021 A 
ATOM     31  C   UNL     1       1.724   3.825   4.107  0.00  0.00    +0.041 A 
ATOM     32  C   UNL     1       3.065   3.603   4.377  0.00  0.00    +0.021 A 
ATOM     33  C   UNL     1       3.595   2.337   4.253  0.00  0.00    +0.014 A 
ATOM     34 CL   UNL     1       1.061   5.421   4.272  0.00  0.00    -0.084 Cl
ENDBRANCH  25  28
ENDBRANCH   2  24
TORSDOF 6
