REMARK  Name = ZINC09152121
REMARK  12 active torsions:
REMARK  status: ('A' for Active; 'I' for Inactive)
REMARK    1  A    between atoms: C_1  and  C_2
REMARK    2  A    between atoms: C_6  and  N_9
REMARK    3  A    between atoms: C_7  and  C_8
REMARK    4  A    between atoms: C_10  and  C_12
REMARK    5  A    between atoms: C_12  and  S_13
REMARK    6  A    between atoms: S_13  and  C_14
REMARK    7  A    between atoms: C_17  and  S_21
REMARK    8  A    between atoms: C_18  and  N_20
REMARK    9  A    between atoms: S_21  and  C_24
REMARK   10  A    between atoms: C_27  and  C_30
REMARK   11  A    between atoms: C_30  and  C_31
REMARK   12  A    between atoms: C_30  and  C_32
REMARK                            x       y       z     vdW  Elec       q    Type
REMARK                         _______ _______ _______ _____ _____    ______ ____
ROOT
ATOM      1  C   UNL     1       0.755   5.286   4.176  0.00  0.00    +0.190 A 
ATOM      2  N   UNL     1       1.833   5.572   3.459  0.00  0.00    -0.228 NA
ATOM      3  C   UNL     1       1.956   5.141   2.213  0.00  0.00    +0.144 A 
ATOM      4  C   UNL     1       0.943   4.385   1.656  0.00  0.00    +0.151 A 
ATOM      5  C   UNL     1      -0.183   4.104   2.433  0.00  0.00    +0.146 A 
ATOM      6  N   UNL     1      -0.238   4.564   3.679  0.00  0.00    -0.205 NA
ENDROOT
BRANCH   5   7
ATOM      7  N   UNL     1      -1.226   3.354   1.913  0.00  0.00    -0.342 N 
ATOM      8  H   UNL     1      -1.161   2.988   1.018  0.00  0.00    +0.144 HD
ATOM      9  H   UNL     1      -2.021   3.195   2.446  0.00  0.00    +0.144 HD
ENDBRANCH   5   7
BRANCH   4  10
ATOM     10  S   UNL     1       1.066   3.793   0.001  0.00  0.00    +0.030 S 
ATOM     11  O   UNL     1       2.325   4.229  -0.494  0.00  0.00    -0.164 OA
ATOM     12  O   UNL     1      -0.159   4.120  -0.640  0.00  0.00    -0.164 OA
BRANCH  10  13
ATOM     13  C   UNL     1       1.139   2.034   0.081  0.00  0.00    +0.094 A 
ATOM     14  C   UNL     1      -0.010   1.286  -0.097  0.00  0.00    +0.027 A 
ATOM     15  C   UNL     1       0.047  -0.094  -0.035  0.00  0.00    +0.006 A 
ATOM     16  C   UNL     1       1.253  -0.726   0.205  0.00  0.00    -0.045 A 
ATOM     17  C   UNL     1       2.402   0.022   0.382  0.00  0.00    +0.006 A 
ATOM     18  C   UNL     1       2.345   1.402   0.319  0.00  0.00    +0.027 A 
BRANCH  16  19
ATOM     19  C   UNL     1       1.315  -2.230   0.274  0.00  0.00    +0.013 C 
ATOM     20  C   UNL     1       2.265  -2.751  -0.807  0.00  0.00    +0.012 C 
ATOM     21  C   UNL     1       1.826  -2.657   1.651  0.00  0.00    +0.012 C 
ENDBRANCH  16  19
ENDBRANCH  10  13
ENDBRANCH   4  10
BRANCH   1  22
ATOM     22  S   UNL     1       0.639   5.883   5.830  0.00  0.00    -0.077 S 
BRANCH  22  23
ATOM     23  C   UNL     1       2.214   6.766   5.956  0.00  0.00    +0.173 C 
BRANCH  23  25
ATOM     24  N   UNL     1       3.437   8.088   7.652  0.00  0.00    -0.285 N 
ATOM     25  C   UNL     1       2.338   7.378   7.327  0.00  0.00    +0.227 C 
ATOM     26  O   UNL     1       1.450   7.231   8.140  0.00  0.00    -0.275 OA
ATOM     27  H   UNL     1       4.117   8.262   6.982  0.00  0.00    +0.155 HD
BRANCH  24  33
ATOM     28  C   UNL     1       6.398   9.267  11.395  0.00  0.00    +0.044 C 
ATOM     29  C   UNL     1       5.021   9.156  10.793  0.00  0.00    -0.046 A 
ATOM     30  C   UNL     1       3.913   9.536  11.529  0.00  0.00    +0.004 A 
ATOM     31  C   UNL     1       2.648   9.435  10.981  0.00  0.00    +0.002 A 
ATOM     32  C   UNL     1       2.487   8.956   9.695  0.00  0.00    +0.023 A 
ATOM     33  C   UNL     1       3.597   8.574   8.954  0.00  0.00    +0.037 A 
ATOM     34  C   UNL     1       4.866   8.670   9.510  0.00  0.00    -0.026 A 
ATOM     35  C   UNL     1       6.073   8.251   8.711  0.00  0.00    +0.046 C 
ENDBRANCH  24  33
ENDBRANCH  23  25
ENDBRANCH  22  23
ENDBRANCH   1  22
TORSDOF 8
