REMARK  Name = ZINC12037387
REMARK  10 active torsions:
REMARK  status: ('A' for Active; 'I' for Inactive)
REMARK    1  A    between atoms: C_1  and  C_2
REMARK    2  A    between atoms: C_5  and  C_8
REMARK    3  A    between atoms: N_10  and  C_11
REMARK    4  A    between atoms: N_10  and  C_20
REMARK    5  A    between atoms: C_11  and  C_12
REMARK    6  A    between atoms: C_15  and  O_18
REMARK    7  A    between atoms: O_18  and  C_19
REMARK    8  A    between atoms: C_20  and  C_21
REMARK    9  A    between atoms: C_29  and  N_30
REMARK   10  A    between atoms: C_33  and  O_36
REMARK                            x       y       z     vdW  Elec       q    Type
REMARK                         _______ _______ _______ _____ _____    ______ ____
ROOT
ATOM      1  C   UNL     1       0.779   2.680  -0.391  0.00  0.00    +0.147 C 
ENDROOT
BRANCH   1   2
ATOM      2  C   UNL     1       1.178   3.266   0.939  0.00  0.00    +0.009 A 
ATOM      3  C   UNL     1       2.152   4.216   1.001  0.00  0.00    +0.018 A 
ATOM      4  C   UNL     1       2.496   4.739   2.264  0.00  0.00    -0.001 A 
ATOM      5  C   UNL     1       3.490   5.721   2.400  0.00  0.00    +0.013 A 
ATOM      6  C   UNL     1       3.797   6.203   3.635  0.00  0.00    +0.039 A 
ATOM      7  C   UNL     1       3.135   5.735   4.770  0.00  0.00    +0.125 A 
ATOM      8  C   UNL     1       2.163   4.783   4.673  0.00  0.00    +0.064 A 
ATOM      9  C   UNL     1       1.821   4.262   3.415  0.00  0.00    +0.050 A 
ATOM     10  C   UNL     1       0.546   2.835   2.114  0.00  0.00    +0.104 A 
ATOM     11  F   UNL     1       3.460   6.233   5.983  0.00  0.00    -0.205 F 
ATOM     12  N   UNL     1       0.836   3.302   3.354  0.00  0.00    -0.343 N 
ATOM     13  H   UNL     1       0.351   2.961   4.193  0.00  0.00    +0.167 HD
BRANCH  10  14
ATOM     14  N   UNL     1      -0.444   1.867   2.035  0.00  0.00    -0.316 N 
ATOM     15  C   UNL     1       0.132   0.518   2.100  0.00  0.00    +0.109 C 
ATOM     16  C   UNL     1      -0.968  -0.519   1.864  0.00  0.00    +0.050 C 
ATOM     17  C   UNL     1      -2.055  -0.356   2.931  0.00  0.00    +0.118 C 
ATOM     18  C   UNL     1      -2.604   1.072   2.873  0.00  0.00    +0.050 C 
ATOM     19  C   UNL     1      -1.457   2.064   3.080  0.00  0.00    +0.109 C 
BRANCH  17  20
ATOM     20  O   UNL     1      -3.112  -1.284   2.682  0.00  0.00    -0.392 OA
ATOM     21  H   UNL     1      -2.835  -2.211   2.703  0.00  0.00    +0.210 HD
ENDBRANCH  17  20
ENDBRANCH  10  14
ENDBRANCH   1   2
BRANCH   1  24
ATOM     22  C   UNL     1      -0.152   4.330  -1.923  0.00  0.00    +0.247 C 
ATOM     23  O   UNL     1      -0.036   5.104  -2.854  0.00  0.00    -0.270 OA
ATOM     24  N   UNL     1       0.932   3.694  -1.437  0.00  0.00    -0.289 N 
BRANCH  22  29
ATOM     25  C   UNL     1      -5.328   3.385   0.406  0.00  0.00    +0.044 C 
ATOM     26  C   UNL     1      -3.973   3.633  -0.204  0.00  0.00    -0.050 A 
ATOM     27  C   UNL     1      -3.877   4.095  -1.505  0.00  0.00    +0.004 A 
ATOM     28  C   UNL     1      -2.639   4.323  -2.069  0.00  0.00    +0.013 A 
ATOM     29  C   UNL     1      -1.482   4.088  -1.325  0.00  0.00    +0.037 A 
ATOM     30  C   UNL     1      -1.585   3.618  -0.015  0.00  0.00    +0.013 A 
ATOM     31  C   UNL     1      -2.829   3.398   0.539  0.00  0.00    +0.004 A 
ENDBRANCH  22  29
BRANCH  24  32
ATOM     32  C   UNL     1       2.264   4.017  -1.955  0.00  0.00    +0.143 C 
BRANCH  32  33
ATOM     33  C   UNL     1       2.512   3.241  -3.223  0.00  0.00    -0.030 A 
ATOM     34  C   UNL     1       2.994   1.947  -3.157  0.00  0.00    +0.009 A 
ATOM     35  C   UNL     1       3.217   1.232  -4.318  0.00  0.00    +0.046 A 
ATOM     36  C   UNL     1       2.966   1.817  -5.551  0.00  0.00    +0.120 A 
ATOM     37  C   UNL     1       2.488   3.118  -5.614  0.00  0.00    +0.046 A 
ATOM     38  C   UNL     1       2.262   3.827  -4.450  0.00  0.00    +0.009 A 
BRANCH  36  39
ATOM     39  O   UNL     1       3.189   1.117  -6.694  0.00  0.00    -0.495 OA
ATOM     40  C   UNL     1       3.682  -0.216  -6.553  0.00  0.00    +0.277 C 
ENDBRANCH  36  39
ENDBRANCH  32  33
ENDBRANCH  24  32
ENDBRANCH   1  24
TORSDOF 8
