REMARK  Name = ZINC11130107
REMARK  8 active torsions:
REMARK  status: ('A' for Active; 'I' for Inactive)
REMARK    1  A    between atoms: C_1  and  C_2
REMARK    2  A    between atoms: C_5  and  S_8
REMARK    3  A    between atoms: S_8  and  N_11
REMARK    4  A    between atoms: C_14  and  C_17
REMARK    5  A    between atoms: N_19  and  C_20
REMARK    6  A    between atoms: C_21  and  C_29
REMARK    7  A    between atoms: C_32  and  O_34
REMARK    8  A    between atoms: O_34  and  C_35
REMARK                            x       y       z     vdW  Elec       q    Type
REMARK                         _______ _______ _______ _____ _____    ______ ____
ROOT
ATOM      1  C   UNL     1       0.828  -1.999  -1.218  0.00  0.00    +0.221 C 
ATOM      2  O   UNL     1       0.219  -2.621  -0.373  0.00  0.00    -0.275 OA
ATOM      3  N   UNL     1       1.500  -2.656  -2.184  0.00  0.00    -0.279 N 
ATOM      4  H   UNL     1       1.986  -2.158  -2.860  0.00  0.00    +0.155 HD
ENDROOT
BRANCH   3   5
ATOM      5  C   UNL     1       1.495  -4.041  -2.213  0.00  0.00    +0.084 A 
ATOM      6  C   UNL     1       2.120  -4.888  -3.119  0.00  0.00    +0.069 A 
ATOM      7  C   UNL     1       1.956  -6.319  -2.924  0.00  0.00    -0.023 A 
ATOM      8  C   UNL     1       1.198  -6.671  -1.863  0.00  0.00    -0.004 A 
ATOM      9  S   UNL     1       0.713  -5.138  -1.123  0.00  0.00    -0.077 S 
ATOM     10  C   UNL     1       0.858  -8.060  -1.418  0.00  0.00    +0.043 C 
ATOM     11  C   UNL     1       1.186  -9.029  -2.563  0.00  0.00    +0.005 C 
ATOM     12  C   UNL     1       2.589  -8.713  -3.089  0.00  0.00    +0.005 C 
ATOM     13  C   UNL     1       2.578  -7.374  -3.829  0.00  0.00    +0.037 C 
BRANCH   6  14
ATOM     14  C   UNL     1       2.915  -4.359  -4.229  0.00  0.00    +0.255 C 
ATOM     15  O   UNL     1       4.106  -4.155  -4.082  0.00  0.00    -0.270 OA
ATOM     16  N   UNL     1       2.329  -4.098  -5.414  0.00  0.00    -0.217 N 
ATOM     17  C   UNL     1       3.060  -3.611  -6.436  0.00  0.00    +0.407 C 
ATOM     18  O   UNL     1       4.249  -3.407  -6.289  0.00  0.00    -0.226 OA
ATOM     19  H   UNL     1       1.379  -4.261  -5.532  0.00  0.00    +0.161 HD
BRANCH  17  20
ATOM     20  O   UNL     1       2.474  -3.351  -7.620  0.00  0.00    -0.453 OA
ATOM     21  C   UNL     1       3.324  -2.828  -8.675  0.00  0.00    +0.282 C 
ENDBRANCH  17  20
ENDBRANCH   6  14
ENDBRANCH   3   5
BRANCH   1  25
ATOM     22  N   UNL     1       1.366   2.019  -0.000  0.00  0.00    -0.177 NA
ATOM     23  C   UNL     1      -0.019   1.528   0.010  0.00  0.00    +0.110 C 
ATOM     24  C   UNL     1       0.002  -0.004   0.002  0.00  0.00    +0.030 C 
ATOM     25  C   UNL     1       0.834  -0.492  -1.186  0.00  0.00    +0.078 C 
ATOM     26  C   UNL     1       2.272   0.009  -1.045  0.00  0.00    +0.030 C 
ATOM     27  C   UNL     1       2.277   1.541  -1.048  0.00  0.00    +0.110 C 
BRANCH  22  28
ATOM     28  S   UNL     1       1.889   3.092   1.148  0.00  0.00    +0.061 S 
ATOM     29  O   UNL     1       2.997   3.781   0.585  0.00  0.00    -0.153 OA
ATOM     30  O   UNL     1       0.735   3.768   1.628  0.00  0.00    -0.153 OA
BRANCH  28  35
ATOM     31  C   UNL     1       4.039  -0.144   5.765  0.00  0.00    +0.044 C 
ATOM     32  C   UNL     1       3.502   0.665   4.612  0.00  0.00    -0.050 A 
ATOM     33  C   UNL     1       4.342   1.041   3.581  0.00  0.00    +0.005 A 
ATOM     34  C   UNL     1       3.850   1.783   2.523  0.00  0.00    +0.029 A 
ATOM     35  C   UNL     1       2.517   2.147   2.496  0.00  0.00    +0.105 A 
ATOM     36  C   UNL     1       1.677   1.774   3.529  0.00  0.00    +0.029 A 
ATOM     37  C   UNL     1       2.169   1.029   4.585  0.00  0.00    +0.005 A 
ENDBRANCH  28  35
ENDBRANCH  22  28
ENDBRANCH   1  25
TORSDOF 6
