REMARK  Name = ZINC12453581
REMARK  9 active torsions:
REMARK  status: ('A' for Active; 'I' for Inactive)
REMARK    1  A    between atoms: C_1  and  C_2
REMARK    2  A    between atoms: C_5  and  C_9
REMARK    3  A    between atoms: C_6  and  C_8
REMARK    4  A    between atoms: N_11  and  C_12
REMARK    5  A    between atoms: C_15  and  N_18
REMARK    6  A    between atoms: C_21  and  N_76
REMARK    7  A    between atoms: C_26  and  C_29
REMARK    8  A    between atoms: C_29  and  C_31
REMARK    9  A    between atoms: C_29  and  O_37
REMARK                            x       y       z     vdW  Elec       q    Type
REMARK                         _______ _______ _______ _____ _____    ______ ____
ROOT
ATOM      1  N   UNL     1       4.524   4.657  -7.930  0.00  0.00    -0.330 N 
ATOM      2  C   UNL     1       5.558   3.798  -7.337  0.00  0.00    +0.103 C 
ATOM      3  C   UNL     1       5.129   3.381  -5.928  0.00  0.00    +0.004 C 
ATOM      4  C   UNL     1       4.925   4.633  -5.070  0.00  0.00    -0.066 C 
ATOM      5  C   UNL     1       3.880   5.534  -5.734  0.00  0.00    +0.004 C 
ATOM      6  C   UNL     1       4.344   5.887  -7.149  0.00  0.00    +0.103 C 
ENDROOT
BRANCH   4  12
ATOM      7  C   UNL     1       4.361   5.408  -2.847  0.00  0.00    -0.078 C 
ATOM      8  C   UNL     1       4.013   4.946  -1.430  0.00  0.00    -0.012 C 
ATOM      9  C   UNL     1       2.682   4.191  -1.457  0.00  0.00    +0.019 C 
ATOM     10  C   UNL     1       2.793   3.009  -2.425  0.00  0.00    -0.012 C 
ATOM     11  C   UNL     1       3.177   3.527  -3.813  0.00  0.00    -0.078 C 
ATOM     12  N   UNL     1       4.478   4.223  -3.723  0.00  0.00    +0.382 N 
ATOM     13  H   UNL     1       5.172   3.580  -3.323  0.00  0.00    -0.081 HD
BRANCH   9  14
ATOM     14  C   UNL     1       2.358   3.674  -0.054  0.00  0.00    +0.147 C 
BRANCH  14  15
ATOM     15  C   UNL     1       1.048   2.930  -0.082  0.00  0.00    -0.019 A 
ATOM     16  C   UNL     1       1.037   1.549  -0.128  0.00  0.00    +0.006 A 
ATOM     17  C   UNL     1      -0.165   0.867  -0.154  0.00  0.00    +0.000 A 
ATOM     18  C   UNL     1      -1.357   1.567  -0.139  0.00  0.00    +0.000 A 
ATOM     19  C   UNL     1      -1.347   2.949  -0.087  0.00  0.00    +0.000 A 
ATOM     20  C   UNL     1      -0.144   3.630  -0.061  0.00  0.00    +0.006 A 
ENDBRANCH  14  15
BRANCH  14  21
ATOM     21  O   UNL     1       2.261   4.777   0.849  0.00  0.00    -0.387 OA
ATOM     22  H   UNL     1       1.575   5.417   0.616  0.00  0.00    +0.210 HD
ENDBRANCH  14  21
ENDBRANCH   9  14
ENDBRANCH   4  12
BRANCH   1  26
ATOM     23  C   UNL     1       5.409   5.528 -11.909  0.00  0.00    +0.034 A 
ATOM     24  C   UNL     1       4.257   6.039 -11.326  0.00  0.00    +0.025 A 
ATOM     25  C   UNL     1       3.963   5.750 -10.008  0.00  0.00    +0.025 A 
ATOM     26  C   UNL     1       4.821   4.949  -9.265  0.00  0.00    +0.030 A 
ATOM     27  C   UNL     1       5.976   4.442  -9.847  0.00  0.00    +0.025 A 
ATOM     28  C   UNL     1       6.266   4.726 -11.167  0.00  0.00    +0.025 A 
BRANCH  23  31
ATOM     29  C   UNL     1       6.328   4.905 -14.014  0.00  0.00    +0.249 C 
ATOM     30  O   UNL     1       6.546   3.792 -13.577  0.00  0.00    -0.270 OA
ATOM     31  N   UNL     1       5.706   5.821 -13.246  0.00  0.00    -0.281 N 
ATOM     32  H   UNL     1       5.465   6.684 -13.619  0.00  0.00    +0.155 HD
BRANCH  29  37
ATOM     33  C   UNL     1       7.950   6.263 -19.366  0.00  0.00    +0.044 C 
ATOM     34  C   UNL     1       7.525   5.907 -17.965  0.00  0.00    -0.050 A 
ATOM     35  C   UNL     1       6.772   6.802 -17.225  0.00  0.00    +0.004 A 
ATOM     36  C   UNL     1       6.380   6.483 -15.942  0.00  0.00    +0.013 A 
ATOM     37  C   UNL     1       6.744   5.254 -15.389  0.00  0.00    +0.040 A 
ATOM     38  C   UNL     1       7.508   4.358 -16.139  0.00  0.00    -0.038 A 
ATOM     39  C   UNL     1       7.890   4.687 -17.423  0.00  0.00    +0.007 A 
ATOM     40  C   UNL     1       7.911   3.031 -15.548  0.00  0.00    +0.044 C 
ENDBRANCH  29  37
ENDBRANCH  23  31
ENDBRANCH   1  26
TORSDOF 7
