REMARK  Name = ZINC08831417
REMARK  11 active torsions:
REMARK  status: ('A' for Active; 'I' for Inactive)
REMARK    1  A    between atoms: C_1  and  C_2
REMARK    2  A    between atoms: C_6  and  C_10
REMARK    3  A    between atoms: C_7  and  O_8
REMARK    4  A    between atoms: O_8  and  C_9
REMARK    5  A    between atoms: N_12  and  C_13
REMARK    6  A    between atoms: C_13  and  N_15
REMARK    7  A    between atoms: N_15  and  C_16
REMARK    8  A    between atoms: C_19  and  N_22
REMARK    9  A    between atoms: C_23  and  C_25
REMARK   10  A    between atoms: C_25  and  C_26
REMARK   11  A    between atoms: C_25  and  C_27
REMARK                            x       y       z     vdW  Elec       q    Type
REMARK                         _______ _______ _______ _____ _____    ______ ____
ROOT
ATOM      1  C   UNL     1       4.865   4.573   0.345  0.00  0.00    +0.141 C 
ATOM      2  S   UNL     1       4.869   6.220   0.812  0.00  0.00    -0.018 S 
ENDROOT
BRANCH   1   5
ATOM      3  C   UNL     1       2.573   4.457   0.774  0.00  0.00    +0.253 C 
ATOM      4  O   UNL     1       2.576   5.627   1.105  0.00  0.00    -0.270 OA
ATOM      5  N   UNL     1       3.718   3.867   0.376  0.00  0.00    -0.263 N 
ATOM      6  H   UNL     1       3.715   2.933   0.112  0.00  0.00    +0.157 HD
BRANCH   3  12
ATOM      7  C   UNL     1      -2.334   4.208   1.694  0.00  0.00    +0.047 C 
ATOM      8  C   UNL     1      -1.049   3.558   1.250  0.00  0.00    -0.007 A 
ATOM      9  C   UNL     1      -1.045   2.232   0.867  0.00  0.00    +0.022 A 
ATOM     10  C   UNL     1       0.133   1.623   0.462  0.00  0.00    +0.019 A 
ATOM     11  C   UNL     1       1.310   2.340   0.428  0.00  0.00    +0.032 A 
ATOM     12  C   UNL     1       1.318   3.684   0.808  0.00  0.00    +0.080 A 
ATOM     13  C   UNL     1       0.125   4.294   1.222  0.00  0.00    +0.135 A 
ATOM     14 BR   UNL     1       0.123  -0.197  -0.052  0.00  0.00    -0.050 Br
BRANCH  13  15
ATOM     15  O   UNL     1       0.121   5.599   1.593  0.00  0.00    -0.494 OA
ATOM     16  C   UNL     1      -0.124   6.564   0.569  0.00  0.00    +0.277 C 
ENDBRANCH  13  15
ENDBRANCH   3  12
ENDBRANCH   1   5
BRANCH   1  17
ATOM     17  N   UNL     1       6.009   3.982  -0.053  0.00  0.00    -0.297 N 
ATOM     18  H   UNL     1       6.018   3.036  -0.265  0.00  0.00    +0.154 HD
BRANCH  17  19
ATOM     19  C   UNL     1       7.185   4.735  -0.160  0.00  0.00    +0.033 A 
ATOM     20  C   UNL     1       8.017   4.572  -1.261  0.00  0.00    +0.025 A 
ATOM     21  C   UNL     1       9.173   5.318  -1.369  0.00  0.00    +0.025 A 
ATOM     22  C   UNL     1       9.511   6.224  -0.372  0.00  0.00    +0.034 A 
ATOM     23  C   UNL     1       8.682   6.383   0.731  0.00  0.00    +0.025 A 
ATOM     24  C   UNL     1       7.523   5.641   0.837  0.00  0.00    +0.025 A 
BRANCH  22  25
ATOM     25  N   UNL     1      10.687   6.977  -0.479  0.00  0.00    -0.285 N 
ATOM     26  C   UNL     1      11.100   7.413  -1.685  0.00  0.00    +0.220 C 
ATOM     27  O   UNL     1      10.483   7.109  -2.684  0.00  0.00    -0.275 OA
ATOM     28  H   UNL     1      11.204   7.184   0.315  0.00  0.00    +0.155 HD
BRANCH  26  29
ATOM     29  C   UNL     1      12.329   8.280  -1.793  0.00  0.00    +0.069 C 
ATOM     30  C   UNL     1      12.576   8.633  -3.261  0.00  0.00    +0.017 C 
ATOM     31  C   UNL     1      12.120   9.563  -0.987  0.00  0.00    +0.017 C 
ENDBRANCH  26  29
ENDBRANCH  22  25
ENDBRANCH  17  19
ENDBRANCH   1  17
TORSDOF 7
