REMARK  Name = ZINC12246835
REMARK  7 active torsions:
REMARK  status: ('A' for Active; 'I' for Inactive)
REMARK    1  A    between atoms: C_3  and  C_11
REMARK    2  A    between atoms: C_5  and  C_7
REMARK    3  A    between atoms: C_11  and  N_61
REMARK    4  A    between atoms: C_12  and  N_61
REMARK    5  A    between atoms: N_15  and  C_18
REMARK    6  A    between atoms: C_21  and  C_24
REMARK    7  A    between atoms: N_26  and  C_27
REMARK                            x       y       z     vdW  Elec       q    Type
REMARK                         _______ _______ _______ _____ _____    ______ ____
ROOT
ATOM      1  C   UNL     1      -0.110   7.313  -1.381  0.00  0.00    -0.068 C 
ATOM      2  C   UNL     1      -1.554   7.808  -1.261  0.00  0.00    +0.003 C 
ATOM      3  C   UNL     1      -1.575   9.335  -1.355  0.00  0.00    +0.103 C 
ATOM      4  N   UNL     1      -0.999   9.756  -2.639  0.00  0.00    -0.330 N 
ATOM      5  C   UNL     1       0.402   9.333  -2.756  0.00  0.00    +0.103 C 
ATOM      6  C   UNL     1       0.482   7.806  -2.705  0.00  0.00    +0.003 C 
ENDROOT
BRANCH   4   7
ATOM      7  C   UNL     1      -1.122  11.130  -2.813  0.00  0.00    +0.030 A 
ATOM      8  C   UNL     1       0.010  11.903  -3.056  0.00  0.00    +0.024 A 
ATOM      9  C   UNL     1      -0.108  13.262  -3.235  0.00  0.00    +0.015 A 
ATOM     10  C   UNL     1      -1.366  13.868  -3.160  0.00  0.00    +0.037 A 
ATOM     11  C   UNL     1      -2.500  13.090  -2.910  0.00  0.00    +0.015 A 
ATOM     12  C   UNL     1      -2.375  11.730  -2.738  0.00  0.00    +0.024 A 
BRANCH  10  13
ATOM     13  C   UNL     1      -1.495  15.326  -3.345  0.00  0.00    +0.244 C 
ATOM     14  O   UNL     1      -2.590  15.852  -3.279  0.00  0.00    -0.270 OA
ATOM     15  N   UNL     1      -0.401  16.075  -3.586  0.00  0.00    -0.308 N 
ATOM     16  H   UNL     1       0.472  15.655  -3.638  0.00  0.00    +0.149 HD
BRANCH  15  17
ATOM     17  C   UNL     1      -0.530  17.523  -3.768  0.00  0.00    +0.073 C 
ATOM     18  C   UNL     1      -0.810  17.845  -5.251  0.00  0.00    +0.022 C 
ATOM     19  C   UNL     1      -0.022  19.153  -5.511  0.00  0.00    +0.002 C 
ATOM     20  C   UNL     1       1.273  18.941  -4.687  0.00  0.00    +0.002 C 
ATOM     21  C   UNL     1       0.794  18.219  -3.410  0.00  0.00    +0.022 C 
ENDBRANCH  15  17
ENDBRANCH  10  13
ENDBRANCH   4   7
BRANCH   1  22
ATOM     22  N   UNL     1      -0.090   5.838  -1.359  0.00  0.00    +0.384 N 
ATOM     23  H   UNL     1      -0.927   5.481  -1.833  0.00  0.00    -0.085 HD
ATOM     24  H   UNL     1       0.749   5.504  -1.848  0.00  0.00    -0.085 HD
BRANCH  22  25
ATOM     25  C   UNL     1      -0.070   5.347   0.032  0.00  0.00    -0.046 C 
BRANCH  25  28
ATOM     26  C   UNL     1       1.175   1.783   0.000  0.00  0.00    +0.001 A 
ATOM     27  C   UNL     1       1.156   3.166   0.008  0.00  0.00    +0.002 A 
ATOM     28  C   UNL     1      -0.050   3.840   0.023  0.00  0.00    -0.064 A 
ATOM     29  C   UNL     1      -1.238   3.133   0.029  0.00  0.00    +0.014 A 
ATOM     30  C   UNL     1      -1.219   1.751   0.017  0.00  0.00    +0.055 A 
ATOM     31  C   UNL     1      -0.013   1.076   0.008  0.00  0.00    +0.012 A 
BRANCH  30  32
ATOM     32  C   UNL     1      -2.514   0.980   0.019  0.00  0.00    +0.417 C 
ATOM     33  F   UNL     1      -2.240  -0.392   0.010  0.00  0.00    -0.166 F 
ATOM     34  F   UNL     1      -3.247   1.301   1.167  0.00  0.00    -0.166 F 
ATOM     35  F   UNL     1      -3.257   1.314  -1.118  0.00  0.00    -0.166 F 
ENDBRANCH  30  32
ENDBRANCH  25  28
ENDBRANCH  22  25
ENDBRANCH   1  22
TORSDOF 7
