REMARK  Name = ZINC15666039
REMARK  9 active torsions:
REMARK  status: ('A' for Active; 'I' for Inactive)
REMARK    1  A    between atoms: C_1  and  C_2
REMARK    2  A    between atoms: C_5  and  N_19
REMARK    3  A    between atoms: C_7  and  S_8
REMARK    4  A    between atoms: S_8  and  N_11
REMARK    5  A    between atoms: N_11  and  C_12
REMARK    6  A    between atoms: C_20  and  C_22
REMARK    7  A    between atoms: C_23  and  C_29
REMARK    8  A    between atoms: C_24  and  C_28
REMARK    9  A    between atoms: C_26  and  C_27
REMARK                            x       y       z     vdW  Elec       q    Type
REMARK                         _______ _______ _______ _____ _____    ______ ____
ROOT
ATOM      1  C   UNL     1      -0.136  -3.810  -0.266  0.00  0.00    +0.046 C 
ATOM      2  C   UNL     1       0.135  -2.339  -0.084  0.00  0.00    -0.024 A 
ATOM      3  C   UNL     1      -0.915  -1.465   0.131  0.00  0.00    +0.007 A 
ATOM      4  C   UNL     1      -0.669  -0.117   0.303  0.00  0.00    +0.024 A 
ATOM      5  C   UNL     1       0.633   0.362   0.251  0.00  0.00    +0.036 A 
ATOM      6  C   UNL     1       1.686  -0.518   0.035  0.00  0.00    +0.052 A 
ATOM      7  C   UNL     1       1.434  -1.866  -0.132  0.00  0.00    +0.113 A 
ENDROOT
BRANCH   5   8
ATOM      8  N   UNL     1       0.885   1.728   0.421  0.00  0.00    -0.281 N 
ATOM      9  C   UNL     1       0.014   2.638  -0.057  0.00  0.00    +0.252 C 
ATOM     10  O   UNL     1      -1.033   2.274  -0.558  0.00  0.00    -0.270 OA
ATOM     11  H   UNL     1       1.689   2.019   0.878  0.00  0.00    +0.155 HD
BRANCH   9  12
ATOM     12  C   UNL     1       0.329   4.075   0.029  0.00  0.00    +0.081 A 
ATOM     13  C   UNL     1      -0.001   4.994   1.128  0.00  0.00    +0.003 A 
ATOM     14  C   UNL     1       0.483   6.191   0.766  0.00  0.00    +0.106 A 
ATOM     15  O   UNL     1       1.068   6.084  -0.437  0.00  0.00    -0.464 OA
ATOM     16  C   UNL     1       0.993   4.830  -0.894  0.00  0.00    +0.115 A 
ATOM     17  C   UNL     1       1.545   4.335  -2.205  0.00  0.00    +0.087 C 
ATOM     18  C   UNL     1       0.385   7.456   1.580  0.00  0.00    +0.086 C 
ATOM     19  C   UNL     1      -0.733   4.658   2.402  0.00  0.00    +0.048 C 
ENDBRANCH   9  12
ENDBRANCH   5   8
BRANCH   7  20
ATOM     20  S   UNL     1       2.768  -2.983  -0.406  0.00  0.00    +0.073 S 
ATOM     21  O   UNL     1       3.954  -2.201  -0.430  0.00  0.00    -0.150 OA
ATOM     22  O   UNL     1       2.585  -4.064   0.499  0.00  0.00    -0.150 OA
BRANCH  20  23
ATOM     23  N   UNL     1       2.580  -3.605  -1.929  0.00  0.00    -0.216 N 
ATOM     24  H   UNL     1       2.375  -4.546  -2.047  0.00  0.00    +0.174 HD
BRANCH  23  25
ATOM     25  C   UNL     1       2.719  -2.775  -3.045  0.00  0.00    +0.048 A 
ATOM     26  C   UNL     1       2.094  -1.534  -3.071  0.00  0.00    +0.025 A 
ATOM     27  C   UNL     1       2.236  -0.714  -4.173  0.00  0.00    +0.017 A 
ATOM     28  C   UNL     1       2.992  -1.131  -5.254  0.00  0.00    +0.018 A 
ATOM     29  C   UNL     1       3.611  -2.368  -5.233  0.00  0.00    +0.017 A 
ATOM     30  C   UNL     1       3.477  -3.191  -4.132  0.00  0.00    +0.025 A 
ATOM     31 BR   UNL     1       3.179  -0.007  -6.764  0.00  0.00    -0.050 Br
ENDBRANCH  23  25
ENDBRANCH  20  23
ENDBRANCH   7  20
TORSDOF 5
