REMARK  Name = ZINC09427854
REMARK  4 active torsions:
REMARK  status: ('A' for Active; 'I' for Inactive)
REMARK    1  A    between atoms: C_8  and  C_10
REMARK    2  A    between atoms: N_12  and  C_13
REMARK    3  A    between atoms: C_14  and  C_22
REMARK    4  A    between atoms: N_24  and  C_25
REMARK                            x       y       z     vdW  Elec       q    Type
REMARK                         _______ _______ _______ _____ _____    ______ ____
ROOT
ATOM      1  C   UNL     1      -0.966   2.141  -3.579  0.00  0.00    +0.085 A 
ATOM      2  C   UNL     1      -0.171   1.655  -2.551  0.00  0.00    +0.069 A 
ATOM      3  C   UNL     1      -0.755   1.593  -1.222  0.00  0.00    -0.023 A 
ATOM      4  C   UNL     1      -2.032   2.025  -1.135  0.00  0.00    -0.004 A 
ATOM      5  S   UNL     1      -2.461   2.507  -2.783  0.00  0.00    -0.077 S 
ATOM      6  C   UNL     1      -2.886   2.077   0.095  0.00  0.00    +0.043 C 
ATOM      7  C   UNL     1      -2.224   1.216   1.181  0.00  0.00    +0.005 C 
ATOM      8  C   UNL     1      -0.735   1.582   1.262  0.00  0.00    +0.005 C 
ATOM      9  C   UNL     1      -0.013   1.086   0.008  0.00  0.00    +0.037 C 
ENDROOT
BRANCH   1  12
ATOM     10  C   UNL     1      -1.555   2.792  -5.778  0.00  0.00    +0.257 C 
ATOM     11  O   UNL     1      -2.662   3.102  -5.379  0.00  0.00    -0.269 OA
ATOM     12  N   UNL     1      -0.643   2.297  -4.917  0.00  0.00    -0.275 N 
ATOM     13  H   UNL     1       0.240   2.049  -5.235  0.00  0.00    +0.156 HD
BRANCH  10  21
ATOM     14  C   UNL     1      -1.466   3.989 -11.878  0.00  0.00    +0.001 A 
ATOM     15  C   UNL     1      -0.153   3.549 -11.996  0.00  0.00    +0.001 A 
ATOM     16  C   UNL     1       0.512   3.089 -10.878  0.00  0.00    +0.016 A 
ATOM     17  C   UNL     1      -0.134   3.073  -9.661  0.00  0.00    +0.021 A 
ATOM     18  C   UNL     1      -1.470   3.514  -9.511  0.00  0.00    +0.008 A 
ATOM     19  C   UNL     1      -2.116   3.978 -10.686  0.00  0.00    +0.010 A 
ATOM     20  C   UNL     1      -1.991   3.429  -8.207  0.00  0.00    +0.068 A 
ATOM     21  C   UNL     1      -1.212   2.956  -7.195  0.00  0.00    +0.094 A 
ATOM     22  S   UNL     1       0.325   2.579  -8.019  0.00  0.00    -0.082 S 
ATOM     23 CL   UNL     1      -3.622   3.930  -7.887  0.00  0.00    -0.082 Cl
ENDBRANCH  10  21
ENDBRANCH   1  12
BRANCH   2  24
ATOM     24  C   UNL     1       1.207   1.219  -2.796  0.00  0.00    +0.247 C 
ATOM     25  O   UNL     1       1.436   0.061  -3.094  0.00  0.00    -0.270 OA
ATOM     26  N   UNL     1       2.221   2.101  -2.692  0.00  0.00    -0.307 N 
ATOM     27  H   UNL     1       2.039   3.024  -2.454  0.00  0.00    +0.149 HD
BRANCH  26  28
ATOM     28  C   UNL     1       3.598   1.666  -2.937  0.00  0.00    +0.096 C 
ATOM     29  C   UNL     1       4.200   1.093  -1.643  0.00  0.00    +0.046 C 
ATOM     30  C   UNL     1       5.732   0.931  -1.800  0.00  0.00    +0.168 C 
ATOM     31  S   UNL     1       6.153   2.239  -3.022  0.00  0.00    -0.029 S 
ATOM     32  O   UNL     1       6.671   1.627  -4.195  0.00  0.00    -0.174 OA
ATOM     33  O   UNL     1       6.906   3.254  -2.373  0.00  0.00    -0.174 OA
ATOM     34  C   UNL     1       4.463   2.881  -3.377  0.00  0.00    +0.188 C 
ENDBRANCH  26  28
ENDBRANCH   2  24
TORSDOF 4
