REMARK  Name = ZINC13460367
REMARK  9 active torsions:
REMARK  status: ('A' for Active; 'I' for Inactive)
REMARK    1  A    between atoms: C_1  and  O_2
REMARK    2  A    between atoms: O_2  and  C_3
REMARK    3  A    between atoms: C_5  and  C_29
REMARK    4  A    between atoms: C_7  and  S_11
REMARK    5  A    between atoms: C_8  and  O_9
REMARK    6  A    between atoms: O_9  and  C_10
REMARK    7  A    between atoms: S_11  and  N_14
REMARK    8  A    between atoms: C_17  and  C_20
REMARK    9  A    between atoms: C_30  and  C_31
REMARK                            x       y       z     vdW  Elec       q    Type
REMARK                         _______ _______ _______ _____ _____    ______ ____
ROOT
ATOM      1  S   UNL     1       1.330  -4.379  -2.295  0.00  0.00    +0.105 S 
ATOM      2  O   UNL     1       0.010  -4.842  -2.043  0.00  0.00    -0.146 OA
ATOM      3  O   UNL     1       2.038  -4.705  -3.483  0.00  0.00    -0.146 OA
ENDROOT
BRANCH   1   4
ATOM      4  N   UNL     1       2.264  -4.900  -1.030  0.00  0.00    -0.103 NA
ATOM      5  C   UNL     1       2.474  -6.181  -0.856  0.00  0.00    +0.192 A 
ATOM      6  N   UNL     1       3.206  -6.818   0.123  0.00  0.00    -0.332 N 
ATOM      7  C   UNL     1       3.282  -8.186   0.097  0.00  0.00    +0.055 A 
ATOM      8  C   UNL     1       2.647  -8.871  -0.874  0.00  0.00    +0.075 A 
ATOM      9  S   UNL     1       1.883  -7.564  -1.819  0.00  0.00    -0.056 S 
ATOM     10  H   UNL     1       3.657  -6.309   0.814  0.00  0.00    +0.168 HD
BRANCH   7  11
ATOM     11  C   UNL     1       4.058  -8.906   1.130  0.00  0.00    -0.001 A 
ATOM     12  C   UNL     1       4.712  -8.199   2.140  0.00  0.00    +0.013 A 
ATOM     13  C   UNL     1       5.430  -8.871   3.103  0.00  0.00    +0.046 A 
ATOM     14  C   UNL     1       5.513 -10.263   3.079  0.00  0.00    +0.124 A 
ATOM     15  C   UNL     1       4.866 -10.961   2.066  0.00  0.00    -0.002 A 
ATOM     16  C   UNL     1       4.137 -10.300   1.106  0.00  0.00    +0.017 A 
ATOM     17  C   UNL     1       5.154 -12.434   2.288  0.00  0.00    +0.080 C 
ATOM     18  C   UNL     1       6.336 -12.382   3.284  0.00  0.00    +0.234 C 
ATOM     19  O   UNL     1       6.152 -11.111   3.931  0.00  0.00    -0.491 OA
ENDBRANCH   7  11
ENDBRANCH   1   4
BRANCH   1  24
ATOM     20  C   UNL     1       0.606  -0.608  -1.056  0.00  0.00    +0.164 A 
ATOM     21  C   UNL     1       1.170   0.158  -2.058  0.00  0.00    +0.057 A 
ATOM     22  C   UNL     1       1.791  -0.467  -3.146  0.00  0.00    -0.019 A 
ATOM     23  C   UNL     1       1.837  -1.865  -3.212  0.00  0.00    +0.041 A 
ATOM     24  C   UNL     1       1.272  -2.620  -2.209  0.00  0.00    +0.158 A 
ATOM     25  C   UNL     1       0.661  -1.999  -1.127  0.00  0.00    +0.188 A 
BRANCH  20  27
ATOM     26  C   UNL     1      -0.017   1.425   0.010  0.00  0.00    +0.277 C 
ATOM     27  O   UNL     1       0.002  -0.004   0.002  0.00  0.00    -0.491 OA
ENDBRANCH  20  27
BRANCH  25  28
ATOM     28  O   UNL     1       0.111  -2.750  -0.138  0.00  0.00    -0.490 OA
ATOM     29  C   UNL     1      -1.261  -3.120  -0.291  0.00  0.00    +0.277 C 
ENDBRANCH  25  28
BRANCH  22  30
ATOM     30  C   UNL     1       2.393   0.341  -4.214  0.00  0.00    +0.015 C 
ATOM     31  C   UNL     1       2.347   1.692  -4.148  0.00  0.00    +0.096 C 
BRANCH  31  32
ATOM     32  C   UNL     1       2.926   2.470  -5.177  0.00  0.00    +0.380 C 
ATOM     33  O   UNL     1       3.469   1.921  -6.128  0.00  0.00    -0.241 OA
ATOM     34  O   UNL     1       2.885   3.693  -5.117  0.00  0.00    -0.241 OA
ENDBRANCH  31  32
ENDBRANCH  22  30
ENDBRANCH   1  24
TORSDOF 7
