REMARK  Name = ZINC24609499
REMARK  9 active torsions:
REMARK  status: ('A' for Active; 'I' for Inactive)
REMARK    1  A    between atoms: C_1  and  C_2
REMARK    2  A    between atoms: C_5  and  N_9
REMARK    3  A    between atoms: C_6  and  C_8
REMARK    4  A    between atoms: C_12  and  C_15
REMARK    5  A    between atoms: C_15  and  S_16
REMARK    6  A    between atoms: S_16  and  C_17
REMARK    7  A    between atoms: C_20  and  C_23
REMARK    8  A    between atoms: N_21  and  N_22
REMARK    9  A    between atoms: C_27  and  C_29
REMARK                            x       y       z     vdW  Elec       q    Type
REMARK                         _______ _______ _______ _____ _____    ______ ____
ROOT
ATOM      1  N   UNL     1      -6.966   5.965   6.801  0.00  0.00    -0.219 N 
ATOM      2  C   UNL     1      -5.608   5.672   6.722  0.00  0.00    +0.172 A 
ATOM      3  N   UNL     1      -4.991   4.807   5.941  0.00  0.00    -0.228 NA
ATOM      4  C   UNL     1      -3.683   4.650   5.994  0.00  0.00    +0.061 A 
ATOM      5  C   UNL     1      -2.978   5.398   6.878  0.00  0.00    +0.072 A 
ATOM      6  S   UNL     1      -4.291   6.351   7.628  0.00  0.00    -0.060 S 
ATOM      7  C   UNL     1      -7.841   5.322   6.004  0.00  0.00    +0.223 C 
ATOM      8  O   UNL     1      -7.446   4.487   5.218  0.00  0.00    -0.275 OA
ATOM      9  C   UNL     1      -9.312   5.639   6.089  0.00  0.00    +0.110 C 
ENDROOT
BRANCH   1  14
ATOM     10  C   UNL     1      -8.816   9.872  10.477  0.00  0.00    +0.044 C 
ATOM     11  C   UNL     1      -8.325   8.834   9.501  0.00  0.00    -0.050 A 
ATOM     12  C   UNL     1      -7.964   9.209   8.220  0.00  0.00    +0.005 A 
ATOM     13  C   UNL     1      -7.508   8.261   7.324  0.00  0.00    +0.024 A 
ATOM     14  C   UNL     1      -7.422   6.930   7.708  0.00  0.00    +0.046 A 
ATOM     15  C   UNL     1      -7.785   6.557   8.996  0.00  0.00    -0.028 A 
ATOM     16  C   UNL     1      -8.235   7.510   9.889  0.00  0.00    +0.008 A 
ATOM     17  C   UNL     1      -7.687   5.114   9.419  0.00  0.00    +0.046 C 
ENDBRANCH   1  14
BRANCH   4  18
ATOM     18  C   UNL     1      -2.989   3.658   5.098  0.00  0.00    +0.133 C 
BRANCH  18  19
ATOM     19  S   UNL     1      -2.517   4.470   3.550  0.00  0.00    -0.078 S 
BRANCH  19  20
ATOM     20  C   UNL     1      -1.749   3.120   2.718  0.00  0.00    +0.209 A 
ATOM     21  N   UNL     1      -1.606   1.899   3.178  0.00  0.00    -0.121 NA
ATOM     22  N   UNL     1      -1.005   1.171   2.305  0.00  0.00    -0.123 NA
ATOM     23  C   UNL     1      -0.722   1.881   1.250  0.00  0.00    +0.255 A 
ATOM     24  N   UNL     1      -1.189   3.147   1.473  0.00  0.00    -0.220 N 
BRANCH  23  25
ATOM     25  C   UNL     1      -0.017   1.395   0.010  0.00  0.00    +0.454 C 
ATOM     26  F   UNL     1       0.002  -0.004   0.002  0.00  0.00    -0.163 F 
ATOM     27  F   UNL     1       1.296   1.879  -0.000  0.00  0.00    -0.163 F 
ATOM     28  F   UNL     1      -0.694   1.858  -1.124  0.00  0.00    -0.163 F 
ENDBRANCH  23  25
BRANCH  24  29
ATOM     29  N   UNL     1      -1.111   4.216   0.626  0.00  0.00    -0.295 N 
ATOM     30  H   UNL     1      -0.631   4.105  -0.357  0.00  0.00    +0.163 HD
ATOM     31  H   UNL     1      -1.529   5.188   0.927  0.00  0.00    +0.163 HD
ENDBRANCH  24  29
ENDBRANCH  19  20
ENDBRANCH  18  19
ENDBRANCH   4  18
TORSDOF 6
