REMARK  Name = ZINC40399605
REMARK  4 active torsions:
REMARK  status: ('A' for Active; 'I' for Inactive)
REMARK    1  A    between atoms: C_1  and  C_2
REMARK    2  A    between atoms: C_5  and  N_8
REMARK    3  A    between atoms: C_9  and  C_11
REMARK    4  A    between atoms: N_25  and  C_26
REMARK                            x       y       z     vdW  Elec       q    Type
REMARK                         _______ _______ _______ _____ _____    ______ ____
ROOT
ATOM      1  C   UNL     1       0.278  -6.302   0.967  0.00  0.00    +0.122 C 
ATOM      2  C   UNL     1       1.450  -6.891   0.180  0.00  0.00    +0.114 C 
ATOM      3  C   UNL     1       1.439  -8.392   0.302  0.00  0.00    +0.219 C 
ATOM      4  O   UNL     1       1.752  -9.074  -0.650  0.00  0.00    -0.275 OA
ATOM      5  N   UNL     1       1.086  -8.984   1.456  0.00  0.00    -0.270 N 
ATOM      6  C   UNL     1       0.623  -8.237   2.526  0.00  0.00    +0.138 A 
ATOM      7  C   UNL     1       0.230  -6.924   2.337  0.00  0.00    +0.069 A 
ATOM      8  C   UNL     1      -0.214  -6.182   3.436  0.00  0.00    +0.258 A 
ATOM      9  O   UNL     1      -0.558  -5.018   3.304  0.00  0.00    -0.267 OA
ATOM     10  N   UNL     1      -0.255  -6.779   4.647  0.00  0.00    -0.295 N 
ATOM     11  H   UNL     1      -0.546  -6.279   5.425  0.00  0.00    +0.172 HD
ATOM     12  C   UNL     1       0.110  -8.084   4.775  0.00  0.00    +0.202 A 
ATOM     13  N   UNL     1       0.530  -8.785   3.742  0.00  0.00    -0.200 NA
ATOM     14  N   UNL     1       0.038  -8.683   6.006  0.00  0.00    -0.285 N 
ATOM     15  H   UNL     1       1.156  -9.947   1.541  0.00  0.00    +0.156 HD
ATOM     16  H   UNL     1      -0.345  -8.203   6.756  0.00  0.00    +0.155 HD
ENDROOT
BRANCH  14  17
ATOM     17  C   UNL     1       0.517  -9.986   6.179  0.00  0.00    +0.034 A 
ATOM     18  C   UNL     1       1.620 -10.424   5.457  0.00  0.00    +0.026 A 
ATOM     19  C   UNL     1       2.092 -11.710   5.631  0.00  0.00    +0.040 A 
ATOM     20  C   UNL     1       1.466 -12.563   6.524  0.00  0.00    +0.124 A 
ATOM     21  C   UNL     1       0.366 -12.130   7.245  0.00  0.00    +0.040 A 
ATOM     22  C   UNL     1      -0.105 -10.842   7.078  0.00  0.00    +0.026 A 
ATOM     23  F   UNL     1       1.929 -13.822   6.692  0.00  0.00    -0.205 F 
ENDBRANCH  14  17
BRANCH   1  25
ATOM     24  N   UNL     1      -0.521  -3.976   0.700  0.00  0.00    -0.285 N 
ATOM     25  C   UNL     1       0.459  -4.812   1.098  0.00  0.00    +0.225 C 
ATOM     26  O   UNL     1       1.486  -4.364   1.562  0.00  0.00    -0.275 OA
ATOM     27  H   UNL     1      -1.371  -4.334   0.399  0.00  0.00    +0.155 HD
BRANCH  24  32
ATOM     28  C   UNL     1       0.324   1.633   0.785  0.00  0.00    +0.044 C 
ATOM     29  C   UNL     1       0.100   0.143   0.762  0.00  0.00    -0.050 A 
ATOM     30  C   UNL     1       1.147  -0.708   0.462  0.00  0.00    +0.005 A 
ATOM     31  C   UNL     1       0.945  -2.074   0.440  0.00  0.00    +0.023 A 
ATOM     32  C   UNL     1      -0.312  -2.593   0.721  0.00  0.00    +0.033 A 
ATOM     33  C   UNL     1      -1.362  -1.736   1.024  0.00  0.00    +0.023 A 
ATOM     34  C   UNL     1      -1.152  -0.371   1.048  0.00  0.00    +0.005 A 
ENDBRANCH  24  32
ENDBRANCH   1  25
TORSDOF 3
