REMARK  Name = ZINC16154816
REMARK  5 active torsions:
REMARK  status: ('A' for Active; 'I' for Inactive)
REMARK    1  A    between atoms: C_3  and  N_18
REMARK    2  A    between atoms: C_5  and  S_7
REMARK    3  A    between atoms: S_7  and  N_10
REMARK    4  A    between atoms: N_18  and  S_19
REMARK    5  A    between atoms: S_19  and  C_22
REMARK                            x       y       z     vdW  Elec       q    Type
REMARK                         _______ _______ _______ _____ _____    ______ ____
ROOT
ATOM      1  C   UNL     1       0.235   3.491   0.072  0.00  0.00    +0.004 A 
ATOM      2  C   UNL     1      -1.029   2.935   0.084  0.00  0.00    +0.024 A 
ATOM      3  C   UNL     1      -1.179   1.555   0.033  0.00  0.00    +0.050 A 
ATOM      4  C   UNL     1      -0.056   0.739  -0.018  0.00  0.00    +0.053 A 
ATOM      5  C   UNL     1       1.205   1.302  -0.029  0.00  0.00    +0.114 A 
ATOM      6  C   UNL     1       1.350   2.676   0.015  0.00  0.00    +0.029 A 
ENDROOT
BRANCH   5   7
ATOM      7  S   UNL     1       2.630   0.268  -0.101  0.00  0.00    +0.100 S 
ATOM      8  O   UNL     1       3.704   1.017   0.450  0.00  0.00    -0.146 OA
ATOM      9  O   UNL     1       2.240  -0.997   0.415  0.00  0.00    -0.146 OA
BRANCH   7  10
ATOM     10  N   UNL     1       2.986   0.037  -1.702  0.00  0.00    -0.118 NA
ATOM     11  C   UNL     1       3.999  -0.693  -2.039  0.00  0.00    +0.117 C 
ATOM     12  C   UNL     1       4.871  -1.338  -0.964  0.00  0.00    +0.073 C 
ATOM     13  C   UNL     1       4.620  -2.835  -1.027  0.00  0.00    +0.008 C 
ATOM     14  C   UNL     1       5.539  -3.564  -2.010  0.00  0.00    +0.002 C 
ATOM     15  C   UNL     1       5.712  -2.819  -3.334  0.00  0.00    +0.019 C 
ATOM     16  C   UNL     1       4.418  -2.245  -3.869  0.00  0.00    +0.102 C 
ATOM     17  N   UNL     1       4.285  -0.879  -3.313  0.00  0.00    -0.331 N 
ATOM     18  H   UNL     1       4.409  -0.111  -3.893  0.00  0.00    +0.147 HD
ENDBRANCH   7  10
ENDBRANCH   5   7
BRANCH   3  19
ATOM     19  N   UNL     1      -2.456   0.989   0.040  0.00  0.00    -0.216 N 
ATOM     20  H   UNL     1      -2.793   0.561   0.842  0.00  0.00    +0.174 HD
BRANCH  19  21
ATOM     21  S   UNL     1      -3.395   1.049  -1.323  0.00  0.00    +0.072 S 
ATOM     22  O   UNL     1      -4.594   0.349  -1.021  0.00  0.00    -0.150 OA
ATOM     23  O   UNL     1      -3.391   2.401  -1.760  0.00  0.00    -0.150 OA
BRANCH  21  24
ATOM     24  C   UNL     1      -2.567   0.116  -2.567  0.00  0.00    +0.109 A 
ATOM     25  C   UNL     1      -1.628   0.725  -3.378  0.00  0.00    +0.030 A 
ATOM     26  C   UNL     1      -0.975  -0.008  -4.351  0.00  0.00    +0.017 A 
ATOM     27  C   UNL     1      -1.269  -1.349  -4.521  0.00  0.00    +0.018 A 
ATOM     28  C   UNL     1      -2.212  -1.957  -3.713  0.00  0.00    +0.017 A 
ATOM     29  C   UNL     1      -2.861  -1.224  -2.736  0.00  0.00    +0.030 A 
ATOM     30 BR   UNL     1      -0.380  -2.350  -5.856  0.00  0.00    -0.050 Br
ENDBRANCH  21  24
ENDBRANCH  19  21
ENDBRANCH   3  19
TORSDOF 5
