REMARK  Name = ZINC35056988
REMARK  9 active torsions:
REMARK  status: ('A' for Active; 'I' for Inactive)
REMARK    1  A    between atoms: C_1  and  C_2
REMARK    2  A    between atoms: C_2  and  C_4
REMARK    3  A    between atoms: C_2  and  O_7
REMARK    4  A    between atoms: O_7  and  C_8
REMARK    5  A    between atoms: C_10  and  N_37
REMARK    6  A    between atoms: C_12  and  O_30
REMARK    7  A    between atoms: C_20  and  C_24
REMARK    8  A    between atoms: O_30  and  C_31
REMARK    9  A    between atoms: C_38  and  C_40
REMARK                            x       y       z     vdW  Elec       q    Type
REMARK                         _______ _______ _______ _____ _____    ______ ____
ROOT
ATOM      1  C   UNL     1       1.374  -1.048  -1.138  0.00  0.00    +0.177 C 
ATOM      2  C   UNL     1       1.970   0.365  -1.173  0.00  0.00    +0.173 C 
ATOM      3  C   UNL     1       1.776   0.972  -2.563  0.00  0.00    +0.331 C 
ATOM      4  O   UNL     1       2.356   0.118  -3.555  0.00  0.00    -0.332 OA
ATOM      5  C   UNL     1       1.776  -1.184  -3.589  0.00  0.00    +0.179 C 
ATOM      6  C   UNL     1       2.028  -1.881  -2.241  0.00  0.00    +0.183 C 
ATOM      7  O   UNL     1       1.475  -3.196  -2.291  0.00  0.00    -0.339 OA
ATOM      8  C   UNL     1       2.038  -4.002  -3.332  0.00  0.00    +0.282 C 
ATOM      9  O   UNL     1       1.845  -3.372  -4.599  0.00  0.00    -0.345 OA
ATOM     10  C   UNL     1       2.397  -2.038  -4.695  0.00  0.00    +0.197 C 
ENDROOT
BRANCH   8  11
ATOM     11  C   UNL     1       3.514  -4.179  -3.084  0.00  0.00    +0.008 A 
ATOM     12  C   UNL     1       4.002  -4.183  -1.791  0.00  0.00    +0.008 A 
ATOM     13  C   UNL     1       5.356  -4.346  -1.564  0.00  0.00    +0.000 A 
ATOM     14  C   UNL     1       6.221  -4.505  -2.630  0.00  0.00    +0.000 A 
ATOM     15  C   UNL     1       5.733  -4.502  -3.923  0.00  0.00    +0.000 A 
ATOM     16  C   UNL     1       4.379  -4.344  -4.150  0.00  0.00    +0.008 A 
ENDBRANCH   8  11
BRANCH   2  17
ATOM     17  N   UNL     1       1.296   1.203  -0.178  0.00  0.00    -0.304 N 
ATOM     18  C   UNL     1       1.939   2.256   0.363  0.00  0.00    +0.210 C 
ATOM     19  O   UNL     1       3.076   2.510   0.027  0.00  0.00    -0.276 OA
ATOM     20  C   UNL     1       1.246   3.118   1.387  0.00  0.00    +0.109 C 
ATOM     21  H   UNL     1       0.386   0.999   0.091  0.00  0.00    +0.149 HD
ENDBRANCH   2  17
BRANCH   1  22
ATOM     22  O   UNL     1      -0.036  -0.980  -1.359  0.00  0.00    -0.358 OA
BRANCH  22  24
ATOM     23  C   UNL     1      -1.173  -1.435   0.724  0.00  0.00    +0.050 C 
ATOM     24  C   UNL     1      -0.783  -1.973  -0.654  0.00  0.00    +0.228 C 
BRANCH  24  25
ATOM     25  C   UNL     1      -2.029  -2.312  -1.432  0.00  0.00    +0.384 C 
ATOM     26  O   UNL     1      -2.302  -1.691  -2.445  0.00  0.00    -0.243 OA
ATOM     27  O   UNL     1      -2.763  -3.207  -1.049  0.00  0.00    -0.243 OA
ENDBRANCH  24  25
ENDBRANCH  22  24
ENDBRANCH   1  22
BRANCH   3  28
ATOM     28  O   UNL     1       0.379   1.119  -2.826  0.00  0.00    -0.462 OA
BRANCH  28  29
ATOM     29  C   UNL     1       0.031   1.743  -3.982  0.00  0.00    +0.124 A 
ATOM     30  C   UNL     1       1.014   2.199  -4.849  0.00  0.00    +0.046 A 
ATOM     31  C   UNL     1       0.658   2.832  -6.024  0.00  0.00    +0.004 A 
ATOM     32  C   UNL     1      -0.677   3.013  -6.335  0.00  0.00    +0.000 A 
ATOM     33  C   UNL     1      -1.659   2.560  -5.473  0.00  0.00    +0.004 A 
ATOM     34  C   UNL     1      -1.308   1.921  -4.300  0.00  0.00    +0.046 A 
ENDBRANCH  28  29
ENDBRANCH   3  28
TORSDOF 7
