REMARK  Name = ZINC13629244
REMARK  7 active torsions:
REMARK  status: ('A' for Active; 'I' for Inactive)
REMARK    1  A    between atoms: C_1  and  C_2
REMARK    2  A    between atoms: C_2  and  CA_3
REMARK    3  A    between atoms: CA_3  and  C_5
REMARK    4  A    between atoms: CA_3  and  N_7
REMARK    5  A    between atoms: C_8  and  C_10
REMARK    6  A    between atoms: C_10  and  C_11
REMARK    7  A    between atoms: C_12  and  C_31
REMARK                            x       y       z     vdW  Elec       q    Type
REMARK                         _______ _______ _______ _____ _____    ______ ____
ROOT
ATOM      1  C   UNL     1      -0.280  -4.328  -5.786  0.00  0.00    +0.049 A 
ATOM      2  C   UNL     1      -0.618  -3.018  -5.910  0.00  0.00    -0.029 A 
ATOM      3  C   UNL     1      -1.021  -2.301  -4.697  0.00  0.00    +0.021 A 
ATOM      4  C   UNL     1      -1.379  -0.950  -4.746  0.00  0.00    +0.019 A 
ATOM      5  C   UNL     1      -1.758  -0.298  -3.605  0.00  0.00    -0.005 A 
ATOM      6  C   UNL     1      -1.793  -0.976  -2.390  0.00  0.00    +0.128 A 
ATOM      7  C   UNL     1      -1.434  -2.316  -2.326  0.00  0.00    +0.093 A 
ATOM      8  C   UNL     1      -1.046  -2.992  -3.473  0.00  0.00    +0.143 A 
ATOM      9  O   UNL     1      -0.697  -4.292  -3.412  0.00  0.00    -0.422 OA
ATOM     10  C   UNL     1      -0.327  -4.943  -4.520  0.00  0.00    +0.341 A 
ATOM     11  O   UNL     1      -0.018  -6.118  -4.430  0.00  0.00    -0.245 OA
ATOM     12  O   UNL     1      -2.179  -0.360  -1.242  0.00  0.00    -0.485 OA
ATOM     13  C   UNL     1      -2.188   1.066  -1.219  0.00  0.00    +0.111 C 
ATOM     14  C   UNL     1      -0.753   1.593  -1.232  0.00  0.00    +0.048 C 
ATOM     15  C   UNL     1      -0.013   1.086   0.008  0.00  0.00    +0.004 C 
ATOM     16  C   UNL     1      -0.729   1.579   1.267  0.00  0.00    +0.000 C 
ATOM     17  C   UNL     1      -2.165   1.050   1.278  0.00  0.00    +0.004 C 
ATOM     18  C   UNL     1      -2.905   1.558   0.039  0.00  0.00    +0.048 C 
ATOM     19  C   UNL     1      -2.930   1.571  -2.461  0.00  0.00    +0.053 C 
ATOM     20  C   UNL     1      -2.132   1.160  -3.701  0.00  0.00    +0.043 C 
ATOM     21  C   UNL     1      -0.581  -2.326  -7.248  0.00  0.00    +0.045 C 
ENDROOT
BRANCH   1  22
ATOM     22  C   UNL     1       0.144  -5.119  -6.997  0.00  0.00    +0.138 C 
BRANCH  22  24
ATOM     23  N   UNL     1      -0.928  -6.513  -8.736  0.00  0.00    -0.302 N 
ATOM     24  C   UNL     1      -1.067  -5.753  -7.632  0.00  0.00    +0.218 C 
ATOM     25  O   UNL     1      -2.165  -5.581  -7.148  0.00  0.00    -0.275 OA
ATOM     26  H   UNL     1      -0.050  -6.651  -9.123  0.00  0.00    +0.150 HD
BRANCH  23  27
ATOM     27  CA  UNL     1      -2.105  -7.130  -9.353  0.00  0.00    +0.186 C 
BRANCH  27  28
ATOM     28  C   UNL     1      -1.834  -7.380 -10.814  0.00  0.00    +0.376 C 
ATOM     29  O   UNL     1      -0.767  -7.074 -11.291  0.00  0.00    -0.244 OA
ATOM     30  OXT UNL     1      -2.778  -7.942 -11.586  0.00  0.00    -0.244 OA
ENDBRANCH  27  28
BRANCH  27  32
ATOM     31  C   UNL     1      -2.807  -8.192  -7.203  0.00  0.00    +0.006 C 
ATOM     32  C   UNL     1      -2.409  -8.458  -8.656  0.00  0.00    +0.030 C 
ENDBRANCH  27  32
ENDBRANCH  23  27
ENDBRANCH  22  24
ENDBRANCH   1  22
TORSDOF 5
