REMARK  Name = ZINC59081001
REMARK  13 active torsions:
REMARK  status: ('A' for Active; 'I' for Inactive)
REMARK    1  A    between atoms: C_1  and  N_2
REMARK    2  A    between atoms: C_5  and  N_8
REMARK    3  A    between atoms: N_8  and  C_9
REMARK    4  A    between atoms: N_8  and  C_21
REMARK    5  A    between atoms: C_9  and  C_10
REMARK    6  A    between atoms: C_10  and  C_11
REMARK    7  A    between atoms: C_14  and  O_19
REMARK    8  A    between atoms: C_15  and  O_17
REMARK    9  A    between atoms: O_17  and  C_18
REMARK   10  A    between atoms: O_19  and  C_20
REMARK   11  A    between atoms: C_21  and  N_23
REMARK   12  A    between atoms: N_23  and  C_24
REMARK   13  A    between atoms: C_26  and  C_31
REMARK                            x       y       z     vdW  Elec       q    Type
REMARK                         _______ _______ _______ _____ _____    ______ ____
ROOT
ATOM      1  N   UNL     1       1.227  -4.035  -0.048  0.00  0.00    -0.309 N 
ENDROOT
BRANCH   1   6
ATOM      2  C   UNL     1       3.263   1.226  -0.097  0.00  0.00    -0.096 C 
ATOM      3  N   UNL     1       3.029  -0.225  -0.090  0.00  0.00    +0.378 N 
ATOM      4  C   UNL     1       2.298  -0.595   1.127  0.00  0.00    -0.077 C 
ATOM      5  C   UNL     1       2.122  -2.114   1.179  0.00  0.00    +0.004 C 
ATOM      6  C   UNL     1       1.334  -2.573  -0.051  0.00  0.00    +0.072 C 
ATOM      7  C   UNL     1       2.068  -2.117  -1.315  0.00  0.00    +0.004 C 
ATOM      8  C   UNL     1       2.246  -0.598  -1.275  0.00  0.00    -0.077 C 
ATOM      9  H   UNL     1       3.915  -0.708  -0.108  0.00  0.00    -0.082 HD
ENDBRANCH   1   6
BRANCH   1  10
ATOM     10  C   UNL     1       0.021  -4.622   0.083  0.00  0.00    +0.137 C 
ATOM     11  S   UNL     1      -0.091  -6.325   0.221  0.00  0.00    -0.018 S 
BRANCH  10  12
ATOM     12  N   UNL     1      -1.096  -3.869   0.105  0.00  0.00    -0.296 N 
ATOM     13  H   UNL     1      -1.526  -3.664   0.951  0.00  0.00    +0.154 HD
BRANCH  12  14
ATOM     14  C   UNL     1      -1.637  -3.383  -1.091  0.00  0.00    +0.052 A 
ATOM     15  C   UNL     1      -0.971  -3.593  -2.291  0.00  0.00    +0.037 A 
ATOM     16  C   UNL     1      -1.507  -3.112  -3.470  0.00  0.00    +0.057 A 
ATOM     17  C   UNL     1      -2.705  -2.421  -3.456  0.00  0.00    +0.014 A 
ATOM     18  C   UNL     1      -3.370  -2.209  -2.263  0.00  0.00    +0.022 A 
ATOM     19  C   UNL     1      -2.843  -2.693  -1.080  0.00  0.00    +0.062 A 
ATOM     20 CL   UNL     1      -3.683  -2.433   0.417  0.00  0.00    -0.082 Cl
BRANCH  16  21
ATOM     21  C   UNL     1      -0.785  -3.340  -4.772  0.00  0.00    +0.417 C 
ATOM     22  F   UNL     1      -1.216  -4.543  -5.340  0.00  0.00    -0.166 F 
ATOM     23  F   UNL     1      -1.061  -2.285  -5.649  0.00  0.00    -0.166 F 
ATOM     24  F   UNL     1       0.593  -3.403  -4.537  0.00  0.00    -0.166 F 
ENDBRANCH  16  21
ENDBRANCH  12  14
ENDBRANCH  10  12
ENDBRANCH   1  10
BRANCH   1  25
ATOM     25  C   UNL     1       2.431  -4.857  -0.186  0.00  0.00    +0.112 C 
BRANCH  25  26
ATOM     26  C   UNL     1       3.010  -5.151   1.200  0.00  0.00    +0.054 C 
BRANCH  26  27
ATOM     27  C   UNL     1       4.248  -5.998   1.058  0.00  0.00    -0.042 A 
ATOM     28  C   UNL     1       4.146  -7.376   1.056  0.00  0.00    +0.007 A 
ATOM     29  C   UNL     1       5.279  -8.157   0.926  0.00  0.00    +0.049 A 
ATOM     30  C   UNL     1       6.522  -7.558   0.797  0.00  0.00    +0.161 A 
ATOM     31  C   UNL     1       6.625  -6.170   0.798  0.00  0.00    +0.162 A 
ATOM     32  C   UNL     1       5.485  -5.394   0.924  0.00  0.00    +0.053 A 
BRANCH  31  33
ATOM     33  O   UNL     1       7.843  -5.578   0.672  0.00  0.00    -0.491 OA
ATOM     34  C   UNL     1       7.873  -4.149   0.681  0.00  0.00    +0.277 C 
ENDBRANCH  31  33
BRANCH  30  35
ATOM     35  O   UNL     1       7.638  -8.325   0.669  0.00  0.00    -0.491 OA
ATOM     36  C   UNL     1       7.456  -9.742   0.677  0.00  0.00    +0.277 C 
ENDBRANCH  30  35
ENDBRANCH  26  27
ENDBRANCH  25  26
ENDBRANCH   1  25
TORSDOF 10
