REMARK  Name = ZINC09925540
REMARK  7 active torsions:
REMARK  status: ('A' for Active; 'I' for Inactive)
REMARK    1  A    between atoms: C_4  and  N_16
REMARK    2  A    between atoms: C_5  and  C_7
REMARK    3  A    between atoms: N_9  and  C_10
REMARK    4  A    between atoms: C_17  and  C_19
REMARK    5  A    between atoms: C_22  and  O_26
REMARK    6  A    between atoms: O_26  and  C_27
REMARK    7  A    between atoms: C_27  and  C_28
REMARK                            x       y       z     vdW  Elec       q    Type
REMARK                         _______ _______ _______ _____ _____    ______ ____
ROOT
ATOM      1  N   UNL     1      -1.245  -2.110  -0.013  0.00  0.00    -0.281 N 
ATOM      2  C   UNL     1      -1.176  -0.898   0.573  0.00  0.00    +0.248 C 
ATOM      3  O   UNL     1      -2.155  -0.433   1.123  0.00  0.00    -0.270 OA
ATOM      4  H   UNL     1      -0.484  -2.453  -0.508  0.00  0.00    +0.155 HD
ENDROOT
BRANCH   2   5
ATOM      5  C   UNL     1       0.087  -0.137   0.547  0.00  0.00    +0.038 A 
ATOM      6  C   UNL     1       0.161   1.120   1.155  0.00  0.00    +0.017 A 
ATOM      7  C   UNL     1       1.341   1.828   1.129  0.00  0.00    +0.047 A 
ATOM      8  C   UNL     1       2.460   1.295   0.500  0.00  0.00    +0.135 A 
ATOM      9  C   UNL     1       2.392   0.045  -0.107  0.00  0.00    +0.060 A 
ATOM     10  C   UNL     1       1.214  -0.670  -0.085  0.00  0.00    +0.032 A 
ATOM     11 BR   UNL     1       3.917  -0.674  -0.962  0.00  0.00    -0.046 Br
BRANCH   8  12
ATOM     12  O   UNL     1       3.622   1.996   0.476  0.00  0.00    -0.488 OA
BRANCH  12  13
ATOM     13  C   UNL     1       3.623   3.272   1.118  0.00  0.00    +0.260 C 
BRANCH  13  14
ATOM     14  C   UNL     1       5.008   3.907   0.990  0.00  0.00    +0.156 C 
ATOM     15  C   UNL     1       5.054   5.231   1.783  0.00  0.00    +0.037 C 
ATOM     16  C   UNL     1       5.894   6.145   0.848  0.00  0.00    +0.031 C 
ATOM     17  C   UNL     1       5.450   5.631  -0.545  0.00  0.00    +0.160 C 
ATOM     18  O   UNL     1       5.277   4.214  -0.384  0.00  0.00    -0.373 OA
ENDBRANCH  13  14
ENDBRANCH  12  13
ENDBRANCH   8  12
ENDBRANCH   2   5
BRANCH   1  22
ATOM     19  C   UNL     1      -4.727  -4.381   0.297  0.00  0.00    +0.001 A 
ATOM     20  C   UNL     1      -4.800  -3.001   0.202  0.00  0.00    +0.002 A 
ATOM     21  C   UNL     1      -3.649  -2.246   0.100  0.00  0.00    +0.024 A 
ATOM     22  C   UNL     1      -2.407  -2.869   0.091  0.00  0.00    +0.046 A 
ATOM     23  C   UNL     1      -2.331  -4.266   0.181  0.00  0.00    +0.058 A 
ATOM     24  C   UNL     1      -3.504  -5.016   0.290  0.00  0.00    +0.015 A 
BRANCH  23  25
ATOM     25  C   UNL     1      -1.018  -4.940   0.167  0.00  0.00    +0.246 C 
ATOM     26  O   UNL     1       0.003  -4.281   0.174  0.00  0.00    -0.270 OA
ATOM     27  N   UNL     1      -0.952  -6.286   0.144  0.00  0.00    -0.308 N 
ATOM     28  H   UNL     1      -1.768  -6.812   0.138  0.00  0.00    +0.149 HD
BRANCH  27  29
ATOM     29  C   UNL     1       0.351  -6.955   0.130  0.00  0.00    +0.073 C 
ATOM     30  C   UNL     1       0.858  -7.053  -1.310  0.00  0.00    +0.022 C 
ATOM     31  C   UNL     1       2.219  -7.752  -1.326  0.00  0.00    +0.002 C 
ATOM     32  C   UNL     1       2.077  -9.158  -0.739  0.00  0.00    +0.000 C 
ATOM     33  C   UNL     1       1.570  -9.060   0.702  0.00  0.00    +0.002 C 
ATOM     34  C   UNL     1       0.209  -8.361   0.717  0.00  0.00    +0.022 C 
ENDBRANCH  27  29
ENDBRANCH  23  25
ENDBRANCH   1  22
TORSDOF 7
