REMARK  Name = ZINC13134113
REMARK  7 active torsions:
REMARK  status: ('A' for Active; 'I' for Inactive)
REMARK    1  A    between atoms: C_5  and  C_7
REMARK    2  A    between atoms: C_7  and  C_8
REMARK    3  A    between atoms: C_11  and  S_14
REMARK    4  A    between atoms: N_12  and  N_13
REMARK    5  A    between atoms: S_14  and  C_15
REMARK    6  A    between atoms: C_15  and  C_16
REMARK    7  A    between atoms: C_21  and  C_24
REMARK                            x       y       z     vdW  Elec       q    Type
REMARK                         _______ _______ _______ _____ _____    ______ ____
ROOT
ATOM      1  S   UNL     1      -2.689   0.750   0.019  0.00  0.00    -0.075 S 
ENDROOT
BRANCH   1   5
ATOM      2  C   UNL     1      -6.079   2.680   0.046  0.00  0.00    +0.155 A 
ATOM      3  N   UNL     1      -5.205   3.646   0.046  0.00  0.00    -0.132 NA
ATOM      4  N   UNL     1      -4.014   3.163   0.038  0.00  0.00    -0.121 NA
ATOM      5  C   UNL     1      -4.064   1.851   0.031  0.00  0.00    +0.209 A 
ATOM      6  N   UNL     1      -5.384   1.502   0.030  0.00  0.00    -0.228 N 
BRANCH   6   7
ATOM      7  N   UNL     1      -5.903   0.238   0.019  0.00  0.00    -0.295 N 
ATOM      8  H   UNL     1      -6.039  -0.105   0.958  0.00  0.00    +0.163 HD
ATOM      9  H   UNL     1      -6.764   0.205  -0.506  0.00  0.00    +0.163 HD
ENDBRANCH   6   7
BRANCH   2  10
ATOM     10  C   UNL     1      -7.579   2.832   0.054  0.00  0.00    +0.116 C 
BRANCH  10  15
ATOM     11  C   UNL     1      -9.097   1.815  -3.249  0.00  0.00    +0.000 A 
ATOM     12  C   UNL     1      -9.017   2.995  -3.966  0.00  0.00    +0.003 A 
ATOM     13  C   UNL     1      -8.472   4.122  -3.383  0.00  0.00    +0.038 A 
ATOM     14  C   UNL     1      -8.009   4.072  -2.079  0.00  0.00    +0.127 A 
ATOM     15  C   UNL     1      -8.085   2.889  -1.364  0.00  0.00    -0.005 A 
ATOM     16  C   UNL     1      -8.632   1.763  -1.949  0.00  0.00    +0.007 A 
ATOM     17  F   UNL     1      -7.481   5.176  -1.506  0.00  0.00    -0.205 F 
ENDBRANCH  10  15
ENDBRANCH   2  10
ENDBRANCH   1   5
BRANCH   1  18
ATOM     18  C   UNL     1      -1.330   1.944   0.019  0.00  0.00    +0.173 C 
BRANCH  18  19
ATOM     19  C   UNL     1      -0.014   1.209   0.009  0.00  0.00    +0.229 C 
ATOM     20  O   UNL     1       0.002  -0.004   0.002  0.00  0.00    -0.275 OA
ATOM     21  N   UNL     1       1.143   1.898   0.001  0.00  0.00    -0.264 N 
ATOM     22  C   UNL     1       2.356   1.220  -0.014  0.00  0.00    +0.165 A 
ATOM     23  N   UNL     1       3.584   1.704  -0.023  0.00  0.00    -0.225 NA
ATOM     24  C   UNL     1       4.639   0.904  -0.037  0.00  0.00    +0.080 A 
ATOM     25  C   UNL     1       4.453  -0.451  -0.041  0.00  0.00    +0.076 A 
ATOM     26  S   UNL     1       2.668  -0.540  -0.018  0.00  0.00    -0.060 S 
ATOM     27  H   UNL     1       1.130   2.868   0.007  0.00  0.00    +0.157 HD
BRANCH  24  28
ATOM     28  C   UNL     1       6.010   1.471  -0.046  0.00  0.00    +0.001 A 
ATOM     29  C   UNL     1       7.117   0.625  -0.054  0.00  0.00    +0.013 A 
ATOM     30  C   UNL     1       8.389   1.157  -0.067  0.00  0.00    +0.039 A 
ATOM     31  C   UNL     1       8.568   2.531  -0.063  0.00  0.00    +0.123 A 
ATOM     32  C   UNL     1       7.471   3.376  -0.050  0.00  0.00    +0.039 A 
ATOM     33  C   UNL     1       6.194   2.853  -0.041  0.00  0.00    +0.013 A 
ATOM     34  F   UNL     1       9.816   3.048  -0.070  0.00  0.00    -0.205 F 
ENDBRANCH  24  28
ENDBRANCH  18  19
ENDBRANCH   1  18
TORSDOF 7
