REMARK  Name = ZINC30830808
REMARK  7 active torsions:
REMARK  status: ('A' for Active; 'I' for Inactive)
REMARK    1  A    between atoms: C_4  and  C_7
REMARK    2  A    between atoms: C_8  and  C_9
REMARK    3  A    between atoms: N_14  and  C_17
REMARK    4  A    between atoms: C_20  and  N_23
REMARK    5  A    between atoms: N_23  and  C_24
REMARK    6  A    between atoms: C_24  and  N_26
REMARK    7  A    between atoms: C_27  and  C_29
REMARK                            x       y       z     vdW  Elec       q    Type
REMARK                         _______ _______ _______ _____ _____    ______ ____
ROOT
ATOM      1  C   UNL     1       5.503  -0.504  -2.308  0.00  0.00    +0.030 A 
ATOM      2  C   UNL     1       6.397   0.390  -2.882  0.00  0.00    +0.025 A 
ATOM      3  C   UNL     1       7.255  -0.035  -3.877  0.00  0.00    +0.025 A 
ATOM      4  C   UNL     1       7.217  -1.353  -4.311  0.00  0.00    +0.033 A 
ATOM      5  C   UNL     1       6.318  -2.246  -3.741  0.00  0.00    +0.025 A 
ATOM      6  C   UNL     1       5.464  -1.823  -2.743  0.00  0.00    +0.025 A 
ENDROOT
BRANCH   1  12
ATOM      7  C   UNL     1       1.612   2.230   0.166  0.00  0.00    +0.240 C 
ATOM      8  O   UNL     1       0.456   1.871   0.047  0.00  0.00    -0.271 OA
ATOM      9  N   UNL     1       2.614   1.346  -0.010  0.00  0.00    -0.295 N 
ATOM     10  C   UNL     1       2.338  -0.031  -0.446  0.00  0.00    +0.127 C 
ATOM     11  C   UNL     1       3.237  -0.344  -1.652  0.00  0.00    +0.124 C 
ATOM     12  N   UNL     1       4.636  -0.075  -1.296  0.00  0.00    -0.327 N 
ATOM     13  C   UNL     1       4.845   1.347  -0.993  0.00  0.00    +0.124 C 
ATOM     14  C   UNL     1       4.012   1.731   0.234  0.00  0.00    +0.127 C 
BRANCH   7  16
ATOM     15  C   UNL     1       0.921   4.532   0.567  0.00  0.00    +0.013 C 
ATOM     16  C   UNL     1       1.915   3.623   0.500  0.00  0.00    +0.068 C 
BRANCH  15  20
ATOM     17  C   UNL     1       1.797   8.564   1.554  0.00  0.00    +0.000 A 
ATOM     18  C   UNL     1       0.490   8.185   1.301  0.00  0.00    +0.001 A 
ATOM     19  C   UNL     1       0.197   6.876   0.980  0.00  0.00    +0.008 A 
ATOM     20  C   UNL     1       1.225   5.931   0.909  0.00  0.00    -0.025 A 
ATOM     21  C   UNL     1       2.542   6.321   1.170  0.00  0.00    +0.008 A 
ATOM     22  C   UNL     1       2.820   7.634   1.485  0.00  0.00    +0.001 A 
ENDBRANCH  15  20
ENDBRANCH   7  16
ENDBRANCH   1  12
BRANCH   4  23
ATOM     23  N   UNL     1       8.084  -1.783  -5.324  0.00  0.00    -0.297 N 
ATOM     24  H   UNL     1       9.148  -1.505  -5.291  0.00  0.00    +0.154 HD
BRANCH  23  25
ATOM     25  C   UNL     1       7.615  -2.538  -6.337  0.00  0.00    +0.141 C 
ATOM     26  S   UNL     1       5.986  -3.061  -6.332  0.00  0.00    -0.018 S 
BRANCH  25  27
ATOM     27  N   UNL     1       8.430  -2.879  -7.356  0.00  0.00    -0.264 N 
ATOM     28  C   UNL     1       7.961  -3.633  -8.370  0.00  0.00    +0.250 C 
ATOM     29  O   UNL     1       6.804  -4.005  -8.366  0.00  0.00    -0.270 OA
ATOM     30  H   UNL     1       9.477  -2.542  -7.359  0.00  0.00    +0.157 HD
BRANCH  28  31
ATOM     31  C   UNL     1       8.853  -4.008  -9.485  0.00  0.00    +0.037 A 
ATOM     32  C   UNL     1      10.182  -3.577  -9.495  0.00  0.00    +0.014 A 
ATOM     33  C   UNL     1      11.012  -3.935 -10.537  0.00  0.00    +0.021 A 
ATOM     34  C   UNL     1      10.527  -4.710 -11.578  0.00  0.00    +0.041 A 
ATOM     35  C   UNL     1       9.209  -5.135 -11.576  0.00  0.00    +0.021 A 
ATOM     36  C   UNL     1       8.371  -4.789 -10.537  0.00  0.00    +0.014 A 
ATOM     37 CL   UNL     1      11.576  -5.150 -12.889  0.00  0.00    -0.084 Cl
ENDBRANCH  28  31
ENDBRANCH  25  27
ENDBRANCH  23  25
ENDBRANCH   4  23
TORSDOF 7
