REMARK  Name = ZINC46587840
REMARK  7 active torsions:
REMARK  status: ('A' for Active; 'I' for Inactive)
REMARK    1  A    between atoms: C_1  and  C_2
REMARK    2  A    between atoms: N_4  and  C_5
REMARK    3  A    between atoms: C_9  and  N_11
REMARK    4  A    between atoms: C_15  and  S_17
REMARK    5  A    between atoms: S_17  and  C_18
REMARK    6  A    between atoms: C_18  and  C_19
REMARK    7  A    between atoms: N_21  and  C_22
REMARK                            x       y       z     vdW  Elec       q    Type
REMARK                         _______ _______ _______ _____ _____    ______ ____
ROOT
ATOM      1  S   UNL     1      -4.649 -10.291   0.779  0.00  0.00    -0.088 S 
ENDROOT
BRANCH   1   6
ATOM      2  N   UNL     1      -3.529  -4.678  -0.145  0.00  0.00    -0.292 N 
ATOM      3  C   UNL     1      -3.555  -6.050   0.074  0.00  0.00    +0.187 A 
ATOM      4  N   UNL     1      -2.550  -6.898   0.180  0.00  0.00    -0.125 NA
ATOM      5  N   UNL     1      -2.801  -8.233   0.400  0.00  0.00    -0.133 NA
ATOM      6  C   UNL     1      -4.046  -8.658   0.503  0.00  0.00    +0.160 A 
ATOM      7  S   UNL     1      -4.956  -7.136   0.295  0.00  0.00    -0.024 S 
ATOM      8  H   UNL     1      -4.359  -4.190  -0.265  0.00  0.00    +0.154 HD
BRANCH   2  13
ATOM      9  C   UNL     1       0.025  -3.950  -0.759  0.00  0.00    +0.035 A 
ATOM     10  C   UNL     1       0.110  -2.649  -0.278  0.00  0.00    +0.023 A 
ATOM     11  C   UNL     1      -1.009  -2.029   0.244  0.00  0.00    +0.004 A 
ATOM     12  C   UNL     1      -2.216  -2.699   0.288  0.00  0.00    +0.023 A 
ATOM     13  C   UNL     1      -2.308  -4.000  -0.191  0.00  0.00    +0.035 A 
ATOM     14  C   UNL     1      -1.187  -4.624  -0.720  0.00  0.00    +0.046 A 
BRANCH   9  18
ATOM     15  C   UNL     1       2.267  -6.022  -2.960  0.00  0.00    +0.109 C 
ATOM     16  C   UNL     1       1.037  -5.424  -2.328  0.00  0.00    +0.214 C 
ATOM     17  O   UNL     1      -0.062  -5.704  -2.756  0.00  0.00    -0.276 OA
ATOM     18  N   UNL     1       1.159  -4.577  -1.287  0.00  0.00    -0.286 N 
ATOM     19  H   UNL     1       2.033  -4.402  -0.903  0.00  0.00    +0.155 HD
ENDBRANCH   9  18
ENDBRANCH   2  13
ENDBRANCH   1   6
BRANCH   1  20
ATOM     20  C   UNL     1      -3.146 -11.300   0.896  0.00  0.00    +0.172 C 
BRANCH  20  21
ATOM     21  C   UNL     1      -3.524 -12.739   1.135  0.00  0.00    +0.227 C 
ATOM     22  O   UNL     1      -4.693 -13.053   1.218  0.00  0.00    -0.275 OA
ATOM     23  N   UNL     1      -2.564 -13.677   1.256  0.00  0.00    -0.285 N 
ATOM     24  H   UNL     1      -1.630 -13.416   1.272  0.00  0.00    +0.155 HD
BRANCH  23  25
ATOM     25  C   UNL     1      -2.915 -15.029   1.361  0.00  0.00    +0.037 A 
ATOM     26  C   UNL     1      -2.163 -15.882   2.158  0.00  0.00    +0.027 A 
ATOM     27  C   UNL     1      -2.507 -17.216   2.263  0.00  0.00    +0.051 A 
ATOM     28  C   UNL     1      -3.603 -17.705   1.574  0.00  0.00    +0.167 A 
ATOM     29  C   UNL     1      -4.361 -16.851   0.774  0.00  0.00    +0.169 A 
ATOM     30  C   UNL     1      -4.019 -15.515   0.672  0.00  0.00    +0.072 A 
ATOM     31  O   UNL     1      -5.379 -17.577   0.212  0.00  0.00    -0.447 OA
ATOM     32  C   UNL     1      -4.919 -18.934   0.292  0.00  0.00    +0.254 C 
ATOM     33  O   UNL     1      -4.152 -18.960   1.505  0.00  0.00    -0.448 OA
ATOM     34  C   UNL     1      -4.057 -19.301  -0.920  0.00  0.00    +0.093 C 
ATOM     35  C   UNL     1      -4.393 -20.794  -1.179  0.00  0.00    +0.008 C 
ATOM     36  C   UNL     1      -5.907 -20.868  -0.858  0.00  0.00    +0.008 C 
ATOM     37  C   UNL     1      -6.087 -19.918   0.347  0.00  0.00    +0.093 C 
ENDBRANCH  23  25
ENDBRANCH  20  21
ENDBRANCH   1  20
TORSDOF 6
