REMARK  Name = ZINC21157939
REMARK  8 active torsions:
REMARK  status: ('A' for Active; 'I' for Inactive)
REMARK    1  A    between atoms: C_1  and  O_2
REMARK    2  A    between atoms: O_2  and  C_3
REMARK    3  A    between atoms: C_3  and  C_5
REMARK    4  A    between atoms: C_9  and  N_10
REMARK    5  A    between atoms: C_11  and  C_13
REMARK    6  A    between atoms: C_13  and  S_14
REMARK    7  A    between atoms: S_14  and  C_15
REMARK    8  A    between atoms: C_18  and  C_21
REMARK                            x       y       z     vdW  Elec       q    Type
REMARK                         _______ _______ _______ _____ _____    ______ ____
ROOT
ATOM      1  N   UNL     1      -1.444  -2.342   2.361  0.00  0.00    -0.279 N 
ATOM      2  C   UNL     1      -2.307  -3.210   2.925  0.00  0.00    +0.228 C 
ATOM      3  O   UNL     1      -2.090  -4.402   2.872  0.00  0.00    -0.275 OA
ATOM      4  H   UNL     1      -1.618  -1.389   2.404  0.00  0.00    +0.155 HD
ENDROOT
BRANCH   1   9
ATOM      5  C   UNL     1       0.680  -2.076   1.092  0.00  0.00    +0.091 A 
ATOM      6  C   UNL     1       1.788  -2.818   0.492  0.00  0.00    -0.021 A 
ATOM      7  C   UNL     1       1.694  -4.152   0.630  0.00  0.00    -0.004 A 
ATOM      8  S   UNL     1       0.183  -4.404   1.528  0.00  0.00    -0.077 S 
ATOM      9  C   UNL     1      -0.308  -2.812   1.721  0.00  0.00    +0.086 A 
ATOM     10  C   UNL     1       2.855  -4.866  -0.007  0.00  0.00    +0.043 C 
ATOM     11  C   UNL     1       3.490  -3.817  -0.947  0.00  0.00    +0.010 C 
ATOM     12  C   UNL     1       3.071  -2.495  -0.272  0.00  0.00    +0.037 C 
BRANCH   5  13
ATOM     13  C   UNL     1       0.621  -0.614   1.034  0.00  0.00    +0.342 C 
ATOM     14  O   UNL     1       1.131   0.051   1.916  0.00  0.00    -0.245 OA
BRANCH  13  16
ATOM     15  C   UNL     1      -0.017   1.425   0.010  0.00  0.00    +0.280 C 
ATOM     16  O   UNL     1       0.002  -0.004   0.002  0.00  0.00    -0.464 OA
ENDBRANCH  13  16
ENDBRANCH   5  13
ENDBRANCH   1   9
BRANCH   2  17
ATOM     17  C   UNL     1      -3.542  -2.700   3.622  0.00  0.00    +0.173 C 
BRANCH  17  18
ATOM     18  S   UNL     1      -4.493  -4.101   4.271  0.00  0.00    -0.077 S 
BRANCH  18  19
ATOM     19  C   UNL     1      -5.886  -3.349   5.045  0.00  0.00    +0.185 A 
ATOM     20  N   UNL     1      -6.132  -2.059   5.108  0.00  0.00    -0.201 NA
ATOM     21  H   UNL     1      -6.985  -4.957   5.783  0.00  0.00    +0.191 HD
ATOM     22  C   UNL     1      -7.278  -1.850   5.771  0.00  0.00    +0.182 A 
ATOM     23  N   UNL     1      -7.775  -3.010   6.138  0.00  0.00    -0.152 NA
ATOM     24  N   UNL     1      -6.892  -3.998   5.673  0.00  0.00    -0.253 N 
BRANCH  22  25
ATOM     25  C   UNL     1      -7.886  -0.525   6.047  0.00  0.00    +0.021 A 
ATOM     26  C   UNL     1      -7.262   0.638   5.599  0.00  0.00    +0.013 A 
ATOM     27  C   UNL     1      -7.832   1.868   5.858  0.00  0.00    +0.016 A 
ATOM     28  C   UNL     1      -9.021   1.948   6.562  0.00  0.00    +0.018 A 
ATOM     29  C   UNL     1      -9.645   0.796   7.009  0.00  0.00    +0.016 A 
ATOM     30  C   UNL     1      -9.087  -0.439   6.750  0.00  0.00    +0.013 A 
ATOM     31 BR   UNL     1      -9.796   3.636   6.914  0.00  0.00    -0.050 Br
ENDBRANCH  22  25
ENDBRANCH  18  19
ENDBRANCH  17  18
ENDBRANCH   2  17
TORSDOF 7
