REMARK  Name = ZINC50305444
REMARK  4 active torsions:
REMARK  status: ('A' for Active; 'I' for Inactive)
REMARK    1  A    between atoms: C_1  and  C_2
REMARK    2  A    between atoms: C_12  and  C_14
REMARK    3  A    between atoms: C_15  and  N_21
REMARK    4  A    between atoms: C_16  and  C_20
REMARK                            x       y       z     vdW  Elec       q    Type
REMARK                         _______ _______ _______ _____ _____    ______ ____
ROOT
ATOM      1  C   UNL     1      -0.018   1.503   0.010  0.00  0.00    +0.044 C 
ATOM      2  C   UNL     1       0.002  -0.004   0.002  0.00  0.00    -0.049 A 
ATOM      3  C   UNL     1       0.006  -0.698  -1.199  0.00  0.00    +0.005 A 
ATOM      4  C   UNL     1       0.024  -2.068  -1.235  0.00  0.00    +0.029 A 
ATOM      5  C   UNL     1       0.040  -2.822  -0.038  0.00  0.00    +0.080 A 
ATOM      6  C   UNL     1       0.036  -2.081   1.166  0.00  0.00    +0.041 A 
ATOM      7  C   UNL     1       0.023  -0.709   1.192  0.00  0.00    +0.020 A 
ATOM      8  S   UNL     1       0.060  -3.361   2.397  0.00  0.00    -0.052 S 
ATOM      9  C   UNL     1       0.073  -4.752   1.275  0.00  0.00    +0.166 A 
ATOM     10  N   UNL     1       0.059  -4.165   0.101  0.00  0.00    -0.225 NA
ATOM     11  N   UNL     1       0.094  -6.105   1.569  0.00  0.00    -0.259 N 
ATOM     12  C   UNL     1       0.101  -7.011   0.572  0.00  0.00    +0.272 C 
ATOM     13  O   UNL     1       0.089  -6.641  -0.587  0.00  0.00    -0.268 OA
ATOM     14  H   UNL     1       0.103  -6.400   2.493  0.00  0.00    +0.157 HD
ENDROOT
BRANCH  12  15
ATOM     15  C   UNL     1       0.123  -8.451   0.884  0.00  0.00    +0.168 A 
ATOM     16  C   UNL     1       0.133  -9.518  -0.051  0.00  0.00    +0.078 A 
ATOM     17  C   UNL     1       0.153 -10.654   0.695  0.00  0.00    +0.054 A 
ATOM     18  N   UNL     1       0.155 -10.274   2.000  0.00  0.00    -0.279 N 
ATOM     19  H   UNL     1       0.168 -10.882   2.755  0.00  0.00    +0.189 HD
ATOM     20  N   UNL     1       0.143  -8.993   2.088  0.00  0.00    -0.167 NA
ATOM     21  C   UNL     1       0.170 -12.068   0.174  0.00  0.00    +0.067 C 
BRANCH  16  22
ATOM     22  N   UNL     1       0.123  -9.421  -1.450  0.00  0.00    -0.355 N 
ATOM     23  H   UNL     1       0.108  -8.549  -1.876  0.00  0.00    +0.142 HD
ATOM     24  H   UNL     1       0.131 -10.225  -1.993  0.00  0.00    +0.142 HD
ENDBRANCH  16  22
ENDBRANCH  12  15
TORSDOF 2
