REMARK  Name = ZINC24028573
REMARK  6 active torsions:
REMARK  status: ('A' for Active; 'I' for Inactive)
REMARK    1  A    between atoms: C_4  and  S_7
REMARK    2  A    between atoms: S_7  and  N_10
REMARK    3  A    between atoms: C_13  and  C_16
REMARK    4  A    between atoms: N_18  and  C_19
REMARK    5  A    between atoms: C_23  and  N_25
REMARK    6  A    between atoms: C_26  and  C_28
REMARK                            x       y       z     vdW  Elec       q    Type
REMARK                         _______ _______ _______ _____ _____    ______ ____
ROOT
ATOM      1  C   UNL     1       3.525  -0.620   5.668  0.00  0.00    +0.220 C 
ATOM      2  O   UNL     1       3.314   0.546   5.928  0.00  0.00    -0.275 OA
ATOM      3  N   UNL     1       3.162  -1.581   6.541  0.00  0.00    -0.285 N 
ATOM      4  H   UNL     1       3.270  -2.515   6.305  0.00  0.00    +0.155 HD
ENDROOT
BRANCH   1   8
ATOM      5  N   UNL     1       4.385  -1.089   1.550  0.00  0.00    -0.177 NA
ATOM      6  C   UNL     1       5.208  -0.107   2.267  0.00  0.00    +0.110 C 
ATOM      7  C   UNL     1       4.498   0.275   3.570  0.00  0.00    +0.030 C 
ATOM      8  C   UNL     1       4.193  -0.994   4.370  0.00  0.00    +0.078 C 
ATOM      9  C   UNL     1       3.262  -1.899   3.560  0.00  0.00    +0.030 C 
ATOM     10  C   UNL     1       3.953  -2.302   2.259  0.00  0.00    +0.110 C 
BRANCH   5  11
ATOM     11  S   UNL     1       3.945  -0.832  -0.026  0.00  0.00    +0.061 S 
ATOM     12  O   UNL     1       3.671  -2.110  -0.585  0.00  0.00    -0.153 OA
ATOM     13  O   UNL     1       4.912   0.050  -0.579  0.00  0.00    -0.153 OA
BRANCH  11  17
ATOM     14  C   UNL     1       0.021   1.424   0.029  0.00  0.00    +0.000 A 
ATOM     15  C   UNL     1       1.216   2.117   0.024  0.00  0.00    +0.002 A 
ATOM     16  C   UNL     1       2.415   1.428   0.008  0.00  0.00    +0.028 A 
ATOM     17  C   UNL     1       2.417   0.046  -0.004  0.00  0.00    +0.105 A 
ATOM     18  C   UNL     1       1.222  -0.648   0.002  0.00  0.00    +0.028 A 
ATOM     19  C   UNL     1       0.023   0.041   0.017  0.00  0.00    +0.002 A 
ENDBRANCH  11  17
ENDBRANCH   5  11
ENDBRANCH   1   8
BRANCH   3  20
ATOM     20  C   UNL     1       2.631  -1.230   7.787  0.00  0.00    +0.035 A 
ATOM     21  C   UNL     1       2.917  -2.000   8.907  0.00  0.00    +0.023 A 
ATOM     22  C   UNL     1       2.393  -1.654  10.137  0.00  0.00    +0.004 A 
ATOM     23  C   UNL     1       1.581  -0.543  10.258  0.00  0.00    +0.023 A 
ATOM     24  C   UNL     1       1.290   0.231   9.142  0.00  0.00    +0.035 A 
ATOM     25  C   UNL     1       1.821  -0.110   7.905  0.00  0.00    +0.046 A 
BRANCH  24  26
ATOM     26  N   UNL     1       0.468   1.356   9.264  0.00  0.00    -0.281 N 
ATOM     27  C   UNL     1       0.517   2.108  10.382  0.00  0.00    +0.255 C 
ATOM     28  O   UNL     1       1.214   1.762  11.318  0.00  0.00    -0.269 OA
ATOM     29  H   UNL     1      -0.138   1.595   8.545  0.00  0.00    +0.155 HD
BRANCH  27  30
ATOM     30  C   UNL     1      -0.269   3.342  10.470  0.00  0.00    +0.074 A 
ATOM     31  C   UNL     1      -0.354   4.251  11.514  0.00  0.00    +0.021 A 
ATOM     32  C   UNL     1      -1.184   5.326  11.302  0.00  0.00    +0.008 A 
ATOM     33  C   UNL     1      -1.845   5.426  10.123  0.00  0.00    +0.046 A 
ATOM     34  S   UNL     1      -1.357   4.069   9.261  0.00  0.00    -0.092 S 
ENDBRANCH  27  30
ENDBRANCH  24  26
ENDBRANCH   3  20
TORSDOF 6
