REMARK  Name = ZINC32871812
REMARK  5 active torsions:
REMARK  status: ('A' for Active; 'I' for Inactive)
REMARK    1  A    between atoms: C_4  and  S_11
REMARK    2  A    between atoms: C_5  and  C_7
REMARK    3  A    between atoms: S_11  and  N_14
REMARK    4  A    between atoms: N_14  and  C_15
REMARK    5  A    between atoms: C_29  and  C_32
REMARK                            x       y       z     vdW  Elec       q    Type
REMARK                         _______ _______ _______ _____ _____    ______ ____
ROOT
ATOM      1  C   UNL     1       0.347   1.119  -0.907  0.00  0.00    +0.203 A 
ATOM      2  C   UNL     1       1.437   1.946  -1.274  0.00  0.00    +0.166 A 
ATOM      3  N   UNL     1       2.671   1.492  -1.203  0.00  0.00    -0.227 NA
ATOM      4  C   UNL     1       2.897   0.239  -0.782  0.00  0.00    +0.091 A 
ATOM      5  C   UNL     1       4.204  -0.267  -0.699  0.00  0.00    +0.030 A 
ATOM      6  C   UNL     1       4.409  -1.543  -0.269  0.00  0.00    +0.002 A 
ATOM      7  C   UNL     1       3.338  -2.357   0.092  0.00  0.00    +0.002 A 
ATOM      8  C   UNL     1       2.057  -1.898   0.024  0.00  0.00    +0.030 A 
ATOM      9  C   UNL     1       1.809  -0.587  -0.416  0.00  0.00    +0.092 A 
ATOM     10  N   UNL     1       0.556  -0.113  -0.492  0.00  0.00    -0.224 NA
ATOM     11  N   UNL     1       1.202   3.241  -1.711  0.00  0.00    -0.312 N 
ATOM     12  C   UNL     1       0.909   4.132  -0.581  0.00  0.00    +0.106 C 
ATOM     13  C   UNL     1       0.514   5.513  -1.108  0.00  0.00    +0.020 C 
ATOM     14  C   UNL     1       1.663   6.082  -1.946  0.00  0.00    +0.016 C 
ATOM     15  C   UNL     1       1.980   5.112  -3.088  0.00  0.00    +0.092 C 
ATOM     16  C   UNL     1       2.332   3.742  -2.503  0.00  0.00    +0.119 C 
ENDROOT
BRANCH  15  17
ATOM     17  C   UNL     1       3.148   5.635  -3.883  0.00  0.00    +0.215 C 
ATOM     18  O   UNL     1       4.162   4.976  -3.977  0.00  0.00    -0.276 OA
ATOM     19  N   UNL     1       3.066   6.836  -4.490  0.00  0.00    -0.329 N 
ATOM     20  H   UNL     1       3.918   7.218  -5.071  0.00  0.00    +0.145 HD
ATOM     21  H   UNL     1       2.146   7.434  -4.405  0.00  0.00    +0.145 HD
ENDBRANCH  15  17
BRANCH   1  22
ATOM     22  N   UNL     1      -0.948   1.607  -0.992  0.00  0.00    -0.074 NA
BRANCH  22  23
ATOM     23  S   UNL     1      -2.219   0.677  -0.480  0.00  0.00    +0.094 S 
ATOM     24  O   UNL     1      -1.900   0.241   0.834  0.00  0.00    -0.148 OA
ATOM     25  O   UNL     1      -3.401   1.408  -0.774  0.00  0.00    -0.148 OA
BRANCH  23  29
ATOM     26  C   UNL     1      -2.302  -3.023  -3.086  0.00  0.00    +0.001 A 
ATOM     27  C   UNL     1      -2.039  -3.136  -1.733  0.00  0.00    +0.002 A 
ATOM     28  C   UNL     1      -2.009  -2.006  -0.939  0.00  0.00    +0.029 A 
ATOM     29  C   UNL     1      -2.252  -0.763  -1.494  0.00  0.00    +0.122 A 
ATOM     30  C   UNL     1      -2.514  -0.651  -2.847  0.00  0.00    +0.081 A 
ATOM     31  C   UNL     1      -2.539  -1.781  -3.643  0.00  0.00    +0.014 A 
BRANCH  30  32
ATOM     32  C   UNL     1      -2.772   0.704  -3.454  0.00  0.00    +0.419 C 
ATOM     33  F   UNL     1      -2.911   0.576  -4.840  0.00  0.00    -0.166 F 
ATOM     34  F   UNL     1      -3.946   1.240  -2.915  0.00  0.00    -0.166 F 
ATOM     35  F   UNL     1      -1.698   1.555  -3.170  0.00  0.00    -0.166 F 
ENDBRANCH  30  32
ENDBRANCH  23  29
ENDBRANCH  22  23
ENDBRANCH   1  22
TORSDOF 5
