REMARK  Name = ZINC66720125
REMARK  9 active torsions:
REMARK  status: ('A' for Active; 'I' for Inactive)
REMARK    1  A    between atoms: C_1  and  C_2
REMARK    2  A    between atoms: C_5  and  N_14
REMARK    3  A    between atoms: C_7  and  C_8
REMARK    4  A    between atoms: N_10  and  C_11
REMARK    5  A    between atoms: C_11  and  C_12
REMARK    6  A    between atoms: C_11  and  C_13
REMARK    7  A    between atoms: C_15  and  C_17
REMARK    8  A    between atoms: C_23  and  C_25
REMARK    9  A    between atoms: C_27  and  C_30
REMARK                            x       y       z     vdW  Elec       q    Type
REMARK                         _______ _______ _______ _____ _____    ______ ____
ROOT
ATOM      1  N   UNL     1      -0.215  -4.107  -0.539  0.00  0.00    -0.278 N 
ATOM      2  C   UNL     1      -0.389  -4.526  -1.808  0.00  0.00    +0.303 C 
ATOM      3  O   UNL     1      -0.533  -3.716  -2.700  0.00  0.00    -0.265 OA
ATOM      4  H   UNL     1      -0.176  -4.753   0.184  0.00  0.00    +0.155 HD
ENDROOT
BRANCH   1   9
ATOM      5  C   UNL     1       0.270   1.436   0.606  0.00  0.00    +0.044 C 
ATOM      6  C   UNL     1       0.143  -0.034   0.299  0.00  0.00    -0.038 A 
ATOM      7  C   UNL     1      -0.483  -0.875   1.198  0.00  0.00    +0.006 A 
ATOM      8  C   UNL     1      -0.602  -2.224   0.921  0.00  0.00    +0.023 A 
ATOM      9  C   UNL     1      -0.093  -2.743  -0.264  0.00  0.00    +0.035 A 
ATOM     10  C   UNL     1       0.537  -1.906  -1.173  0.00  0.00    +0.036 A 
ATOM     11  C   UNL     1       0.652  -0.544  -0.896  0.00  0.00    +0.041 A 
BRANCH  11  12
ATOM     12  C   UNL     1       1.317   0.356  -1.863  0.00  0.00    +0.245 C 
ATOM     13  O   UNL     1       1.315   1.557  -1.676  0.00  0.00    -0.270 OA
ATOM     14  N   UNL     1       1.927  -0.156  -2.950  0.00  0.00    -0.309 N 
ATOM     15  H   UNL     1       1.929  -1.115  -3.099  0.00  0.00    +0.149 HD
BRANCH  14  16
ATOM     16  C   UNL     1       2.586   0.735  -3.908  0.00  0.00    +0.067 C 
ATOM     17  C   UNL     1       4.009   1.033  -3.432  0.00  0.00    +0.027 C 
ATOM     18  C   UNL     1       2.637   0.061  -5.280  0.00  0.00    +0.027 C 
ENDBRANCH  14  16
ENDBRANCH  11  12
ENDBRANCH   1   9
BRANCH   2  19
ATOM     19  C   UNL     1      -0.404  -5.988  -2.116  0.00  0.00    +0.302 C 
ATOM     20  O   UNL     1      -0.260  -6.798  -1.224  0.00  0.00    -0.265 OA
ATOM     21  N   UNL     1      -0.577  -6.407  -3.386  0.00  0.00    -0.285 N 
ATOM     22  C   UNL     1      -0.756  -5.535  -4.561  0.00  0.00    +0.109 C 
ATOM     23  C   UNL     1      -1.507  -6.412  -5.594  0.00  0.00    +0.021 C 
ATOM     24  C   UNL     1      -0.861  -7.802  -5.351  0.00  0.00    +0.030 C 
ATOM     25  C   UNL     1      -0.613  -7.808  -3.828  0.00  0.00    +0.129 C 
BRANCH  25  26
ATOM     26  C   UNL     1       0.704  -8.476  -3.523  0.00  0.00    +0.104 A 
ATOM     27  C   UNL     1       1.765  -7.913  -2.792  0.00  0.00    +0.072 A 
ATOM     28  C   UNL     1       2.762  -8.817  -2.737  0.00  0.00    +0.135 A 
ATOM     29  O   UNL     1       2.364  -9.913  -3.401  0.00  0.00    -0.360 OA
ATOM     30  N   UNL     1       1.055  -9.677  -3.886  0.00  0.00    -0.081 NA
ATOM     31  C   UNL     1       4.090  -8.630  -2.051  0.00  0.00    +0.089 C 
ENDBRANCH  25  26
ENDBRANCH   2  19
TORSDOF 5
