REMARK  Name = ZINC35703556
REMARK  11 active torsions:
REMARK  status: ('A' for Active; 'I' for Inactive)
REMARK    1  A    between atoms: C_1  and  C_2
REMARK    2  A    between atoms: C_2  and  O_3
REMARK    3  A    between atoms: O_3  and  C_4
REMARK    4  A    between atoms: C_4  and  C_6
REMARK    5  A    between atoms: C_7  and  C_33
REMARK    6  A    between atoms: C_11  and  C_13
REMARK    7  A    between atoms: C_18  and  C_19
REMARK    8  A    between atoms: C_20  and  C_23
REMARK    9  A    between atoms: C_24  and  N_26
REMARK   10  A    between atoms: N_26  and  C_27
REMARK   11  A    between atoms: C_27  and  C_28
REMARK                            x       y       z     vdW  Elec       q    Type
REMARK                         _______ _______ _______ _____ _____    ______ ____
ROOT
ATOM      1  C   UNL     1      -2.778  -2.014   0.017  0.00  0.00    +0.091 C 
ATOM      2  C   UNL     1      -2.933  -3.386  -0.024  0.00  0.00    +0.158 C 
ATOM      3  N   UNL     1      -4.142  -3.925  -0.018  0.00  0.00    -0.220 NA
ATOM      4  C   UNL     1      -5.268  -3.243   0.027  0.00  0.00    +0.166 C 
ATOM      5  N   UNL     1      -5.332  -1.878   0.073  0.00  0.00    -0.267 N 
ATOM      6  C   UNL     1      -4.028  -1.164   0.076  0.00  0.00    +0.150 C 
ATOM      7  C   UNL     1      -6.590  -1.311   0.118  0.00  0.00    +0.048 C 
ATOM      8  C   UNL     1      -7.654  -2.144   0.112  0.00  0.00    +0.072 C 
ATOM      9  S   UNL     1      -6.870  -3.743   0.043  0.00  0.00    -0.060 S 
ENDROOT
BRANCH   6  10
ATOM     10  C   UNL     1      -3.958  -0.322   1.324  0.00  0.00    -0.019 A 
ATOM     11  C   UNL     1      -4.501  -0.790   2.506  0.00  0.00    +0.006 A 
ATOM     12  C   UNL     1      -4.437  -0.018   3.650  0.00  0.00    +0.000 A 
ATOM     13  C   UNL     1      -3.829   1.223   3.613  0.00  0.00    +0.000 A 
ATOM     14  C   UNL     1      -3.284   1.691   2.432  0.00  0.00    +0.004 A 
ATOM     15  C   UNL     1      -3.345   0.916   1.288  0.00  0.00    -0.045 A 
ATOM     16  C   UNL     1      -2.747   1.425   0.001  0.00  0.00    +0.044 C 
ENDBRANCH   6  10
BRANCH   2  17
ATOM     17  C   UNL     1      -1.718  -4.276  -0.078  0.00  0.00    +0.435 C 
ATOM     18  F   UNL     1      -0.565  -3.500   0.080  0.00  0.00    -0.164 F 
ATOM     19  F   UNL     1      -1.788  -5.223   0.950  0.00  0.00    -0.164 F 
ATOM     20  F   UNL     1      -1.674  -4.931  -1.313  0.00  0.00    -0.164 F 
ENDBRANCH   2  17
BRANCH   7  21
ATOM     21  C   UNL     1      -6.766   0.147   0.170  0.00  0.00    +0.091 C 
ATOM     22  C   UNL     1      -7.993   0.672   0.354  0.00  0.00    +0.239 C 
ATOM     23  O   UNL     1      -9.044  -0.141   0.622  0.00  0.00    -0.271 OA
BRANCH  22  24
ATOM     24  N   UNL     1      -8.181   2.041   0.269  0.00  0.00    -0.305 N 
ATOM     25  H   UNL     1      -7.445   2.616   0.004  0.00  0.00    +0.149 HD
BRANCH  24  26
ATOM     26  C   UNL     1      -9.489   2.622   0.579  0.00  0.00    +0.179 C 
BRANCH  26  27
ATOM     27  C   UNL     1      -9.463   4.101   0.295  0.00  0.00    +0.122 A 
ATOM     28  C   UNL     1      -9.780   4.684  -0.875  0.00  0.00    +0.046 A 
ATOM     29  C   UNL     1      -9.617   6.077  -0.697  0.00  0.00    +0.041 A 
ATOM     30  C   UNL     1      -9.209   6.262   0.571  0.00  0.00    +0.195 A 
ATOM     31  O   UNL     1      -9.123   5.063   1.169  0.00  0.00    -0.466 OA
ENDBRANCH  26  27
ENDBRANCH  24  26
ENDBRANCH  22  24
ENDBRANCH   7  21
BRANCH   1  32
ATOM     32  C   UNL     1      -1.506  -1.430   0.011  0.00  0.00    +0.339 C 
ATOM     33  O   UNL     1      -0.997  -1.066   1.057  0.00  0.00    -0.245 OA
BRANCH  32  34
ATOM     34  O   UNL     1      -0.842  -1.269  -1.155  0.00  0.00    -0.462 OA
BRANCH  34  36
ATOM     35  C   UNL     1       1.034  -0.534  -2.490  0.00  0.00    +0.048 C 
ATOM     36  C   UNL     1       0.491  -0.759  -1.077  0.00  0.00    +0.229 C 
ENDBRANCH  34  36
ENDBRANCH  32  34
ENDBRANCH   1  32
TORSDOF 9
