REMARK  Name = ZINC13031439
REMARK  7 active torsions:
REMARK  status: ('A' for Active; 'I' for Inactive)
REMARK    1  A    between atoms: C_1  and  O_2
REMARK    2  A    between atoms: O_2  and  C_3
REMARK    3  A    between atoms: C_6  and  C_29
REMARK    4  A    between atoms: C_8  and  S_9
REMARK    5  A    between atoms: S_9  and  N_12
REMARK    6  A    between atoms: C_15  and  C_18
REMARK    7  A    between atoms: C_30  and  C_31
REMARK                            x       y       z     vdW  Elec       q    Type
REMARK                         _______ _______ _______ _____ _____    ______ ____
ROOT
ATOM      1  N   UNL     1       0.999  -2.646  -1.456  0.00  0.00    -0.103 NA
ATOM      2  C   UNL     1       2.144  -3.218  -1.734  0.00  0.00    +0.192 A 
ATOM      3  N   UNL     1       2.932  -3.091  -2.857  0.00  0.00    -0.332 N 
ATOM      4  C   UNL     1       4.103  -3.800  -2.920  0.00  0.00    +0.055 A 
ATOM      5  C   UNL     1       4.455  -4.597  -1.892  0.00  0.00    +0.075 A 
ATOM      6  S   UNL     1       3.101  -4.364  -0.753  0.00  0.00    -0.056 S 
ATOM      7  H   UNL     1       2.663  -2.512  -3.588  0.00  0.00    +0.168 HD
ENDROOT
BRANCH   4   8
ATOM      8  C   UNL     1       4.975  -3.690  -4.109  0.00  0.00    +0.001 A 
ATOM      9  C   UNL     1       4.611  -2.859  -5.169  0.00  0.00    +0.013 A 
ATOM     10  C   UNL     1       5.425  -2.755  -6.279  0.00  0.00    +0.048 A 
ATOM     11  C   UNL     1       6.606  -3.476  -6.344  0.00  0.00    +0.142 A 
ATOM     12  C   UNL     1       6.976  -4.310  -5.287  0.00  0.00    +0.076 A 
ATOM     13  C   UNL     1       6.168  -4.413  -4.170  0.00  0.00    +0.037 A 
ATOM     14  N   UNL     1       8.173  -5.034  -5.373  0.00  0.00    -0.280 N 
ATOM     15  C   UNL     1       9.087  -4.682  -6.303  0.00  0.00    +0.255 C 
ATOM     16  O   UNL     1      10.117  -5.313  -6.415  0.00  0.00    -0.272 OA
ATOM     17  C   UNL     1       8.821  -3.502  -7.203  0.00  0.00    +0.325 C 
ATOM     18  O   UNL     1       7.415  -3.381  -7.434  0.00  0.00    -0.481 OA
ATOM     19  H   UNL     1       8.344  -5.776  -4.772  0.00  0.00    +0.155 HD
ENDBRANCH   4   8
BRANCH   1  20
ATOM     20  S   UNL     1       0.244  -2.961  -0.017  0.00  0.00    +0.105 S 
ATOM     21  O   UNL     1       1.074  -2.422   1.004  0.00  0.00    -0.146 OA
ATOM     22  O   UNL     1      -0.135  -4.330  -0.048  0.00  0.00    -0.146 OA
BRANCH  20  28
ATOM     23  C   UNL     1      -1.199  -0.637   0.010  0.00  0.00    +0.147 A 
ATOM     24  C   UNL     1      -2.374   0.107   0.020  0.00  0.00    +0.048 A 
ATOM     25  C   UNL     1      -3.594  -0.529   0.028  0.00  0.00    +0.011 A 
ATOM     26  C   UNL     1      -3.651  -1.928   0.027  0.00  0.00    -0.023 A 
ATOM     27  C   UNL     1      -2.465  -2.673   0.017  0.00  0.00    +0.040 A 
ATOM     28  C   UNL     1      -1.250  -2.026   0.003  0.00  0.00    +0.154 A 
BRANCH  23  30
ATOM     29  C   UNL     1      -0.017   1.425   0.010  0.00  0.00    +0.277 C 
ATOM     30  O   UNL     1       0.002  -0.004   0.002  0.00  0.00    -0.493 OA
ENDBRANCH  23  30
BRANCH  26  31
ATOM     31  C   UNL     1      -4.950  -2.613   0.036  0.00  0.00    +0.015 C 
ATOM     32  C   UNL     1      -6.095  -1.891   0.045  0.00  0.00    +0.096 C 
BRANCH  32  33
ATOM     33  C   UNL     1      -7.346  -2.550   0.054  0.00  0.00    +0.380 C 
ATOM     34  O   UNL     1      -7.393  -3.774   0.053  0.00  0.00    -0.241 OA
ATOM     35  O   UNL     1      -8.382  -1.897   0.063  0.00  0.00    -0.241 OA
ENDBRANCH  32  33
ENDBRANCH  26  31
ENDBRANCH  20  28
ENDBRANCH   1  20
TORSDOF 6
