REMARK  Name = ZINC27299634
REMARK  7 active torsions:
REMARK  status: ('A' for Active; 'I' for Inactive)
REMARK    1  A    between atoms: C_1  and  C_2
REMARK    2  A    between atoms: C_16  and  C_17
REMARK    3  A    between atoms: N_19  and  C_20
REMARK    4  A    between atoms: C_20  and  C_22
REMARK    5  A    between atoms: C_20  and  C_23
REMARK    6  A    between atoms: C_26  and  N_29
REMARK    7  A    between atoms: C_30  and  C_32
REMARK                            x       y       z     vdW  Elec       q    Type
REMARK                         _______ _______ _______ _____ _____    ______ ____
ROOT
ATOM      1  C   UNL     1      -0.022   1.339   0.198  0.00  0.00    +0.251 C 
ATOM      2  O   UNL     1       0.070   0.133   0.063  0.00  0.00    -0.270 OA
ATOM      3  N   UNL     1      -1.234   1.928   0.180  0.00  0.00    -0.304 N 
ATOM      4  H   UNL     1      -1.318   3.018   0.302  0.00  0.00    +0.150 HD
ENDROOT
BRANCH   1  20
ATOM      5  C   UNL     1       2.826   0.284   0.267  0.00  0.00    +0.046 C 
ATOM      6  C   UNL     1       2.487   1.744   0.414  0.00  0.00    -0.017 A 
ATOM      7  C   UNL     1       3.504   2.685   0.593  0.00  0.00    +0.076 A 
ATOM      8  C   UNL     1       3.085   4.029   0.721  0.00  0.00    +0.116 A 
ATOM      9  N   UNL     1       3.950   5.020   0.894  0.00  0.00    -0.226 NA
ATOM     10  C   UNL     1       5.234   4.806   0.957  0.00  0.00    +0.114 A 
ATOM     11  N   UNL     1       5.757   3.551   0.846  0.00  0.00    -0.296 N 
ATOM     12  C   UNL     1       4.968   2.477   0.668  0.00  0.00    +0.263 A 
ATOM     13  O   UNL     1       5.446   1.360   0.572  0.00  0.00    -0.267 OA
ATOM     14  C   UNL     1       7.216   3.397   0.925  0.00  0.00    +0.126 C 
ATOM     15  C   UNL     1       7.663   3.581   2.374  0.00  0.00    +0.022 C 
ATOM     16  C   UNL     1       7.970   5.039   2.672  0.00  0.00    +0.002 C 
ATOM     17  C   UNL     1       6.732   5.915   2.584  0.00  0.00    +0.008 C 
ATOM     18  C   UNL     1       6.190   5.959   1.157  0.00  0.00    +0.074 C 
ATOM     19  S   UNL     1       1.318   3.919   0.582  0.00  0.00    -0.064 S 
ATOM     20  C   UNL     1       1.185   2.151   0.375  0.00  0.00    +0.079 A 
ENDBRANCH   1  20
BRANCH   3  21
ATOM     21  C   UNL     1      -2.441   1.117  -0.002  0.00  0.00    +0.100 C 
ATOM     22  C   UNL     1      -2.892   0.564   1.351  0.00  0.00    +0.033 C 
BRANCH  21  23
ATOM     23  C   UNL     1      -3.536   1.971  -0.587  0.00  0.00    -0.027 A 
ATOM     24  C   UNL     1      -3.709   3.270  -0.145  0.00  0.00    +0.007 A 
ATOM     25  C   UNL     1      -4.709   4.056  -0.683  0.00  0.00    +0.023 A 
ATOM     26  C   UNL     1      -5.548   3.538  -1.660  0.00  0.00    +0.033 A 
ATOM     27  C   UNL     1      -5.376   2.231  -2.097  0.00  0.00    +0.023 A 
ATOM     28  C   UNL     1      -4.371   1.452  -1.560  0.00  0.00    +0.007 A 
BRANCH  26  29
ATOM     29  N   UNL     1      -6.566   4.330  -2.202  0.00  0.00    -0.285 N 
ATOM     30  C   UNL     1      -7.729   3.765  -2.583  0.00  0.00    +0.220 C 
ATOM     31  O   UNL     1      -7.931   2.589  -2.368  0.00  0.00    -0.275 OA
ATOM     32  H   UNL     1      -6.417   5.414  -2.318  0.00  0.00    +0.155 HD
BRANCH  30  33
ATOM     33  C   UNL     1      -8.779   4.596  -3.275  0.00  0.00    +0.075 C 
ATOM     34  C   UNL     1     -10.073   4.880  -2.510  0.00  0.00    +0.013 C 
ATOM     35  C   UNL     1     -10.078   3.897  -3.682  0.00  0.00    +0.013 C 
ENDBRANCH  30  33
ENDBRANCH  26  29
ENDBRANCH  21  23
ENDBRANCH   3  21
TORSDOF 5
