REMARK  Name = ZINC38653685
REMARK  8 active torsions:
REMARK  status: ('A' for Active; 'I' for Inactive)
REMARK    1  A    between atoms: C_1  and  O_2
REMARK    2  A    between atoms: O_2  and  C_3
REMARK    3  A    between atoms: C_3  and  C_5
REMARK    4  A    between atoms: C_7  and  N_16
REMARK    5  A    between atoms: C_17  and  C_19
REMARK    6  A    between atoms: C_19  and  C_20
REMARK    7  A    between atoms: C_19  and  C_26
REMARK    8  A    between atoms: C_19  and  O_32
REMARK                            x       y       z     vdW  Elec       q    Type
REMARK                         _______ _______ _______ _____ _____    ______ ____
ROOT
ATOM      1  N   UNL     1       0.690  -1.806  -1.909  0.00  0.00    -0.283 N 
ATOM      2  C   UNL     1       0.378  -2.480  -3.033  0.00  0.00    +0.258 C 
ATOM      3  O   UNL     1      -0.773  -2.791  -3.255  0.00  0.00    -0.272 OA
ATOM      4  H   UNL     1       1.597  -1.494  -1.766  0.00  0.00    +0.155 HD
ENDROOT
BRANCH   1   6
ATOM      5  C   UNL     1      -1.686  -2.094  -0.957  0.00  0.00    +0.234 C 
ATOM      6  C   UNL     1      -0.269  -1.564  -0.972  0.00  0.00    +0.053 C 
ATOM      7  C   UNL     1      -0.149  -0.782   0.164  0.00  0.00    +0.019 A 
ATOM      8  C   UNL     1       0.926  -0.029   0.696  0.00  0.00    +0.026 A 
ATOM      9  C   UNL     1       0.757   0.657   1.853  0.00  0.00    +0.019 A 
ATOM     10  C   UNL     1      -0.458   0.642   2.545  0.00  0.00    +0.017 A 
ATOM     11  C   UNL     1      -1.528  -0.057   2.095  0.00  0.00    +0.027 A 
ATOM     12  C   UNL     1      -1.431  -0.800   0.890  0.00  0.00    +0.045 A 
ATOM     13  N   UNL     1      -2.311  -1.548   0.252  0.00  0.00    -0.367 N 
ATOM     14 BR   UNL     1       2.202   1.659   2.550  0.00  0.00    -0.050 Br
ATOM     15  H   UNL     1      -3.224  -1.710   0.536  0.00  0.00    +0.161 HD
BRANCH   5  16
ATOM     16  C   UNL     1      -1.676  -3.600  -0.901  0.00  0.00    +0.335 C 
ATOM     17  O   UNL     1      -1.377  -4.164   0.125  0.00  0.00    -0.248 OA
BRANCH  16  19
ATOM     18  C   UNL     1      -1.968  -5.737  -1.866  0.00  0.00    +0.280 C 
ATOM     19  O   UNL     1      -1.999  -4.314  -1.991  0.00  0.00    -0.466 OA
ENDBRANCH  16  19
ENDBRANCH   5  16
ENDBRANCH   1   6
BRANCH   2  20
ATOM     20  C   UNL     1       1.460  -2.849  -4.016  0.00  0.00    +0.192 C 
BRANCH  20  21
ATOM     21  C   UNL     1       2.105  -4.143  -3.591  0.00  0.00    -0.003 A 
ATOM     22  C   UNL     1       1.324  -5.182  -3.119  0.00  0.00    +0.007 A 
ATOM     23  C   UNL     1       1.915  -6.369  -2.730  0.00  0.00    +0.000 A 
ATOM     24  C   UNL     1       3.287  -6.518  -2.812  0.00  0.00    +0.000 A 
ATOM     25  C   UNL     1       4.068  -5.479  -3.285  0.00  0.00    +0.000 A 
ATOM     26  C   UNL     1       3.476  -4.293  -3.678  0.00  0.00    +0.007 A 
ENDBRANCH  20  21
BRANCH  20  27
ATOM     27  C   UNL     1       0.858  -3.014  -5.387  0.00  0.00    -0.003 A 
ATOM     28  C   UNL     1       1.219  -2.154  -6.408  0.00  0.00    +0.007 A 
ATOM     29  C   UNL     1       0.667  -2.305  -7.667  0.00  0.00    +0.000 A 
ATOM     30  C   UNL     1      -0.245  -3.316  -7.904  0.00  0.00    +0.000 A 
ATOM     31  C   UNL     1      -0.605  -4.176  -6.883  0.00  0.00    +0.000 A 
ATOM     32  C   UNL     1      -0.050  -4.028  -5.626  0.00  0.00    +0.007 A 
ENDBRANCH  20  27
BRANCH  20  33
ATOM     33  O   UNL     1       2.445  -1.814  -4.049  0.00  0.00    -0.371 OA
ATOM     34  H   UNL     1       2.101  -0.951  -4.315  0.00  0.00    +0.212 HD
ENDBRANCH  20  33
ENDBRANCH   2  20
TORSDOF 7
