REMARK  Name = ZINC31310163
REMARK  7 active torsions:
REMARK  status: ('A' for Active; 'I' for Inactive)
REMARK    1  A    between atoms: C_1  and  C_2
REMARK    2  A    between atoms: C_2  and  C_4
REMARK    3  A    between atoms: C_2  and  N_12
REMARK    4  A    between atoms: C_13  and  C_15
REMARK    5  A    between atoms: C_15  and  C_17
REMARK    6  A    between atoms: C_15  and  N_18
REMARK    7  A    between atoms: C_27  and  C_30
REMARK                            x       y       z     vdW  Elec       q    Type
REMARK                         _______ _______ _______ _____ _____    ______ ____
ROOT
ATOM      1  N   UNL     1      -4.347   3.248   6.822  0.00  0.00    +0.389 N 
ATOM      2  C   UNL     1      -4.530   1.988   6.090  0.00  0.00    -0.059 C 
ATOM      3  C   UNL     1      -3.343   1.769   5.150  0.00  0.00    +0.088 C 
ATOM      4  N   UNL     1      -3.241   2.904   4.222  0.00  0.00    -0.319 N 
ATOM      5  C   UNL     1      -3.058   4.165   4.954  0.00  0.00    +0.088 C 
ATOM      6  C   UNL     1      -4.245   4.383   5.894  0.00  0.00    -0.059 C 
ATOM      7  C   UNL     1      -2.216   2.707   3.304  0.00  0.00    +0.121 A 
ATOM      8  C   UNL     1      -1.960   3.675   2.338  0.00  0.00    +0.044 A 
ATOM      9  C   UNL     1      -0.936   3.466   1.431  0.00  0.00    +0.017 A 
ATOM     10  C   UNL     1      -0.200   2.292   1.522  0.00  0.00    +0.073 A 
ATOM     11  C   UNL     1      -0.512   1.372   2.503  0.00  0.00    +0.125 A 
ATOM     12  N   UNL     1      -1.491   1.601   3.358  0.00  0.00    -0.240 NA
ATOM     13  H   UNL     1      -3.402   3.182   7.382  0.00  0.00    -0.081 HD
ENDROOT
BRANCH  10  14
ATOM     14  C   UNL     1       0.924   2.022   0.555  0.00  0.00    +0.419 C 
ATOM     15  F   UNL     1       2.118   2.532   1.074  0.00  0.00    -0.166 F 
ATOM     16  F   UNL     1       0.645   2.640  -0.669  0.00  0.00    -0.166 F 
ATOM     17  F   UNL     1       1.051   0.642   0.362  0.00  0.00    -0.166 F 
ENDBRANCH  10  14
BRANCH   1  18
ATOM     18  C   UNL     1      -5.431   3.457   7.792  0.00  0.00    +0.016 C 
ATOM     19  C   UNL     1      -6.779   3.230   7.106  0.00  0.00    -0.004 C 
BRANCH  18  21
ATOM     20  N   UNL     1      -6.008   2.641  10.055  0.00  0.00    -0.310 N 
ATOM     21  C   UNL     1      -5.278   2.484   8.933  0.00  0.00    +0.200 C 
ATOM     22  O   UNL     1      -4.497   1.560   8.842  0.00  0.00    -0.278 OA
ATOM     23  H   UNL     1      -6.716   3.479  10.137  0.00  0.00    +0.149 HD
BRANCH  20  25
ATOM     24  C   UNL     1      -4.716   2.151  12.072  0.00  0.00    +0.033 C 
ATOM     25  C   UNL     1      -5.860   1.695  11.164  0.00  0.00    +0.101 C 
BRANCH  25  26
ATOM     26  C   UNL     1      -7.141   1.645  11.956  0.00  0.00    -0.009 A 
ATOM     27  C   UNL     1      -7.987   2.738  11.972  0.00  0.00    +0.008 A 
ATOM     28  C   UNL     1      -9.162   2.693  12.698  0.00  0.00    +0.020 A 
ATOM     29  C   UNL     1      -9.492   1.553  13.410  0.00  0.00    +0.042 A 
ATOM     30  C   UNL     1      -8.645   0.459  13.395  0.00  0.00    +0.040 A 
ATOM     31  C   UNL     1      -7.472   0.503  12.663  0.00  0.00    +0.047 A 
ATOM     32 CL   UNL     1      -6.413  -0.873  12.636  0.00  0.00    -0.083 Cl
ATOM     33 CL   UNL     1     -10.967   1.496  14.323  0.00  0.00    -0.083 Cl
ENDBRANCH  25  26
ENDBRANCH  20  25
ENDBRANCH  18  21
ENDBRANCH   1  18
TORSDOF 5
