REMARK  Name = ZINC23590743
REMARK  6 active torsions:
REMARK  status: ('A' for Active; 'I' for Inactive)
REMARK    1  A    between atoms: C_1  and  C_2
REMARK    2  A    between atoms: C_11  and  N_31
REMARK    3  A    between atoms: C_13  and  S_15
REMARK    4  A    between atoms: S_15  and  C_16
REMARK    5  A    between atoms: C_16  and  C_17
REMARK    6  A    between atoms: N_19  and  C_20
REMARK                            x       y       z     vdW  Elec       q    Type
REMARK                         _______ _______ _______ _____ _____    ______ ____
ROOT
ATOM      1  C   UNL     1      -0.421  -1.133  -1.614  0.00  0.00    +0.008 C 
ATOM      2  C   UNL     1       0.933  -0.432  -1.495  0.00  0.00    -0.009 C 
ATOM      3  C   UNL     1       1.636  -0.877  -0.209  0.00  0.00    +0.008 C 
ATOM      4  C   UNL     1       3.081  -0.380  -0.209  0.00  0.00    +0.037 C 
ATOM      5  C   UNL     1       3.087   1.124  -0.471  0.00  0.00    -0.025 A 
ATOM      6  C   UNL     1       2.011   1.730  -1.021  0.00  0.00    -0.004 A 
ATOM      7  S   UNL     1       2.450   3.446  -1.141  0.00  0.00    -0.073 S 
ATOM      8  C   UNL     1       4.073   3.351  -0.458  0.00  0.00    +0.115 A 
ATOM      9  C   UNL     1       4.223   1.975  -0.154  0.00  0.00    +0.051 A 
ATOM     10  C   UNL     1       5.462   1.572   0.425  0.00  0.00    +0.129 A 
ATOM     11  N   UNL     1       6.354   2.539   0.622  0.00  0.00    -0.207 NA
ATOM     12  C   UNL     1       6.147   3.811   0.313  0.00  0.00    +0.191 A 
ATOM     13  N   UNL     1       5.010   4.251  -0.231  0.00  0.00    -0.214 NA
ATOM     14  C   UNL     1       0.724   1.088  -1.438  0.00  0.00    +0.046 C 
ENDROOT
BRANCH  10  15
ATOM     15  N   UNL     1       5.720   0.256   0.763  0.00  0.00    -0.343 N 
ATOM     16  H   UNL     1       6.688  -0.018   1.208  0.00  0.00    +0.144 HD
ATOM     17  H   UNL     1       4.957  -0.516   0.587  0.00  0.00    +0.144 HD
ENDBRANCH  10  15
BRANCH  12  18
ATOM     18  S   UNL     1       7.430   4.974   0.635  0.00  0.00    -0.077 S 
BRANCH  18  19
ATOM     19  C   UNL     1       8.682   3.874   1.342  0.00  0.00    +0.173 C 
BRANCH  19  20
ATOM     20  C   UNL     1       9.907   4.674   1.704  0.00  0.00    +0.227 C 
ATOM     21  O   UNL     1       9.931   5.870   1.503  0.00  0.00    -0.275 OA
ATOM     22  N   UNL     1      10.975   4.060   2.250  0.00  0.00    -0.285 N 
ATOM     23  H   UNL     1      10.924   2.991   2.505  0.00  0.00    +0.155 HD
BRANCH  22  24
ATOM     24  C   UNL     1      12.150   4.783   2.493  0.00  0.00    +0.037 A 
ATOM     25  C   UNL     1      13.386   4.169   2.341  0.00  0.00    +0.027 A 
ATOM     26  C   UNL     1      14.548   4.881   2.575  0.00  0.00    +0.051 A 
ATOM     27  C   UNL     1      14.476   6.206   2.971  0.00  0.00    +0.162 A 
ATOM     28  C   UNL     1      13.242   6.821   3.128  0.00  0.00    +0.164 A 
ATOM     29  C   UNL     1      12.077   6.112   2.890  0.00  0.00    +0.072 A 
ATOM     30  O   UNL     1      13.184   8.128   3.518  0.00  0.00    -0.488 OA
ATOM     31  C   UNL     1      13.607   8.400   4.855  0.00  0.00    +0.232 C 
ATOM     32  C   UNL     1      15.118   8.564   4.920  0.00  0.00    +0.082 C 
ATOM     33  C   UNL     1      15.855   7.281   4.570  0.00  0.00    +0.232 C 
ATOM     34  O   UNL     1      15.618   6.916   3.209  0.00  0.00    -0.488 OA
ENDBRANCH  22  24
ENDBRANCH  19  20
ENDBRANCH  18  19
ENDBRANCH  12  18
TORSDOF 5
