REMARK  Name = ZINC20414216
REMARK  5 active torsions:
REMARK  status: ('A' for Active; 'I' for Inactive)
REMARK    1  A    between atoms: C_4  and  C_7
REMARK    2  A    between atoms: C_10  and  C_23
REMARK    3  A    between atoms: N_12  and  C_13
REMARK    4  A    between atoms: C_16  and  S_19
REMARK    5  A    between atoms: S_19  and  N_22
REMARK                            x       y       z     vdW  Elec       q    Type
REMARK                         _______ _______ _______ _____ _____    ______ ____
ROOT
ATOM      1  C   UNL     1      -0.013   1.086   0.008  0.00  0.00    +0.134 C 
ATOM      2  C   UNL     1      -0.791   1.611   1.231  0.00  0.00    +0.087 C 
ATOM      3  C   UNL     1      -1.944   2.383   0.620  0.00  0.00    +0.069 C 
ATOM      4  N   UNL     1      -1.865   2.330  -0.665  0.00  0.00    -0.183 NA
ATOM      5  N   UNL     1      -0.778   1.600  -1.139  0.00  0.00    -0.216 N 
ENDROOT
BRANCH   3   6
ATOM      6  C   UNL     1      -2.992   3.087   1.381  0.00  0.00    -0.002 A 
ATOM      7  C   UNL     1      -2.977   3.071   2.778  0.00  0.00    +0.011 A 
ATOM      8  C   UNL     1      -3.958   3.737   3.482  0.00  0.00    +0.015 A 
ATOM      9  C   UNL     1      -4.962   4.411   2.809  0.00  0.00    +0.013 A 
ATOM     10  C   UNL     1      -4.986   4.427   1.425  0.00  0.00    +0.015 A 
ATOM     11  C   UNL     1      -4.009   3.770   0.707  0.00  0.00    +0.011 A 
ATOM     12  I   UNL     1      -6.452   5.411   3.889  0.00  0.00    -0.044 I 
ENDBRANCH   3   6
BRANCH   1  16
ATOM     13  C   UNL     1       3.967   2.639  -0.022  0.00  0.00    +0.000 A 
ATOM     14  C   UNL     1       3.734   1.342   0.396  0.00  0.00    +0.000 A 
ATOM     15  C   UNL     1       2.446   0.839   0.406  0.00  0.00    +0.005 A 
ATOM     16  C   UNL     1       1.391   1.634  -0.003  0.00  0.00    -0.025 A 
ATOM     17  C   UNL     1       1.625   2.929  -0.426  0.00  0.00    +0.005 A 
ATOM     18  C   UNL     1       2.912   3.433  -0.431  0.00  0.00    +0.000 A 
ENDBRANCH   1  16
BRANCH   5  19
ATOM     19  C   UNL     1      -0.465   1.389  -2.483  0.00  0.00    +0.052 A 
ATOM     20  C   UNL     1       0.656   0.644  -2.829  0.00  0.00    +0.027 A 
ATOM     21  C   UNL     1       0.959   0.433  -4.159  0.00  0.00    +0.030 A 
ATOM     22  C   UNL     1       0.155   0.973  -5.147  0.00  0.00    +0.105 A 
ATOM     23  C   UNL     1      -0.957   1.721  -4.807  0.00  0.00    +0.030 A 
ATOM     24  C   UNL     1      -1.270   1.930  -3.478  0.00  0.00    +0.027 A 
BRANCH  22  25
ATOM     25  S   UNL     1       0.550   0.708  -6.844  0.00  0.00    +0.056 S 
ATOM     26  O   UNL     1       1.330  -0.479  -6.899  0.00  0.00    -0.153 OA
ATOM     27  O   UNL     1      -0.661   0.858  -7.571  0.00  0.00    -0.153 OA
BRANCH  25  28
ATOM     28  N   UNL     1       1.542   1.947  -7.315  0.00  0.00    -0.204 NA
ATOM     29  H   UNL     1       1.813   1.818  -8.374  0.00  0.00    +0.144 HD
ATOM     30  H   UNL     1       2.454   1.942  -6.700  0.00  0.00    +0.144 HD
ENDBRANCH  25  28
ENDBRANCH  22  25
ENDBRANCH   5  19
TORSDOF 5
