REMARK  Name = ZINC61856106
REMARK  7 active torsions:
REMARK  status: ('A' for Active; 'I' for Inactive)
REMARK    1  A    between atoms: C_1  and  C_2
REMARK    2  A    between atoms: C_4  and  C_21
REMARK    3  A    between atoms: C_6  and  N_8
REMARK    4  A    between atoms: N_8  and  C_9
REMARK    5  A    between atoms: N_8  and  C_10
REMARK    6  A    between atoms: C_13  and  C_17
REMARK    7  A    between atoms: N_18  and  O_19
REMARK                            x       y       z     vdW  Elec       q    Type
REMARK                         _______ _______ _______ _____ _____    ______ ____
ROOT
ATOM      1  C   UNL     1       0.152  -2.111   3.600  0.00  0.00    +0.035 A 
ATOM      2  C   UNL     1      -0.874  -1.264   4.007  0.00  0.00    +0.024 A 
ATOM      3  C   UNL     1      -0.776  -0.585   5.201  0.00  0.00    +0.014 A 
ATOM      4  C   UNL     1       0.353  -0.748   6.005  0.00  0.00    +0.036 A 
ATOM      5  C   UNL     1       1.382  -1.601   5.596  0.00  0.00    +0.053 A 
ATOM      6  C   UNL     1       1.276  -2.281   4.401  0.00  0.00    +0.044 A 
ATOM      7 CL   UNL     1       2.788  -1.807   6.592  0.00  0.00    -0.083 Cl
ENDROOT
BRANCH   4   8
ATOM      8  C   UNL     1       0.461  -0.021   7.288  0.00  0.00    +0.164 C 
ATOM      9  N   UNL     1       1.514  -0.174   8.037  0.00  0.00    -0.071 NA
ATOM     10  N   UNL     1      -0.560   0.824   7.692  0.00  0.00    -0.340 N 
ATOM     11  H   UNL     1      -1.345   0.938   7.134  0.00  0.00    +0.144 HD
ATOM     12  H   UNL     1      -0.489   1.302   8.534  0.00  0.00    +0.144 HD
BRANCH   9  13
ATOM     13  O   UNL     1       1.617   0.523   9.265  0.00  0.00    -0.408 OA
ATOM     14  H   UNL     1       2.434   0.345   9.751  0.00  0.00    +0.328 HD
ENDBRANCH   9  13
ENDBRANCH   4   8
BRANCH   1  15
ATOM     15  N   UNL     1       0.050  -2.797   2.391  0.00  0.00    -0.303 N 
ATOM     16  C   UNL     1      -0.582  -4.118   2.348  0.00  0.00    +0.135 C 
BRANCH  15  22
ATOM     17  C   UNL     1       2.073   1.047   0.090  0.00  0.00    +0.044 C 
ATOM     18  C   UNL     1       1.537  -0.362   0.074  0.00  0.00    -0.048 A 
ATOM     19  C   UNL     1       1.539  -1.088  -1.103  0.00  0.00    +0.006 A 
ATOM     20  C   UNL     1       1.048  -2.381  -1.122  0.00  0.00    -0.048 A 
ATOM     21  C   UNL     1       0.553  -2.951   0.035  0.00  0.00    +0.026 A 
ATOM     22  C   UNL     1       0.550  -2.224   1.219  0.00  0.00    +0.034 A 
ATOM     23  C   UNL     1       1.050  -0.927   1.236  0.00  0.00    +0.026 A 
ATOM     24  C   UNL     1       1.052  -3.168  -2.407  0.00  0.00    +0.044 C 
ENDBRANCH  15  22
ENDBRANCH   1  15
TORSDOF 4
