REMARK  Name = ZINC12975262
REMARK  8 active torsions:
REMARK  status: ('A' for Active; 'I' for Inactive)
REMARK    1  A    between atoms: C_1  and  C_2
REMARK    2  A    between atoms: C_2  and  C_3
REMARK    3  A    between atoms: C_2  and  C_4
REMARK    4  A    between atoms: C_2  and  C_5
REMARK    5  A    between atoms: C_8  and  C_11
REMARK    6  A    between atoms: N_13  and  C_14
REMARK    7  A    between atoms: C_18  and  S_20
REMARK    8  A    between atoms: S_20  and  N_23
REMARK                            x       y       z     vdW  Elec       q    Type
REMARK                         _______ _______ _______ _____ _____    ______ ____
ROOT
ATOM      1  C   UNL     1      -1.486   5.164  -2.165  0.00  0.00    +0.035 A 
ATOM      2  C   UNL     1      -0.473   5.919  -1.590  0.00  0.00    +0.023 A 
ATOM      3  C   UNL     1      -0.585   7.295  -1.533  0.00  0.00    +0.004 A 
ATOM      4  C   UNL     1      -1.706   7.920  -2.048  0.00  0.00    +0.029 A 
ATOM      5  C   UNL     1      -2.717   7.171  -2.622  0.00  0.00    +0.110 A 
ATOM      6  C   UNL     1      -2.608   5.796  -2.687  0.00  0.00    +0.052 A 
ENDROOT
BRANCH   1   9
ATOM      7  C   UNL     1      -0.775   3.099  -1.222  0.00  0.00    +0.220 C 
ATOM      8  O   UNL     1      -0.256   3.708  -0.310  0.00  0.00    -0.275 OA
ATOM      9  N   UNL     1      -1.375   3.771  -2.225  0.00  0.00    -0.285 N 
ATOM     10  H   UNL     1      -1.778   3.223  -3.090  0.00  0.00    +0.155 HD
BRANCH   7  14
ATOM     11  C   UNL     1      -2.168   1.036   1.266  0.00  0.00    -0.006 C 
ATOM     12  C   UNL     1      -0.735   1.572   1.263  0.00  0.00    +0.005 C 
ATOM     13  C   UNL     1      -0.011   1.086   0.006  0.00  0.00    +0.013 C 
ATOM     14  C   UNL     1      -0.747   1.593  -1.235  0.00  0.00    +0.075 C 
ATOM     15  C   UNL     1      -2.180   1.056  -1.232  0.00  0.00    +0.013 C 
ATOM     16  C   UNL     1      -2.904   1.543   0.024  0.00  0.00    +0.005 C 
BRANCH  11  18
ATOM     17  C   UNL     1      -4.325   0.986   2.525  0.00  0.00    +0.011 C 
ATOM     18  C   UNL     1      -2.892   1.522   2.523  0.00  0.00    -0.035 C 
ATOM     19  C   UNL     1      -2.156   1.015   3.764  0.00  0.00    +0.011 C 
ATOM     20  C   UNL     1      -2.920   3.051   2.536  0.00  0.00    +0.011 C 
ENDBRANCH  11  18
ENDBRANCH   7  14
ENDBRANCH   1   9
BRANCH   5  21
ATOM     21  S   UNL     1      -4.143   7.973  -3.276  0.00  0.00    +0.073 S 
ATOM     22  O   UNL     1      -5.190   7.012  -3.267  0.00  0.00    -0.150 OA
ATOM     23  O   UNL     1      -4.250   9.222  -2.607  0.00  0.00    -0.150 OA
BRANCH  21  24
ATOM     24  N   UNL     1      -3.827   8.313  -4.866  0.00  0.00    -0.205 N 
ATOM     25  C   UNL     1      -3.648   7.293  -5.762  0.00  0.00    +0.088 C 
ATOM     26  N   UNL     1      -3.707   6.042  -5.464  0.00  0.00    -0.375 N 
ATOM     27  C   UNL     1      -3.476   5.180  -6.629  0.00  0.00    +0.114 C 
ATOM     28  C   UNL     1      -2.839   6.102  -7.694  0.00  0.00    +0.028 C 
ATOM     29  C   UNL     1      -3.361   7.486  -7.235  0.00  0.00    +0.072 C 
ATOM     30  H   UNL     1      -3.762   9.358  -5.202  0.00  0.00    +0.175 HD
ATOM     31  H   UNL     1      -3.911   5.732  -4.428  0.00  0.00    +0.161 HD
ENDBRANCH  21  24
ENDBRANCH   5  21
TORSDOF 5
