REMARK  Name = ZINC02884095
REMARK  3 active torsions:
REMARK  status: ('A' for Active; 'I' for Inactive)
REMARK    1  A    between atoms: C_3  and  C_6
REMARK    2  A    between atoms: C_9  and  C_27
REMARK    3  A    between atoms: C_13  and  C_16
REMARK                            x       y       z     vdW  Elec       q    Type
REMARK                         _______ _______ _______ _____ _____    ______ ____
ROOT
ATOM      1  C   UNL     1       3.605   0.625  -0.032  0.00  0.00    +0.140 C 
ATOM      2  C   UNL     1       4.102   0.359  -1.457  0.00  0.00    +0.066 C 
ATOM      3  C   UNL     1       3.505  -0.953  -1.979  0.00  0.00    +0.215 C 
ATOM      4  N   UNL     1       3.712  -2.000  -0.973  0.00  0.00    -0.238 N 
ATOM      5  C   UNL     1       3.981  -1.747   0.330  0.00  0.00    +0.130 A 
ATOM      6  C   UNL     1       4.115  -2.963   0.973  0.00  0.00    +0.096 A 
ATOM      7  C   UNL     1       3.911  -3.968  -0.007  0.00  0.00    +0.149 A 
ATOM      8  N   UNL     1       3.674  -3.382  -1.150  0.00  0.00    -0.177 NA
ATOM      9  N   UNL     1       4.083  -0.462   0.845  0.00  0.00    -0.319 N 
ATOM     10  H   UNL     1       4.449  -0.287   1.726  0.00  0.00    +0.148 HD
ENDROOT
BRANCH   6  11
ATOM     11  C   UNL     1       4.410  -3.174   2.395  0.00  0.00    +0.254 C 
ATOM     12  O   UNL     1       4.563  -2.219   3.132  0.00  0.00    -0.270 OA
ATOM     13  N   UNL     1       4.512  -4.426   2.883  0.00  0.00    -0.266 N 
ATOM     14  C   UNL     1       4.897  -4.628   4.208  0.00  0.00    +0.125 A 
ATOM     15  C   UNL     1       5.102  -5.922   4.675  0.00  0.00    +0.045 A 
ATOM     16  C   UNL     1       5.484  -6.109   5.992  0.00  0.00    +0.025 A 
ATOM     17  C   UNL     1       5.647  -4.990   6.800  0.00  0.00    +0.059 A 
ATOM     18  C   UNL     1       5.426  -3.734   6.268  0.00  0.00    +0.132 A 
ATOM     19  N   UNL     1       5.068  -3.587   5.006  0.00  0.00    -0.239 NA
ATOM     20 CL   UNL     1       6.124  -5.168   8.459  0.00  0.00    -0.082 Cl
ATOM     21  H   UNL     1       4.318  -5.187   2.313  0.00  0.00    +0.157 HD
ENDBRANCH   6  11
BRANCH   1  24
ATOM     22  C   UNL     1      -0.009   1.343   0.003  0.00  0.00    +0.041 A 
ATOM     23  C   UNL     1       1.338   1.770  -0.006  0.00  0.00    +0.046 A 
ATOM     24  C   UNL     1       2.099   0.661  -0.018  0.00  0.00    +0.125 A 
ATOM     25  O   UNL     1       1.288  -0.410  -0.017  0.00  0.00    -0.466 OA
ATOM     26  C   UNL     1       0.008  -0.002  -0.004  0.00  0.00    +0.195 A 
ENDBRANCH   1  24
BRANCH   3  27
ATOM     27  C   UNL     1       4.198  -1.349  -3.284  0.00  0.00    +0.412 C 
ATOM     28  F   UNL     1       5.567  -1.520  -3.052  0.00  0.00    -0.168 F 
ATOM     29  F   UNL     1       3.652  -2.546  -3.758  0.00  0.00    -0.168 F 
ATOM     30  F   UNL     1       4.009  -0.341  -4.236  0.00  0.00    -0.168 F 
ENDBRANCH   3  27
TORSDOF 3
