REMARK  Name = ZINC02168765
REMARK  8 active torsions:
REMARK  status: ('A' for Active; 'I' for Inactive)
REMARK    1  A    between atoms: C_1  and  C_2
REMARK    2  A    between atoms: C_4  and  C_18
REMARK    3  A    between atoms: C_5  and  C_17
REMARK    4  A    between atoms: N_6  and  C_7
REMARK    5  A    between atoms: C_11  and  C_14
REMARK    6  A    between atoms: C_12  and  C_13
REMARK    7  A    between atoms: N_19  and  N_20
REMARK    8  A    between atoms: C_21  and  C_23
REMARK                            x       y       z     vdW  Elec       q    Type
REMARK                         _______ _______ _______ _____ _____    ______ ____
ROOT
ATOM      1  C   UNL     1       0.351   0.999  -0.128  0.00  0.00    +0.064 C 
ATOM      2  C   UNL     1       0.285  -0.495   0.058  0.00  0.00    +0.022 A 
ATOM      3  C   UNL     1       0.331  -1.409  -0.928  0.00  0.00    +0.032 A 
ATOM      4  C   UNL     1       0.235  -2.724  -0.286  0.00  0.00    +0.016 A 
ATOM      5  C   UNL     1       0.138  -2.488   1.056  0.00  0.00    +0.030 A 
ATOM      6  N   UNL     1       0.174  -1.143   1.256  0.00  0.00    -0.317 N 
ATOM      7  C   UNL     1       0.017  -3.538   2.131  0.00  0.00    +0.064 C 
ENDROOT
BRANCH   6   8
ATOM      8  C   UNL     1       0.104  -0.513   2.506  0.00  0.00    +0.050 A 
ATOM      9  C   UNL     1      -1.131  -0.165   3.041  0.00  0.00    +0.026 A 
ATOM     10  C   UNL     1      -1.206   0.456   4.274  0.00  0.00    +0.003 A 
ATOM     11  C   UNL     1      -0.056   0.734   4.983  0.00  0.00    +0.015 A 
ATOM     12  C   UNL     1       1.191   0.388   4.455  0.00  0.00    +0.068 A 
ATOM     13  C   UNL     1       1.266  -0.244   3.212  0.00  0.00    -0.013 A 
ATOM     14  C   UNL     1       2.605  -0.626   2.637  0.00  0.00    +0.047 C 
BRANCH  12  15
ATOM     15  C   UNL     1       2.423   0.684   5.210  0.00  0.00    +0.387 C 
ATOM     16  O   UNL     1       2.540   0.298   6.365  0.00  0.00    -0.241 OA
ATOM     17  O   UNL     1       3.328   1.316   4.682  0.00  0.00    -0.241 OA
ENDBRANCH  12  15
ENDBRANCH   6   8
BRANCH   4  18
ATOM     18  C   UNL     1       0.242  -4.037  -0.955  0.00  0.00    +0.140 C 
ATOM     19  N   UNL     1       0.149  -5.125  -0.251  0.00  0.00    -0.187 NA
BRANCH  19  20
ATOM     20  N   UNL     1       0.156  -6.373  -0.887  0.00  0.00    -0.200 N 
ATOM     21  C   UNL     1       0.059  -7.502  -0.156  0.00  0.00    +0.299 C 
ATOM     22  O   UNL     1      -0.034  -7.436   1.056  0.00  0.00    -0.265 OA
ATOM     23  H   UNL     1       0.230  -6.425  -1.852  0.00  0.00    +0.178 HD
BRANCH  21  24
ATOM     24  C   UNL     1       0.066  -8.811  -0.823  0.00  0.00    +0.192 A 
ATOM     25  C   UNL     1      -0.030 -10.010  -0.192  0.00  0.00    +0.063 A 
ATOM     26  C   UNL     1       0.019 -11.026  -1.242  0.00  0.00    +0.021 A 
ATOM     27  C   UNL     1      -0.032 -12.422  -1.250  0.00  0.00    +0.011 A 
ATOM     28  C   UNL     1       0.041 -13.095  -2.437  0.00  0.00    +0.001 A 
ATOM     29  C   UNL     1       0.165 -12.402  -3.633  0.00  0.00    +0.004 A 
ATOM     30  C   UNL     1       0.217 -11.025  -3.647  0.00  0.00    +0.047 A 
ATOM     31  C   UNL     1       0.145 -10.318  -2.452  0.00  0.00    +0.136 A 
ATOM     32  O   UNL     1       0.164  -9.004  -2.155  0.00  0.00    -0.450 OA
ENDBRANCH  21  24
ENDBRANCH  19  20
ENDBRANCH   4  18
TORSDOF 5
