REMARK  Name = ZINC00919445
REMARK  7 active torsions:
REMARK  status: ('A' for Active; 'I' for Inactive)
REMARK    1  A    between atoms: C_1  and  N_2
REMARK    2  A    between atoms: N_2  and  C_3
REMARK    3  A    between atoms: N_2  and  C_4
REMARK    4  A    between atoms: C_7  and  N_10
REMARK    5  A    between atoms: C_11  and  C_13
REMARK    6  A    between atoms: C_18  and  C_29
REMARK    7  A    between atoms: C_21  and  C_24
REMARK                            x       y       z     vdW  Elec       q    Type
REMARK                         _______ _______ _______ _____ _____    ______ ____
ROOT
ATOM      1  C   UNL     1      -7.217  -2.960   0.261  0.00  0.00    +0.149 A 
ATOM      2  C   UNL     1      -8.511  -2.406   0.377  0.00  0.00    +0.078 A 
ATOM      3  C   UNL     1      -9.386  -3.428   0.460  0.00  0.00    +0.119 A 
ATOM      4  N   UNL     1      -8.681  -4.596   0.403  0.00  0.00    -0.238 N 
ATOM      5  N   UNL     1      -7.330  -4.277   0.271  0.00  0.00    -0.164 NA
ATOM      6  C   UNL     1      -9.300  -5.923   0.470  0.00  0.00    +0.215 C 
ATOM      7  C   UNL     1     -10.699  -5.788   1.081  0.00  0.00    +0.066 C 
ATOM      8  C   UNL     1     -11.477  -4.678   0.364  0.00  0.00    +0.140 C 
ATOM      9  N   UNL     1     -10.778  -3.397   0.585  0.00  0.00    -0.319 N 
ATOM     10  H   UNL     1     -11.256  -2.582   0.803  0.00  0.00    +0.148 HD
ENDROOT
BRANCH   8  11
ATOM     11  C   UNL     1     -12.875  -4.599   0.921  0.00  0.00    +0.125 A 
ATOM     12  C   UNL     1     -13.976  -5.129   0.360  0.00  0.00    +0.046 A 
ATOM     13  C   UNL     1     -15.061  -4.819   1.212  0.00  0.00    +0.041 A 
ATOM     14  C   UNL     1     -14.557  -4.117   2.244  0.00  0.00    +0.195 A 
ATOM     15  O   UNL     1     -13.232  -3.992   2.065  0.00  0.00    -0.466 OA
ENDBRANCH   8  11
BRANCH   1  17
ATOM     16  N   UNL     1      -4.782  -2.854   0.031  0.00  0.00    -0.280 N 
ATOM     17  C   UNL     1      -5.956  -2.200   0.142  0.00  0.00    +0.268 C 
ATOM     18  O   UNL     1      -5.976  -0.984   0.144  0.00  0.00    -0.268 OA
ATOM     19  H   UNL     1      -4.772  -3.821  -0.047  0.00  0.00    +0.155 HD
BRANCH  16  23
ATOM     20  C   UNL     1      -1.199  -0.721   0.027  0.00  0.00    +0.029 A 
ATOM     21  C   UNL     1      -1.317  -1.883  -0.725  0.00  0.00    +0.025 A 
ATOM     22  C   UNL     1      -2.503  -2.589  -0.723  0.00  0.00    +0.025 A 
ATOM     23  C   UNL     1      -3.579  -2.138   0.030  0.00  0.00    +0.034 A 
ATOM     24  C   UNL     1      -3.461  -0.976   0.782  0.00  0.00    +0.025 A 
ATOM     25  C   UNL     1      -2.273  -0.273   0.785  0.00  0.00    +0.025 A 
BRANCH  20  27
ATOM     26  C   UNL     1       0.129   1.217   0.824  0.00  0.00    +0.129 C 
ATOM     27  N   UNL     1       0.003  -0.005   0.025  0.00  0.00    -0.336 N 
ATOM     28  C   UNL     1       1.136  -0.478  -0.774  0.00  0.00    +0.129 C 
ENDBRANCH  20  27
ENDBRANCH  16  23
ENDBRANCH   1  17
BRANCH   6  29
ATOM     29  C   UNL     1      -8.444  -6.845   1.341  0.00  0.00    +0.412 C 
ATOM     30  F   UNL     1      -8.349  -6.310   2.631  0.00  0.00    -0.168 F 
ATOM     31  F   UNL     1      -9.037  -8.110   1.404  0.00  0.00    -0.168 F 
ATOM     32  F   UNL     1      -7.165  -6.956   0.787  0.00  0.00    -0.168 F 
ENDBRANCH   6  29
TORSDOF 5
