REMARK  Name = ZINC39836487
REMARK  9 active torsions:
REMARK  status: ('A' for Active; 'I' for Inactive)
REMARK    1  A    between atoms: C_1  and  C_2
REMARK    2  A    between atoms: C_2  and  C_3
REMARK    3  A    between atoms: C_2  and  C_4
REMARK    4  A    between atoms: C_2  and  C_5
REMARK    5  A    between atoms: C_12  and  N_25
REMARK    6  A    between atoms: C_13  and  C_14
REMARK    7  A    between atoms: N_16  and  C_17
REMARK    8  A    between atoms: C_26  and  C_28
REMARK    9  A    between atoms: C_33  and  N_34
REMARK                            x       y       z     vdW  Elec       q    Type
REMARK                         _______ _______ _______ _____ _____    ______ ____
ROOT
ATOM      1  C   UNL     1       1.889   0.279   0.001  0.00  0.00    -0.000 C 
ATOM      2  C   UNL     1       2.100  -1.200   0.337  0.00  0.00    +0.009 C 
ATOM      3  C   UNL     1       2.377  -1.991  -0.944  0.00  0.00    +0.037 C 
ATOM      4  C   UNL     1       3.507  -1.310  -1.702  0.00  0.00    -0.023 A 
ATOM      5  C   UNL     1       3.854  -0.030  -1.445  0.00  0.00    -0.004 A 
ATOM      6  S   UNL     1       5.190   0.305  -2.555  0.00  0.00    -0.077 S 
ATOM      7  C   UNL     1       5.294  -1.179  -3.334  0.00  0.00    +0.085 A 
ATOM      8  C   UNL     1       4.299  -1.942  -2.743  0.00  0.00    +0.069 A 
ATOM      9  C   UNL     1       3.229   0.887  -0.439  0.00  0.00    +0.046 C 
ENDROOT
BRANCH   1  11
ATOM     10  C   UNL     1       1.169   2.495   0.901  0.00  0.00    +0.011 C 
ATOM     11  C   UNL     1       1.373   1.017   1.237  0.00  0.00    -0.035 C 
ATOM     12  C   UNL     1       2.392   0.888   2.371  0.00  0.00    +0.011 C 
ATOM     13  C   UNL     1       0.041   0.405   1.677  0.00  0.00    +0.011 C 
ENDBRANCH   1  11
BRANCH   8  14
ATOM     14  C   UNL     1       4.058  -3.330  -3.150  0.00  0.00    +0.247 C 
ATOM     15  O   UNL     1       3.269  -3.573  -4.045  0.00  0.00    -0.270 OA
ATOM     16  N   UNL     1       4.708  -4.336  -2.533  0.00  0.00    -0.307 N 
ATOM     17  H   UNL     1       5.336  -4.142  -1.820  0.00  0.00    +0.149 HD
BRANCH  16  18
ATOM     18  C   UNL     1       4.466  -5.723  -2.940  0.00  0.00    +0.096 C 
ATOM     19  C   UNL     1       3.253  -6.283  -2.180  0.00  0.00    +0.046 C 
ATOM     20  C   UNL     1       3.183  -7.819  -2.355  0.00  0.00    +0.168 C 
ATOM     21  S   UNL     1       4.947  -8.276  -2.607  0.00  0.00    -0.029 S 
ATOM     22  O   UNL     1       5.098  -8.836  -3.905  0.00  0.00    -0.174 OA
ATOM     23  O   UNL     1       5.403  -9.004  -1.475  0.00  0.00    -0.174 OA
ATOM     24  C   UNL     1       5.704  -6.597  -2.587  0.00  0.00    +0.188 C 
ENDBRANCH  16  18
ENDBRANCH   8  14
BRANCH   7  25
ATOM     25  N   UNL     1       6.172  -1.554  -4.338  0.00  0.00    -0.275 N 
ATOM     26  C   UNL     1       7.085  -0.675  -4.798  0.00  0.00    +0.251 C 
ATOM     27  O   UNL     1       7.137   0.447  -4.333  0.00  0.00    -0.270 OA
ATOM     28  H   UNL     1       6.130  -2.449  -4.710  0.00  0.00    +0.156 HD
BRANCH  26  29
ATOM     29  C   UNL     1       8.021  -1.075  -5.869  0.00  0.00    +0.067 A 
ATOM     30  C   UNL     1       8.819  -2.211  -5.715  0.00  0.00    +0.015 A 
ATOM     31  C   UNL     1       9.691  -2.579  -6.718  0.00  0.00    +0.001 A 
ATOM     32  C   UNL     1       9.777  -1.825  -7.875  0.00  0.00    +0.002 A 
ATOM     33  C   UNL     1       8.989  -0.699  -8.035  0.00  0.00    +0.033 A 
ATOM     34  C   UNL     1       8.108  -0.323  -7.042  0.00  0.00    +0.138 A 
BRANCH  34  35
ATOM     35  N   UNL     1       7.262   0.878  -7.217  0.00  0.00    +0.057 N 
ATOM     36  O   UNL     1       7.424   1.598  -8.175  0.00  0.00    -0.126 OA
ATOM     37  O   UNL     1       6.408   1.140  -6.402  0.00  0.00    -0.126 OA
ENDBRANCH  34  35
ENDBRANCH  26  29
ENDBRANCH   7  25
TORSDOF 6
