REMARK  Name = ZINC33492032
REMARK  8 active torsions:
REMARK  status: ('A' for Active; 'I' for Inactive)
REMARK    1  A    between atoms: C_1  and  C_2
REMARK    2  A    between atoms: C_2  and  C_4
REMARK    3  A    between atoms: C_2  and  N_10
REMARK    4  A    between atoms: C_11  and  C_13
REMARK    5  A    between atoms: C_15  and  N_24
REMARK    6  A    between atoms: C_18  and  N_19
REMARK    7  A    between atoms: N_27  and  C_28
REMARK    8  A    between atoms: C_32  and  C_34
REMARK                            x       y       z     vdW  Elec       q    Type
REMARK                         _______ _______ _______ _____ _____    ______ ____
ROOT
ATOM      1  C   UNL     1      -0.451   4.878  10.254  0.00  0.00    +0.059 A 
ATOM      2  C   UNL     1       0.169   4.413   9.091  0.00  0.00    +0.038 A 
ATOM      3  C   UNL     1      -0.597   4.074   7.990  0.00  0.00    +0.036 A 
ATOM      4  C   UNL     1      -1.982   4.201   8.036  0.00  0.00    +0.025 A 
ATOM      5  C   UNL     1      -2.603   4.654   9.181  0.00  0.00    +0.026 A 
ATOM      6  C   UNL     1      -1.848   4.998  10.295  0.00  0.00    +0.042 A 
ENDROOT
BRANCH   3   7
ATOM      7  N   UNL     1       0.024   3.608   6.823  0.00  0.00    -0.269 N 
ATOM      8  C   UNL     1      -0.577   2.665   6.071  0.00  0.00    +0.308 C 
ATOM      9  O   UNL     1      -1.695   2.280   6.357  0.00  0.00    -0.252 OA
ATOM     10  N   UNL     1       0.060   2.149   5.001  0.00  0.00    -0.269 N 
ATOM     11  H   UNL     1       1.001   4.012   6.521  0.00  0.00    +0.156 HD
ATOM     12  H   UNL     1       1.099   2.440   4.787  0.00  0.00    +0.156 HD
BRANCH  10  13
ATOM     13  C   UNL     1      -0.599   1.242   4.164  0.00  0.00    +0.035 A 
ATOM     14  C   UNL     1      -1.503   0.333   4.697  0.00  0.00    +0.023 A 
ATOM     15  C   UNL     1      -2.153  -0.560   3.868  0.00  0.00    +0.002 A 
ATOM     16  C   UNL     1      -1.909  -0.546   2.507  0.00  0.00    +0.012 A 
ATOM     17  C   UNL     1      -1.005   0.355   1.973  0.00  0.00    +0.057 A 
ATOM     18  C   UNL     1      -0.352   1.251   2.797  0.00  0.00    +0.035 A 
BRANCH  17  19
ATOM     19  C   UNL     1      -0.738   0.363   0.490  0.00  0.00    +0.417 C 
ATOM     20  F   UNL     1       0.322  -0.504   0.203  0.00  0.00    -0.166 F 
ATOM     21  F   UNL     1      -0.403   1.660   0.084  0.00  0.00    -0.166 F 
ATOM     22  F   UNL     1      -1.883  -0.058  -0.193  0.00  0.00    -0.166 F 
ENDBRANCH  17  19
ENDBRANCH  10  13
ENDBRANCH   3   7
BRANCH   6  23
ATOM     23  N   UNL     1      -2.474   5.459  11.448  0.00  0.00    -0.329 N 
ATOM     24  C   UNL     1      -3.379   6.598  11.143  0.00  0.00    +0.105 C 
ATOM     25  C   UNL     1      -4.340   6.622  12.357  0.00  0.00    +0.020 C 
ATOM     26  C   UNL     1      -4.549   5.120  12.662  0.00  0.00    +0.020 C 
ATOM     27  C   UNL     1      -3.332   4.410  12.041  0.00  0.00    +0.105 C 
ENDBRANCH   6  23
BRANCH   1  29
ATOM     28  N   UNL     1       1.705   5.225  11.354  0.00  0.00    -0.305 N 
ATOM     29  C   UNL     1       0.360   5.241  11.431  0.00  0.00    +0.246 C 
ATOM     30  O   UNL     1      -0.186   5.553  12.472  0.00  0.00    -0.270 OA
ATOM     31  H   UNL     1       2.199   4.943  10.412  0.00  0.00    +0.150 HD
BRANCH  28  33
ATOM     32  C   UNL     1       2.677   7.105  12.579  0.00  0.00    +0.033 C 
ATOM     33  C   UNL     1       2.510   5.585  12.523  0.00  0.00    +0.100 C 
BRANCH  33  34
ATOM     34  C   UNL     1       3.865   4.935  12.420  0.00  0.00    -0.027 A 
ATOM     35  C   UNL     1       4.509   4.869  11.199  0.00  0.00    +0.005 A 
ATOM     36  C   UNL     1       5.755   4.276  11.105  0.00  0.00    +0.000 A 
ATOM     37  C   UNL     1       6.352   3.741  12.230  0.00  0.00    +0.000 A 
ATOM     38  C   UNL     1       5.706   3.802  13.451  0.00  0.00    +0.000 A 
ATOM     39  C   UNL     1       4.462   4.399  13.546  0.00  0.00    +0.005 A 
ENDBRANCH  33  34
ENDBRANCH  28  33
ENDBRANCH   1  29
TORSDOF 7
