REMARK  Name = ZINC38740694
REMARK  7 active torsions:
REMARK  status: ('A' for Active; 'I' for Inactive)
REMARK    1  A    between atoms: C_1  and  C_2
REMARK    2  A    between atoms: C_3  and  C_34
REMARK    3  A    between atoms: C_10  and  N_19
REMARK    4  A    between atoms: C_12  and  C_14
REMARK    5  A    between atoms: C_20  and  C_22
REMARK    6  A    between atoms: C_27  and  S_28
REMARK    7  A    between atoms: S_28  and  C_31
REMARK                            x       y       z     vdW  Elec       q    Type
REMARK                         _______ _______ _______ _____ _____    ______ ____
ROOT
ATOM      1  C   UNL     1       4.220  -0.180  -0.739  0.00  0.00    +0.051 C 
ATOM      2  C   UNL     1       3.717  -1.592  -0.579  0.00  0.00    +0.037 A 
ATOM      3  C   UNL     1       3.829  -2.504  -1.612  0.00  0.00    +0.050 A 
ATOM      4  N   UNL     1       3.377  -3.737  -1.438  0.00  0.00    -0.215 NA
ATOM      5  C   UNL     1       2.822  -4.103  -0.294  0.00  0.00    +0.256 A 
ATOM      6  N   UNL     1       2.697  -3.259   0.718  0.00  0.00    -0.171 NA
ATOM      7  C   UNL     1       3.133  -2.009   0.616  0.00  0.00    +0.278 A 
ATOM      8  O   UNL     1       3.008  -1.151   1.657  0.00  0.00    -0.265 OA
ATOM      9  N   UNL     1       2.359  -5.408  -0.151  0.00  0.00    -0.183 N 
ATOM     10  C   UNL     1       1.762  -5.930   0.960  0.00  0.00    +0.133 A 
ATOM     11  C   UNL     1       1.460  -7.227   0.694  0.00  0.00    +0.074 A 
ATOM     12  C   UNL     1       1.885  -7.509  -0.620  0.00  0.00    +0.102 A 
ATOM     13  N   UNL     1       2.418  -6.414  -1.124  0.00  0.00    -0.162 NA
ATOM     14  C   UNL     1       4.459  -2.100  -2.920  0.00  0.00    +0.066 C 
ENDROOT
BRANCH  12  15
ATOM     15  C   UNL     1       1.750  -8.806  -1.316  0.00  0.00    +0.039 A 
ATOM     16  C   UNL     1       2.142  -9.152  -2.581  0.00  0.00    +0.018 A 
ATOM     17  C   UNL     1       1.909 -10.437  -3.019  0.00  0.00    +0.008 A 
ATOM     18  C   UNL     1       1.300 -11.320  -2.186  0.00  0.00    +0.046 A 
ATOM     19  S   UNL     1       1.040 -10.333  -0.721  0.00  0.00    -0.095 S 
ENDBRANCH  12  15
BRANCH  10  20
ATOM     20  N   UNL     1       1.509  -5.254   2.151  0.00  0.00    -0.266 N 
ATOM     21  C   UNL     1       0.910  -5.894   3.174  0.00  0.00    +0.251 C 
ATOM     22  O   UNL     1       0.590  -7.061   3.058  0.00  0.00    -0.270 OA
ATOM     23  H   UNL     1       1.765  -4.323   2.244  0.00  0.00    +0.157 HD
BRANCH  21  24
ATOM     24  C   UNL     1       0.641  -5.177   4.439  0.00  0.00    +0.062 A 
ATOM     25  C   UNL     1       0.866  -3.802   4.526  0.00  0.00    +0.015 A 
ATOM     26  C   UNL     1       0.613  -3.139   5.709  0.00  0.00    +0.001 A 
ATOM     27  C   UNL     1       0.139  -3.833   6.808  0.00  0.00    +0.002 A 
ATOM     28  C   UNL     1      -0.085  -5.196   6.728  0.00  0.00    +0.028 A 
ATOM     29  C   UNL     1       0.157  -5.871   5.549  0.00  0.00    +0.106 A 
BRANCH  29  30
ATOM     30  S   UNL     1      -0.137  -7.605   5.447  0.00  0.00    +0.059 S 
ATOM     31  O   UNL     1       0.975  -8.119   4.726  0.00  0.00    -0.164 OA
ATOM     32  O   UNL     1      -0.381  -8.011   6.787  0.00  0.00    -0.164 OA
BRANCH  30  33
ATOM     33  C   UNL     1      -1.650  -7.764   4.460  0.00  0.00    +0.485 C 
ATOM     34  F   UNL     1      -2.728  -7.223   5.169  0.00  0.00    -0.183 F 
ATOM     35  F   UNL     1      -1.494  -7.076   3.252  0.00  0.00    -0.183 F 
ENDBRANCH  30  33
ENDBRANCH  29  30
ENDBRANCH  21  24
ENDBRANCH  10  20
TORSDOF 5
