REMARK  Name = ZINC16034506
REMARK  15 active torsions:
REMARK  status: ('A' for Active; 'I' for Inactive)
REMARK    1  A    between atoms: C_1  and  C_2
REMARK    2  A    between atoms: C_2  and  C_3
REMARK    3  A    between atoms: C_2  and  C_4
REMARK    4  A    between atoms: C_2  and  C_5
REMARK    5  A    between atoms: C_13  and  C_25
REMARK    6  A    between atoms: C_15  and  C_21
REMARK    7  A    between atoms: C_15  and  C_23
REMARK    8  A    between atoms: C_16  and  N_20
REMARK    9  A    between atoms: C_17  and  C_18
REMARK   10  A    between atoms: C_27  and  O_35
REMARK   11  A    between atoms: C_28  and  O_33
REMARK   12  A    between atoms: C_30  and  O_31
REMARK   13  A    between atoms: O_31  and  C_32
REMARK   14  A    between atoms: O_33  and  C_34
REMARK   15  A    between atoms: O_35  and  C_36
REMARK                            x       y       z     vdW  Elec       q    Type
REMARK                         _______ _______ _______ _____ _____    ______ ____
ROOT
ATOM      1  C   UNL     1      -1.207  -2.000   5.671  0.00  0.00    -0.001 C 
ATOM      2  C   UNL     1      -2.327  -1.472   6.580  0.00  0.00    +0.031 C 
ATOM      3  C   UNL     1      -1.966  -0.065   6.980  0.00  0.00    -0.021 C 
ATOM      4  C   UNL     1      -0.707   0.292   7.141  0.00  0.00    -0.029 C 
ATOM      5  C   UNL     1       0.452  -0.649   6.999  0.00  0.00    +0.031 C 
ATOM      6  C   UNL     1       0.093  -2.018   6.472  0.00  0.00    +0.013 C 
ATOM      7  C   UNL     1       1.524   0.035   6.149  0.00  0.00    +0.070 C 
ATOM      8  C   UNL     1       2.023   1.277   6.888  0.00  0.00    +0.188 C 
ATOM      9  C   UNL     1       0.889   2.144   7.344  0.00  0.00    +0.054 C 
ATOM     10  C   UNL     1      -0.387   1.704   7.480  0.00  0.00    +0.074 C 
ENDROOT
BRANCH   7  11
ATOM     11  C   UNL     1       0.934   0.440   4.822  0.00  0.00    +0.004 A 
ATOM     12  C   UNL     1       0.148   1.574   4.734  0.00  0.00    +0.057 A 
ATOM     13  C   UNL     1      -0.395   1.947   3.516  0.00  0.00    +0.162 A 
ATOM     14  C   UNL     1      -0.150   1.181   2.381  0.00  0.00    +0.165 A 
ATOM     15  C   UNL     1       0.634   0.042   2.472  0.00  0.00    +0.095 A 
ATOM     16  C   UNL     1       1.181  -0.326   3.693  0.00  0.00    +0.127 A 
BRANCH  16  17
ATOM     17  O   UNL     1       1.954  -1.440   3.782  0.00  0.00    -0.495 OA
ATOM     18  C   UNL     1       2.166  -2.181   2.579  0.00  0.00    +0.277 C 
ENDBRANCH  16  17
BRANCH  14  19
ATOM     19  O   UNL     1      -0.683   1.546   1.184  0.00  0.00    -0.491 OA
ATOM     20  C   UNL     1      -0.389   0.712   0.061  0.00  0.00    +0.277 C 
ENDBRANCH  14  19
BRANCH  13  21
ATOM     21  O   UNL     1      -1.169   3.063   3.430  0.00  0.00    -0.491 OA
ATOM     22  C   UNL     1      -1.380   3.802   4.635  0.00  0.00    +0.277 C 
ENDBRANCH  13  21
ENDBRANCH   7  11
BRANCH   1  24
ATOM     23  C   UNL     1      -2.863  -3.398   4.428  0.00  0.00    +0.011 C 
ATOM     24  C   UNL     1      -1.546  -3.417   5.206  0.00  0.00    -0.035 C 
ATOM     25  C   UNL     1      -0.427  -3.938   4.301  0.00  0.00    +0.011 C 
ATOM     26  C   UNL     1      -1.685  -4.334   6.423  0.00  0.00    +0.011 C 
ENDBRANCH   1  24
BRANCH   9  27
ATOM     27  N   UNL     1       1.155   3.452   7.639  0.00  0.00    -0.358 N 
ATOM     28  H   UNL     1       0.345   4.115   7.976  0.00  0.00    +0.142 HD
ATOM     29  H   UNL     1       2.179   3.841   7.539  0.00  0.00    +0.142 HD
ENDBRANCH   9  27
BRANCH  10  30
ATOM     30  C   UNL     1      -1.413   2.588   7.945  0.00  0.00    +0.101 C 
ATOM     31  N   UNL     1      -2.227   3.289   8.314  0.00  0.00    -0.191 NA
ENDBRANCH  10  30
BRANCH   8  32
ATOM     32  C   UNL     1       2.806   0.855   8.061  0.00  0.00    +0.091 C 
ATOM     33  N   UNL     1       3.411   0.529   8.966  0.00  0.00    -0.194 NA
ENDBRANCH   8  32
BRANCH   8  34
ATOM     34  C   UNL     1       2.891   2.054   5.988  0.00  0.00    +0.091 C 
ATOM     35  N   UNL     1       3.560   2.655   5.294  0.00  0.00    -0.194 NA
ENDBRANCH   8  34
TORSDOF 9
