REMARK  Name = ZINC36351527
REMARK  5 active torsions:
REMARK  status: ('A' for Active; 'I' for Inactive)
REMARK    1  A    between atoms: C_1  and  N_2
REMARK    2  A    between atoms: N_2  and  C_3
REMARK    3  A    between atoms: C_12  and  N_15
REMARK    4  A    between atoms: C_21  and  C_23
REMARK    5  A    between atoms: C_26  and  C_29
REMARK                            x       y       z     vdW  Elec       q    Type
REMARK                         _______ _______ _______ _____ _____    ______ ____
ROOT
ATOM      1  N   UNL     1       3.514  -7.696  -2.514  0.00  0.00    -0.194 N 
ATOM      2  C   UNL     1       4.804  -8.073  -2.377  0.00  0.00    +0.286 A 
ATOM      3  O   UNL     1       5.659  -7.247  -2.099  0.00  0.00    -0.265 OA
ATOM      4  C   UNL     1       5.152  -9.411  -2.555  0.00  0.00    +0.088 A 
ATOM      5  C   UNL     1       4.185 -10.387  -2.877  0.00  0.00    +0.015 A 
ATOM      6  C   UNL     1       4.670 -11.691  -3.028  0.00  0.00    +0.026 A 
ATOM      7  C   UNL     1       5.998 -11.946  -2.864  0.00  0.00    +0.021 A 
ATOM      8  S   UNL     1       6.664 -10.335  -2.479  0.00  0.00    -0.083 S 
ATOM      9  C   UNL     1       2.799  -9.893  -3.009  0.00  0.00    +0.142 A 
ATOM     10  N   UNL     1       2.531  -8.637  -2.827  0.00  0.00    -0.171 NA
ENDROOT
BRANCH   1  19
ATOM     11  C   UNL     1       0.893  -0.467  -0.882  0.00  0.00    -0.053 C 
ATOM     12  C   UNL     1       2.292  -0.085  -1.433  0.00  0.00    +0.005 C 
ATOM     13  C   UNL     1       2.578  -1.261  -2.400  0.00  0.00    +0.105 C 
ATOM     14  N   UNL     1       2.014  -2.446  -1.729  0.00  0.00    -0.317 N 
ATOM     15  C   UNL     1       0.958  -2.007  -0.800  0.00  0.00    +0.091 C 
ATOM     16  C   UNL     1       2.409  -3.763  -1.941  0.00  0.00    +0.121 A 
ATOM     17  C   UNL     1       3.494  -4.030  -2.771  0.00  0.00    +0.046 A 
ATOM     18  C   UNL     1       3.879  -5.342  -2.975  0.00  0.00    +0.033 A 
ATOM     19  C   UNL     1       3.160  -6.353  -2.336  0.00  0.00    +0.087 A 
ATOM     20  C   UNL     1       2.090  -6.011  -1.523  0.00  0.00    +0.140 A 
ATOM     21  N   UNL     1       1.753  -4.747  -1.347  0.00  0.00    -0.238 NA
BRANCH  11  23
ATOM     22  C   UNL     1       0.563   1.575   0.332  0.00  0.00    -0.100 C 
ATOM     23  N   UNL     1       0.681   0.116   0.449  0.00  0.00    +0.380 N 
ATOM     24  H   UNL     1       1.464  -0.111   1.044  0.00  0.00    -0.086 HD
ATOM     25  H   UNL     1      -0.165  -0.259   0.850  0.00  0.00    -0.086 HD
ENDBRANCH  11  23
ENDBRANCH   1  19
BRANCH   7  26
ATOM     26  C   UNL     1       6.712 -13.237  -2.977  0.00  0.00    -0.011 A 
ATOM     27  C   UNL     1       6.009 -14.400  -3.296  0.00  0.00    +0.009 A 
ATOM     28  C   UNL     1       6.681 -15.600  -3.400  0.00  0.00    +0.013 A 
ATOM     29  C   UNL     1       8.047 -15.653  -3.189  0.00  0.00    +0.055 A 
ATOM     30  C   UNL     1       8.749 -14.504  -2.872  0.00  0.00    +0.013 A 
ATOM     31  C   UNL     1       8.090 -13.296  -2.771  0.00  0.00    +0.009 A 
BRANCH  29  32
ATOM     32  C   UNL     1       8.774 -16.968  -3.303  0.00  0.00    +0.417 C 
ATOM     33  F   UNL     1       9.206 -17.149  -4.622  0.00  0.00    -0.166 F 
ATOM     34  F   UNL     1       9.880 -16.966  -2.446  0.00  0.00    -0.166 F 
ATOM     35  F   UNL     1       7.910 -18.011  -2.948  0.00  0.00    -0.166 F 
ENDBRANCH  29  32
ENDBRANCH   7  26
TORSDOF 4
