REMARK  Name = ZINC39884128
REMARK  5 active torsions:
REMARK  status: ('A' for Active; 'I' for Inactive)
REMARK    1  A    between atoms: C_3  and  O_36
REMARK    2  A    between atoms: C_6  and  C_7
REMARK    3  A    between atoms: N_11  and  C_15
REMARK    4  A    between atoms: C_15  and  C_16
REMARK    5  A    between atoms: N_18  and  C_19
REMARK                            x       y       z     vdW  Elec       q    Type
REMARK                         _______ _______ _______ _____ _____    ______ ____
ROOT
ATOM      1  C   UNL     1      -1.310  -0.774   0.010  0.00  0.00    +0.072 C 
ATOM      2  C   UNL     1      -1.362  -1.554   1.264  0.00  0.00    +0.033 A 
ATOM      3  C   UNL     1      -1.801  -2.809   1.477  0.00  0.00    +0.091 A 
ATOM      4  N   UNL     1      -1.763  -3.235   2.782  0.00  0.00    -0.288 N 
ATOM      5  C   UNL     1      -1.269  -2.424   3.737  0.00  0.00    +0.292 A 
ATOM      6  O   UNL     1      -1.154  -2.644   4.930  0.00  0.00    -0.259 OA
ATOM      7  S   UNL     1      -0.850  -1.036   2.887  0.00  0.00    -0.030 S 
ATOM      8  S   UNL     1      -2.343  -3.809   0.114  0.00  0.00    -0.093 S 
ATOM      9  C   UNL     1      -2.475  -2.667  -1.251  0.00  0.00    +0.153 C 
ATOM     10  C   UNL     1      -1.409  -1.566  -1.291  0.00  0.00    +0.112 C 
ATOM     11  C   UNL     1      -2.150  -0.594  -2.237  0.00  0.00    +0.245 C 
ATOM     12  O   UNL     1      -1.581   0.322  -3.035  0.00  0.00    -0.273 OA
ATOM     13  N   UNL     1      -3.433  -0.825  -2.120  0.00  0.00    -0.145 NA
ATOM     14  C   UNL     1      -3.746  -1.878  -1.348  0.00  0.00    +0.253 C 
ATOM     15  O   UNL     1      -4.822  -2.137  -0.850  0.00  0.00    -0.272 OA
ENDROOT
BRANCH   1  21
ATOM     16  C   UNL     1      -0.031   1.377  -0.000  0.00  0.00    +0.008 A 
ATOM     17  C   UNL     1       1.156   2.084  -0.016  0.00  0.00    +0.045 A 
ATOM     18  C   UNL     1       2.365   1.405  -0.040  0.00  0.00    +0.117 A 
ATOM     19  C   UNL     1       2.380   0.018  -0.048  0.00  0.00    +0.045 A 
ATOM     20  C   UNL     1       1.190  -0.684  -0.032  0.00  0.00    +0.008 A 
ATOM     21  C   UNL     1      -0.014  -0.006  -0.008  0.00  0.00    -0.038 A 
BRANCH  18  22
ATOM     22  O   UNL     1       3.534   2.098  -0.057  0.00  0.00    -0.507 OA
ATOM     23  H   UNL     1       3.888   2.294   0.822  0.00  0.00    +0.292 HD
ENDBRANCH  18  22
ENDBRANCH   1  21
BRANCH   4  24
ATOM     24  C   UNL     1      -2.258  -4.567   3.135  0.00  0.00    +0.222 C 
BRANCH  24  25
ATOM     25  C   UNL     1      -1.131  -5.563   3.043  0.00  0.00    +0.237 C 
ATOM     26  O   UNL     1      -0.023  -5.196   2.714  0.00  0.00    -0.274 OA
ATOM     27  N   UNL     1      -1.355  -6.862   3.325  0.00  0.00    -0.284 N 
ATOM     28  H   UNL     1      -2.223  -7.145   3.652  0.00  0.00    +0.155 HD
BRANCH  27  29
ATOM     29  C   UNL     1      -0.334  -7.803   3.146  0.00  0.00    +0.034 A 
ATOM     30  C   UNL     1      -0.639  -9.087   2.712  0.00  0.00    +0.026 A 
ATOM     31  C   UNL     1       0.370 -10.014   2.536  0.00  0.00    +0.040 A 
ATOM     32  C   UNL     1       1.685  -9.664   2.793  0.00  0.00    +0.124 A 
ATOM     33  C   UNL     1       1.992  -8.385   3.225  0.00  0.00    +0.040 A 
ATOM     34  C   UNL     1       0.986  -7.453   3.396  0.00  0.00    +0.026 A 
ATOM     35  F   UNL     1       2.670 -10.572   2.621  0.00  0.00    -0.205 F 
ENDBRANCH  27  29
ENDBRANCH  24  25
ENDBRANCH   4  24
TORSDOF 5
