REMARK  Name = ZINC02542440
REMARK  8 active torsions:
REMARK  status: ('A' for Active; 'I' for Inactive)
REMARK    1  A    between atoms: C_4  and  O_26
REMARK    2  A    between atoms: C_5  and  C_7
REMARK    3  A    between atoms: N_8  and  N_9
REMARK    4  A    between atoms: C_10  and  C_12
REMARK    5  A    between atoms: N_14  and  C_15
REMARK    6  A    between atoms: C_16  and  C_24
REMARK    7  A    between atoms: O_26  and  C_27
REMARK    8  A    between atoms: C_27  and  C_29
REMARK                            x       y       z     vdW  Elec       q    Type
REMARK                         _______ _______ _______ _____ _____    ______ ____
ROOT
ATOM      1  N   UNL     1       2.183  -3.941  -0.775  0.00  0.00    -0.199 N 
ATOM      2  C   UNL     1       3.290  -4.695  -0.925  0.00  0.00    +0.318 C 
ATOM      3  O   UNL     1       4.382  -4.229  -0.669  0.00  0.00    -0.263 OA
ATOM      4  H   UNL     1       1.306  -4.335  -0.901  0.00  0.00    +0.178 HD
ENDROOT
BRANCH   2   5
ATOM      5  C   UNL     1       3.174  -6.101  -1.406  0.00  0.00    +0.305 C 
ATOM      6  O   UNL     1       2.082  -6.567  -1.662  0.00  0.00    -0.265 OA
ATOM      7  N   UNL     1       4.280  -6.855  -1.556  0.00  0.00    -0.271 N 
ATOM      8  H   UNL     1       5.152  -6.483  -1.352  0.00  0.00    +0.156 HD
BRANCH   7   9
ATOM      9  C   UNL     1       4.172  -8.162  -2.003  0.00  0.00    +0.090 A 
ATOM     10  C   UNL     1       5.178  -9.096  -2.217  0.00  0.00    +0.084 A 
ATOM     11  C   UNL     1       4.792 -10.412  -2.695  0.00  0.00    -0.018 A 
ATOM     12  C   UNL     1       3.469 -10.612  -2.890  0.00  0.00    -0.004 A 
ATOM     13  S   UNL     1       2.705  -9.076  -2.443  0.00  0.00    -0.077 S 
ATOM     14  C   UNL     1       2.803 -11.863  -3.375  0.00  0.00    +0.043 C 
ATOM     15  C   UNL     1       3.876 -12.782  -3.975  0.00  0.00    +0.005 C 
ATOM     16  C   UNL     1       5.054 -12.864  -3.000  0.00  0.00    +0.005 C 
ATOM     17  C   UNL     1       5.796 -11.527  -2.968  0.00  0.00    +0.037 C 
BRANCH  10  18
ATOM     18  C   UNL     1       6.552  -8.771  -1.975  0.00  0.00    +0.102 C 
ATOM     19  N   UNL     1       7.642  -8.514  -1.783  0.00  0.00    -0.191 NA
ENDBRANCH  10  18
ENDBRANCH   7   9
ENDBRANCH   2   5
BRANCH   1  21
ATOM     20  C   UNL     1       1.235  -1.849  -0.334  0.00  0.00    +0.142 C 
ATOM     21  N   UNL     1       2.299  -2.587  -0.435  0.00  0.00    -0.187 NA
BRANCH  20  26
ATOM     22  C   UNL     1       0.345   1.735   0.331  0.00  0.00    +0.001 A 
ATOM     23  C   UNL     1       1.600   2.314   0.420  0.00  0.00    +0.004 A 
ATOM     24  C   UNL     1       2.738   1.546   0.265  0.00  0.00    +0.047 A 
ATOM     25  C   UNL     1       2.630   0.187   0.019  0.00  0.00    +0.141 A 
ATOM     26  C   UNL     1       1.362  -0.405  -0.072  0.00  0.00    +0.037 A 
ATOM     27  C   UNL     1       0.219   0.384   0.087  0.00  0.00    +0.013 A 
BRANCH  25  28
ATOM     28  O   UNL     1       3.747  -0.569  -0.135  0.00  0.00    -0.422 OA
BRANCH  28  29
ATOM     29  C   UNL     1       4.182  -0.809  -1.387  0.00  0.00    +0.344 C 
ATOM     30  O   UNL     1       3.528  -0.433  -2.340  0.00  0.00    -0.245 OA
BRANCH  29  31
ATOM     31  C   UNL     1       5.454  -1.528  -1.603  0.00  0.00    +0.059 A 
ATOM     32  C   UNL     1       6.200  -1.975  -0.510  0.00  0.00    +0.016 A 
ATOM     33  C   UNL     1       7.386  -2.646  -0.718  0.00  0.00    +0.021 A 
ATOM     34  C   UNL     1       7.838  -2.877  -2.007  0.00  0.00    +0.041 A 
ATOM     35  C   UNL     1       7.103  -2.436  -3.095  0.00  0.00    +0.021 A 
ATOM     36  C   UNL     1       5.912  -1.768  -2.900  0.00  0.00    +0.016 A 
ATOM     37 CL   UNL     1       9.334  -3.721  -2.260  0.00  0.00    -0.084 Cl
ENDBRANCH  29  31
ENDBRANCH  28  29
ENDBRANCH  25  28
ENDBRANCH  20  26
ENDBRANCH   1  21
TORSDOF 8
