REMARK  Name = ZINC18195454
REMARK  8 active torsions:
REMARK  status: ('A' for Active; 'I' for Inactive)
REMARK    1  A    between atoms: C_1  and  C_2
REMARK    2  A    between atoms: C_2  and  C_3
REMARK    3  A    between atoms: C_2  and  C_4
REMARK    4  A    between atoms: C_7  and  C_10
REMARK    5  A    between atoms: N_15  and  C_18
REMARK    6  A    between atoms: C_16  and  O_17
REMARK    7  A    between atoms: C_30  and  C_32
REMARK    8  A    between atoms: C_30  and  C_33
REMARK                            x       y       z     vdW  Elec       q    Type
REMARK                         _______ _______ _______ _____ _____    ______ ____
ROOT
ATOM      1  C   UNL     1      -5.419  -2.005   0.043  0.00  0.00    +0.092 C 
ATOM      2  C   UNL     1      -6.144  -1.509  -1.175  0.00  0.00    +0.067 A 
ATOM      3  C   UNL     1      -6.445  -2.359  -2.265  0.00  0.00    +0.153 A 
ATOM      4  N   UNL     1      -7.067  -1.662  -3.170  0.00  0.00    -0.148 NA
ATOM      5  N   UNL     1      -7.193  -0.345  -2.700  0.00  0.00    -0.199 N 
ATOM      6  C   UNL     1      -6.615  -0.281  -1.466  0.00  0.00    +0.222 A 
ATOM      7  N   UNL     1      -6.079  -3.708  -2.239  0.00  0.00    -0.301 N 
ATOM      8  C   UNL     1      -5.699  -4.260  -1.041  0.00  0.00    +0.017 C 
ATOM      9  C   UNL     1      -5.396  -3.518   0.044  0.00  0.00    +0.024 C 
ATOM     10  C   UNL     1      -5.037  -4.135   1.258  0.00  0.00    +0.162 C 
ATOM     11  O   UNL     1      -4.765  -3.440   2.217  0.00  0.00    -0.292 OA
ATOM     12  C   UNL     1      -4.983  -5.630   1.398  0.00  0.00    +0.086 C 
ATOM     13  C   UNL     1      -5.975  -6.257   0.413  0.00  0.00    -0.023 C 
ATOM     14  C   UNL     1      -5.626  -5.770  -0.990  0.00  0.00    +0.058 C 
ATOM     15  C   UNL     1      -7.399  -5.825   0.770  0.00  0.00    +0.011 C 
ATOM     16  C   UNL     1      -5.867  -7.782   0.472  0.00  0.00    +0.011 C 
ATOM     17  H   UNL     1      -6.093  -4.241  -3.048  0.00  0.00    +0.153 HD
ENDROOT
BRANCH   1  21
ATOM     18  C   UNL     1      -1.412  -0.526   0.013  0.00  0.00    -0.045 A 
ATOM     19  C   UNL     1      -2.259  -0.204   1.056  0.00  0.00    +0.004 A 
ATOM     20  C   UNL     1      -3.556  -0.683   1.066  0.00  0.00    +0.005 A 
ATOM     21  C   UNL     1      -4.006  -1.482   0.032  0.00  0.00    -0.035 A 
ATOM     22  C   UNL     1      -3.159  -1.803  -1.012  0.00  0.00    +0.005 A 
ATOM     23  C   UNL     1      -1.863  -1.321  -1.024  0.00  0.00    +0.004 A 
BRANCH  18  25
ATOM     24  C   UNL     1      -0.019   1.526   0.010  0.00  0.00    +0.012 C 
ATOM     25  C   UNL     1       0.002  -0.004   0.002  0.00  0.00    +0.013 C 
ATOM     26  C   UNL     1       0.742  -0.511   1.242  0.00  0.00    +0.012 C 
ENDBRANCH  18  25
ENDBRANCH   1  21
BRANCH   5  27
ATOM     27  C   UNL     1      -7.804   0.717  -3.380  0.00  0.00    +0.069 A 
ATOM     28  C   UNL     1      -8.504   1.685  -2.672  0.00  0.00    +0.028 A 
ATOM     29  C   UNL     1      -9.105   2.731  -3.345  0.00  0.00    +0.002 A 
ATOM     30  C   UNL     1      -9.012   2.813  -4.722  0.00  0.00    +0.000 A 
ATOM     31  C   UNL     1      -8.316   1.850  -5.430  0.00  0.00    +0.002 A 
ATOM     32  C   UNL     1      -7.707   0.806  -4.762  0.00  0.00    +0.028 A 
ENDBRANCH   5  27
BRANCH   6  33
ATOM     33  O   UNL     1      -6.530   0.820  -0.676  0.00  0.00    -0.492 OA
ATOM     34  H   UNL     1      -5.732   1.347  -0.821  0.00  0.00    +0.294 HD
ENDBRANCH   6  33
TORSDOF 4
