REMARK  Name = ZINC31632231
REMARK  7 active torsions:
REMARK  status: ('A' for Active; 'I' for Inactive)
REMARK    1  A    between atoms: C_1  and  C_2
REMARK    2  A    between atoms: C_5  and  C_8
REMARK    3  A    between atoms: C_8  and  C_31
REMARK    4  A    between atoms: N_11  and  C_15
REMARK    5  A    between atoms: C_15  and  C_16
REMARK    6  A    between atoms: N_18  and  C_19
REMARK    7  A    between atoms: C_20  and  C_28
REMARK                            x       y       z     vdW  Elec       q    Type
REMARK                         _______ _______ _______ _____ _____    ______ ____
ROOT
ATOM      1  C   UNL     1      -6.502   0.935   3.046  0.00  0.00    +0.236 C 
ATOM      2  O   UNL     1      -5.659   1.229   3.868  0.00  0.00    -0.274 OA
ATOM      3  N   UNL     1      -6.152   0.758   1.756  0.00  0.00    -0.278 N 
ATOM      4  H   UNL     1      -6.917   0.492   1.011  0.00  0.00    +0.155 HD
ENDROOT
BRANCH   3   5
ATOM      5  C   UNL     1      -4.830   0.911   1.369  0.00  0.00    +0.084 A 
ATOM      6  C   UNL     1      -4.281   0.773   0.102  0.00  0.00    +0.068 A 
ATOM      7  C   UNL     1      -2.851   0.990  -0.038  0.00  0.00    -0.023 A 
ATOM      8  C   UNL     1      -2.203   1.308   1.104  0.00  0.00    -0.004 A 
ATOM      9  S   UNL     1      -3.462   1.323   2.349  0.00  0.00    -0.077 S 
ATOM     10  C   UNL     1      -0.737   1.584   1.267  0.00  0.00    +0.043 C 
ATOM     11  C   UNL     1      -0.013   1.086   0.008  0.00  0.00    +0.005 C 
ATOM     12  C   UNL     1      -0.759   1.596  -1.228  0.00  0.00    +0.005 C 
ATOM     13  C   UNL     1      -2.102   0.875  -1.359  0.00  0.00    +0.037 C 
BRANCH   6  14
ATOM     14  C   UNL     1      -5.113   0.420  -1.053  0.00  0.00    +0.244 C 
ATOM     15  O   UNL     1      -5.285  -0.749  -1.344  0.00  0.00    -0.270 OA
ATOM     16  N   UNL     1      -5.688   1.390  -1.791  0.00  0.00    -0.325 N 
ATOM     17  H   UNL     1      -6.312   1.126  -2.657  0.00  0.00    +0.145 HD
ATOM     18  H   UNL     1      -5.532   2.447  -1.527  0.00  0.00    +0.145 HD
ENDBRANCH   6  14
ENDBRANCH   3   5
BRANCH   1  19
ATOM     19  C   UNL     1      -7.939   0.769   3.467  0.00  0.00    +0.214 C 
BRANCH  19  23
ATOM     20  C   UNL     1      -8.340   1.993   6.951  0.00  0.00    +0.135 C 
ATOM     21  C   UNL     1      -8.302   2.220   5.453  0.00  0.00    +0.251 C 
ATOM     22  O   UNL     1      -8.459   3.270   4.867  0.00  0.00    -0.272 OA
ATOM     23  N   UNL     1      -8.057   1.012   4.907  0.00  0.00    -0.215 N 
ATOM     24  C   UNL     1      -7.942   0.063   5.842  0.00  0.00    +0.310 C 
ATOM     25  O   UNL     1      -7.724  -1.107   5.594  0.00  0.00    -0.252 OA
ATOM     26  N   UNL     1      -8.089   0.548   7.088  0.00  0.00    -0.281 N 
ATOM     27  C   UNL     1      -9.715   2.356   7.516  0.00  0.00    +0.047 C 
ATOM     28  H   UNL     1      -8.055   0.088   8.087  0.00  0.00    +0.152 HD
BRANCH  20  33
ATOM     29  C   UNL     1      -4.188   5.037   9.575  0.00  0.00    +0.044 C 
ATOM     30  C   UNL     1      -5.271   4.243   8.891  0.00  0.00    -0.050 A 
ATOM     31  C   UNL     1      -5.698   3.046   9.434  0.00  0.00    +0.004 A 
ATOM     32  C   UNL     1      -6.692   2.318   8.806  0.00  0.00    +0.006 A 
ATOM     33  C   UNL     1      -7.257   2.787   7.635  0.00  0.00    -0.015 A 
ATOM     34  C   UNL     1      -6.826   3.981   7.089  0.00  0.00    +0.006 A 
ATOM     35  C   UNL     1      -5.836   4.711   7.719  0.00  0.00    +0.004 A 
ENDBRANCH  20  33
ENDBRANCH  19  23
ENDBRANCH   1  19
TORSDOF 5
