REMARK  Name = ZINC42860081
REMARK  5 active torsions:
REMARK  status: ('A' for Active; 'I' for Inactive)
REMARK    1  A    between atoms: C_1  and  C_2
REMARK    2  A    between atoms: C_8  and  C_10
REMARK    3  A    between atoms: C_10  and  N_11
REMARK    4  A    between atoms: N_11  and  C_12
REMARK    5  A    between atoms: C_17  and  N_18
REMARK                            x       y       z     vdW  Elec       q    Type
REMARK                         _______ _______ _______ _____ _____    ______ ____
ROOT
ATOM      1  C   UNL     1       0.178  -0.292   4.964  0.00  0.00    +0.050 A 
ATOM      2  C   UNL     1      -0.908   0.559   5.108  0.00  0.00    +0.051 A 
ATOM      3  C   UNL     1      -1.385   0.860   6.374  0.00  0.00    +0.078 A 
ATOM      4  C   UNL     1      -0.775   0.311   7.501  0.00  0.00    +0.144 A 
ATOM      5  C   UNL     1       0.308  -0.538   7.357  0.00  0.00    +0.072 A 
ATOM      6  C   UNL     1       0.784  -0.846   6.091  0.00  0.00    +0.049 A 
ATOM      7  O   UNL     1      -1.254   0.619   8.737  0.00  0.00    -0.481 OA
ATOM      8  C   UNL     1      -1.802   1.929   8.907  0.00  0.00    +0.325 C 
ATOM      9  C   UNL     1      -2.728   2.243   7.759  0.00  0.00    +0.255 C 
ATOM     10  O   UNL     1      -3.689   2.962   7.932  0.00  0.00    -0.272 OA
ATOM     11  N   UNL     1      -2.484   1.718   6.539  0.00  0.00    -0.280 N 
ATOM     12  H   UNL     1      -3.059   1.932   5.787  0.00  0.00    +0.155 HD
ENDROOT
BRANCH   6  13
ATOM     13  N   UNL     1       1.878  -1.710   5.944  0.00  0.00    -0.356 N 
ATOM     14  H   UNL     1       2.213  -1.923   5.059  0.00  0.00    +0.142 HD
ATOM     15  H   UNL     1       2.300  -2.096   6.728  0.00  0.00    +0.142 HD
ENDBRANCH   6  13
BRANCH   1  16
ATOM     16  N   UNL     1       0.663  -0.600   3.684  0.00  0.00    -0.342 N 
ATOM     17  H   UNL     1       1.420  -1.198   3.583  0.00  0.00    +0.146 HD
BRANCH  16  18
ATOM     18  C   UNL     1       0.026  -0.018   2.500  0.00  0.00    +0.105 C 
BRANCH  18  25
ATOM     19  C   UNL     1      -0.019   1.526   0.010  0.00  0.00    +0.008 C 
ATOM     20  C   UNL     1       0.002  -0.004   0.002  0.00  0.00    -0.010 C 
ATOM     21  C   UNL     1       0.718  -0.497  -1.257  0.00  0.00    +0.003 C 
ATOM     22  C   UNL     1       2.154   0.032  -1.268  0.00  0.00    +0.000 C 
ATOM     23  C   UNL     1       2.894  -0.475  -0.028  0.00  0.00    +0.000 C 
ATOM     24  C   UNL     1       2.178   0.019   1.231  0.00  0.00    +0.005 C 
ATOM     25  C   UNL     1       0.742  -0.511   1.242  0.00  0.00    +0.009 C 
ENDBRANCH  18  25
ENDBRANCH  16  18
ENDBRANCH   1  16
TORSDOF 4
