REMARK  Name = ZINC35711721
REMARK  13 active torsions:
REMARK  status: ('A' for Active; 'I' for Inactive)
REMARK    1  A    between atoms: C_1  and  C_2
REMARK    2  A    between atoms: C_2  and  C_3
REMARK    3  A    between atoms: C_3  and  N_4
REMARK    4  A    between atoms: C_5  and  C_37
REMARK    5  A    between atoms: C_6  and  C_30
REMARK    6  A    between atoms: C_7  and  C_12
REMARK    7  A    between atoms: C_15  and  N_18
REMARK    8  A    between atoms: N_21  and  C_22
REMARK    9  A    between atoms: C_30  and  O_32
REMARK   10  A    between atoms: O_32  and  C_33
REMARK   11  A    between atoms: C_33  and  C_34
REMARK   12  A    between atoms: C_34  and  C_35
REMARK   13  A    between atoms: C_34  and  C_36
REMARK                            x       y       z     vdW  Elec       q    Type
REMARK                         _______ _______ _______ _____ _____    ______ ____
ROOT
ATOM      1  C   UNL     1      -0.119  -5.592  -0.257  0.00  0.00    -0.022 A 
ATOM      2  C   UNL     1       1.125  -5.000  -0.137  0.00  0.00    +0.007 A 
ATOM      3  C   UNL     1       2.269  -5.745  -0.349  0.00  0.00    +0.024 A 
ATOM      4  C   UNL     1       2.169  -7.089  -0.682  0.00  0.00    +0.035 A 
ATOM      5  C   UNL     1       0.918  -7.681  -0.801  0.00  0.00    +0.024 A 
ATOM      6  C   UNL     1      -0.222  -6.932  -0.583  0.00  0.00    +0.007 A 
ENDROOT
BRANCH   1  10
ATOM      7  N   UNL     1      -1.520  -2.015   0.019  0.00  0.00    -0.259 N 
ATOM      8  C   UNL     1      -1.705  -2.638  -1.182  0.00  0.00    +0.024 C 
ATOM      9  C   UNL     1      -1.645  -3.983  -1.286  0.00  0.00    +0.078 C 
ATOM     10  C   UNL     1      -1.364  -4.776  -0.025  0.00  0.00    +0.143 C 
ATOM     11  N   UNL     1      -1.179  -4.009   1.218  0.00  0.00    -0.288 N 
ATOM     12  C   UNL     1      -1.264  -2.665   1.161  0.00  0.00    +0.307 C 
ATOM     13  O   UNL     1      -1.109  -2.022   2.181  0.00  0.00    -0.252 OA
ATOM     14  C   UNL     1      -1.981  -1.811  -2.412  0.00  0.00    +0.061 C 
ATOM     15  H   UNL     1      -0.997  -4.460   2.057  0.00  0.00    +0.151 HD
BRANCH   9  16
ATOM     16  C   UNL     1      -1.837  -4.630  -2.529  0.00  0.00    +0.339 C 
ATOM     17  O   UNL     1      -2.062  -3.973  -3.529  0.00  0.00    -0.245 OA
BRANCH  16  18
ATOM     18  O   UNL     1      -1.772  -5.976  -2.607  0.00  0.00    -0.461 OA
BRANCH  18  19
ATOM     19  C   UNL     1      -1.977  -6.562  -3.894  0.00  0.00    +0.235 C 
BRANCH  19  20
ATOM     20  C   UNL     1      -1.867  -8.084  -3.784  0.00  0.00    +0.020 C 
ATOM     21  C   UNL     1      -3.005  -8.616  -2.912  0.00  0.00    +0.010 C 
ATOM     22  C   UNL     1      -1.961  -8.704  -5.180  0.00  0.00    +0.010 C 
ENDBRANCH  19  20
ENDBRANCH  18  19
ENDBRANCH  16  18
ENDBRANCH   9  16
BRANCH   7  23
ATOM     23  C   UNL     1      -1.598  -0.553   0.058  0.00  0.00    +0.114 C 
BRANCH  23  25
ATOM     24  C   UNL     1      -3.143   1.403   0.236  0.00  0.00    +0.005 C 
ATOM     25  C   UNL     1      -3.061  -0.124   0.195  0.00  0.00    +0.016 C 
ENDBRANCH  23  25
ENDBRANCH   7  23
ENDBRANCH   1  10
BRANCH   4  26
ATOM     26  N   UNL     1       3.325  -7.846  -0.898  0.00  0.00    -0.269 N 
ATOM     27  C   UNL     1       4.434  -7.605  -0.172  0.00  0.00    +0.308 C 
ATOM     28  O   UNL     1       4.456  -6.678   0.615  0.00  0.00    -0.252 OA
ATOM     29  N   UNL     1       5.519  -8.391  -0.316  0.00  0.00    -0.269 N 
ATOM     30  H   UNL     1       3.329  -8.545  -1.571  0.00  0.00    +0.156 HD
ATOM     31  H   UNL     1       5.532  -9.080  -0.999  0.00  0.00    +0.156 HD
BRANCH  29  32
ATOM     32  C   UNL     1       6.629  -8.214   0.520  0.00  0.00    +0.038 A 
ATOM     33  C   UNL     1       6.448  -7.839   1.845  0.00  0.00    +0.026 A 
ATOM     34  C   UNL     1       7.543  -7.665   2.669  0.00  0.00    +0.043 A 
ATOM     35  C   UNL     1       8.821  -7.864   2.176  0.00  0.00    +0.159 A 
ATOM     36  C   UNL     1       9.005  -8.239   0.853  0.00  0.00    +0.160 A 
ATOM     37  C   UNL     1       7.910  -8.419   0.027  0.00  0.00    +0.064 A 
ATOM     38  F   UNL     1      10.253  -8.432   0.373  0.00  0.00    -0.202 F 
ATOM     39  F   UNL     1       9.890  -7.693   2.983  0.00  0.00    -0.202 F 
ENDBRANCH  29  32
ENDBRANCH   4  26
TORSDOF 9
