REMARK  Name = ZINC37040277
REMARK  5 active torsions:
REMARK  status: ('A' for Active; 'I' for Inactive)
REMARK    1  A    between atoms: C_1  and  C_2
REMARK    2  A    between atoms: C_4  and  C_9
REMARK    3  A    between atoms: C_7  and  N_8
REMARK    4  A    between atoms: N_11  and  C_12
REMARK    5  A    between atoms: C_15  and  N_19
REMARK                            x       y       z     vdW  Elec       q    Type
REMARK                         _______ _______ _______ _____ _____    ______ ____
ROOT
ATOM      1  C   UNL     1       0.034  -2.815  -2.481  0.00  0.00    +0.248 C 
ATOM      2  O   UNL     1       0.016  -2.204  -3.533  0.00  0.00    -0.270 OA
ATOM      3  N   UNL     1       0.046  -4.163  -2.486  0.00  0.00    -0.281 N 
ATOM      4  H   UNL     1       0.126  -4.650  -1.651  0.00  0.00    +0.155 HD
ENDROOT
BRANCH   1   8
ATOM      5  C   UNL     1       0.021   1.504   0.008  0.00  0.00    +0.045 C 
ATOM      6  C   UNL     1       0.035  -0.003   0.000  0.00  0.00    -0.029 A 
ATOM      7  C   UNL     1       0.028  -0.684  -1.196  0.00  0.00    +0.018 A 
ATOM      8  C   UNL     1       0.041  -2.082  -1.202  0.00  0.00    +0.037 A 
ATOM      9  C   UNL     1       0.061  -2.784   0.008  0.00  0.00    +0.015 A 
ATOM     10  C   UNL     1       0.067  -2.096   1.200  0.00  0.00    +0.024 A 
ATOM     11  C   UNL     1       0.060  -0.704   1.202  0.00  0.00    +0.028 A 
BRANCH  11  12
ATOM     12  N   UNL     1       0.072  -0.013   2.409  0.00  0.00    -0.358 N 
ATOM     13  H   UNL     1       0.063   0.957   2.412  0.00  0.00    +0.142 HD
ATOM     14  H   UNL     1       0.090  -0.500   3.247  0.00  0.00    +0.142 HD
ENDBRANCH  11  12
ENDBRANCH   1   8
BRANCH   3  15
ATOM     15  C   UNL     1      -0.056  -4.860  -3.695  0.00  0.00    +0.048 A 
ATOM     16  C   UNL     1       0.522  -4.343  -4.847  0.00  0.00    +0.026 A 
ATOM     17  C   UNL     1       0.420  -5.033  -6.038  0.00  0.00    +0.034 A 
ATOM     18  C   UNL     1      -0.257  -6.238  -6.086  0.00  0.00    +0.127 A 
ATOM     19  C   UNL     1      -0.835  -6.755  -4.941  0.00  0.00    +0.049 A 
ATOM     20  C   UNL     1      -0.732  -6.073  -3.744  0.00  0.00    +0.041 A 
ATOM     21 BR   UNL     1      -1.515  -6.785  -2.178  0.00  0.00    -0.048 Br
BRANCH  18  22
ATOM     22  N   UNL     1      -0.365  -6.974  -7.365  0.00  0.00    +0.056 N 
ATOM     23  O   UNL     1       0.140  -6.523  -8.367  0.00  0.00    -0.126 OA
ATOM     24  O   UNL     1      -0.957  -8.028  -7.409  0.00  0.00    -0.126 OA
ENDBRANCH  18  22
ENDBRANCH   3  15
TORSDOF 4
