REMARK  Name = ZINC27545816
REMARK  10 active torsions:
REMARK  status: ('A' for Active; 'I' for Inactive)
REMARK    1  A    between atoms: C_1  and  C_2
REMARK    2  A    between atoms: C_4  and  N_11
REMARK    3  A    between atoms: C_6  and  C_8
REMARK    4  A    between atoms: C_8  and  C_9
REMARK    5  A    between atoms: C_8  and  C_10
REMARK    6  A    between atoms: N_14  and  C_17
REMARK    7  A    between atoms: C_17  and  C_19
REMARK    8  A    between atoms: C_17  and  C_20
REMARK    9  A    between atoms: N_22  and  C_23
REMARK   10  A    between atoms: C_28  and  C_29
REMARK                            x       y       z     vdW  Elec       q    Type
REMARK                         _______ _______ _______ _____ _____    ______ ____
ROOT
ATOM      1  N   UNL     1       0.053  -2.841  -2.328  0.00  0.00    -0.313 N 
ATOM      2  C   UNL     1       0.036  -4.311  -2.281  0.00  0.00    +0.122 C 
ATOM      3  C   UNL     1      -1.101  -4.814  -3.177  0.00  0.00    +0.104 C 
ATOM      4  N   UNL     1      -0.954  -4.237  -4.520  0.00  0.00    -0.289 NA
ATOM      5  C   UNL     1      -1.076  -2.773  -4.488  0.00  0.00    +0.104 C 
ATOM      6  C   UNL     1       0.056  -2.188  -3.646  0.00  0.00    +0.122 C 
ENDROOT
BRANCH   1  10
ATOM      7  C   UNL     1       0.097   1.511  -0.029  0.00  0.00    +0.063 C 
ATOM      8  C   UNL     1       0.082   0.004  -0.026  0.00  0.00    +0.017 A 
ATOM      9  C   UNL     1       0.075  -0.698  -1.216  0.00  0.00    +0.064 A 
ATOM     10  C   UNL     1       0.061  -2.093  -1.163  0.00  0.00    +0.125 A 
ATOM     11  N   UNL     1       0.055  -2.691   0.025  0.00  0.00    -0.219 NA
ATOM     12  C   UNL     1       0.062  -1.982   1.135  0.00  0.00    +0.112 A 
ATOM     13  N   UNL     1       0.080  -0.665   1.119  0.00  0.00    -0.347 N 
ATOM     14  H   UNL     1       0.089  -0.176   1.957  0.00  0.00    +0.167 HD
BRANCH  12  15
ATOM     15  C   UNL     1       0.056  -2.698   2.462  0.00  0.00    +0.049 C 
ATOM     16  C   UNL     1       1.491  -2.844   2.970  0.00  0.00    +0.015 C 
ATOM     17  C   UNL     1      -0.764  -1.893   3.472  0.00  0.00    +0.015 C 
ENDBRANCH  12  15
ENDBRANCH   1  10
BRANCH   4  18
ATOM     18  C   UNL     1      -1.922  -4.826  -5.455  0.00  0.00    +0.140 C 
ATOM     19  C   UNL     1      -3.331  -4.346  -5.100  0.00  0.00    +0.034 C 
BRANCH  18  20
ATOM     20  C   UNL     1      -1.586  -4.399  -6.861  0.00  0.00    +0.234 C 
ATOM     21  O   UNL     1      -0.633  -3.676  -7.064  0.00  0.00    -0.274 OA
ATOM     22  N   UNL     1      -2.343  -4.822  -7.892  0.00  0.00    -0.284 N 
ATOM     23  H   UNL     1      -3.138  -5.352  -7.725  0.00  0.00    +0.155 HD
BRANCH  22  24
ATOM     24  C   UNL     1      -1.983  -4.495  -9.205  0.00  0.00    +0.045 A 
ATOM     25  C   UNL     1      -1.221  -3.361  -9.456  0.00  0.00    +0.025 A 
ATOM     26  C   UNL     1      -0.867  -3.041 -10.751  0.00  0.00    +0.022 A 
ATOM     27  C   UNL     1      -1.271  -3.849 -11.800  0.00  0.00    +0.042 A 
ATOM     28  C   UNL     1      -2.030  -4.979 -11.553  0.00  0.00    +0.034 A 
ATOM     29  C   UNL     1      -2.382  -5.307 -10.258  0.00  0.00    +0.077 A 
ATOM     30 CL   UNL     1      -0.825  -3.443 -13.428  0.00  0.00    -0.084 Cl
BRANCH  29  31
ATOM     31  C   UNL     1      -3.204  -6.541  -9.989  0.00  0.00    +0.419 C 
ATOM     32  F   UNL     1      -3.480  -7.189 -11.198  0.00  0.00    -0.166 F 
ATOM     33  F   UNL     1      -2.490  -7.403  -9.150  0.00  0.00    -0.166 F 
ATOM     34  F   UNL     1      -4.404  -6.176  -9.371  0.00  0.00    -0.166 F 
ENDBRANCH  29  31
ENDBRANCH  22  24
ENDBRANCH  18  20
ENDBRANCH   4  18
TORSDOF 6
