REMARK  Name = ZINC35642682
REMARK  9 active torsions:
REMARK  status: ('A' for Active; 'I' for Inactive)
REMARK    1  A    between atoms: C_1  and  C_2
REMARK    2  A    between atoms: C_2  and  O_3
REMARK    3  A    between atoms: O_3  and  C_4
REMARK    4  A    between atoms: C_4  and  C_6
REMARK    5  A    between atoms: C_7  and  C_22
REMARK    6  A    between atoms: N_8  and  C_21
REMARK    7  A    between atoms: C_12  and  C_14
REMARK    8  A    between atoms: C_22  and  N_23
REMARK    9  A    between atoms: C_30  and  C_32
REMARK                            x       y       z     vdW  Elec       q    Type
REMARK                         _______ _______ _______ _____ _____    ______ ____
ROOT
ATOM      1  C   UNL     1      -2.563  -3.057   0.935  0.00  0.00    +0.076 C 
ATOM      2  C   UNL     1      -2.950  -3.892  -0.054  0.00  0.00    +0.010 C 
ATOM      3  N   UNL     1      -4.202  -3.814  -0.592  0.00  0.00    -0.264 N 
ATOM      4  C   UNL     1      -5.127  -2.930  -0.198  0.00  0.00    +0.307 C 
ATOM      5  O   UNL     1      -6.215  -2.937  -0.737  0.00  0.00    -0.252 OA
ATOM      6  N   UNL     1      -4.889  -2.032   0.779  0.00  0.00    -0.288 N 
ATOM      7  C   UNL     1      -3.568  -2.037   1.430  0.00  0.00    +0.143 C 
ATOM      8  C   UNL     1      -4.554  -4.752  -1.662  0.00  0.00    +0.139 C 
ATOM      9  H   UNL     1      -5.573  -1.399   1.049  0.00  0.00    +0.151 HD
ENDROOT
BRANCH   7  10
ATOM     10  C   UNL     1      -3.773  -2.264   2.905  0.00  0.00    -0.022 A 
ATOM     11  C   UNL     1      -4.604  -3.279   3.339  0.00  0.00    +0.008 A 
ATOM     12  C   UNL     1      -4.793  -3.488   4.692  0.00  0.00    +0.038 A 
ATOM     13  C   UNL     1      -4.147  -2.681   5.614  0.00  0.00    +0.123 A 
ATOM     14  C   UNL     1      -3.314  -1.664   5.178  0.00  0.00    +0.038 A 
ATOM     15  C   UNL     1      -3.124  -1.460   3.824  0.00  0.00    +0.008 A 
ATOM     16  F   UNL     1      -4.331  -2.884   6.936  0.00  0.00    -0.205 F 
ENDBRANCH   7  10
BRANCH   1  17
ATOM     17  C   UNL     1      -1.266  -3.137   1.494  0.00  0.00    +0.339 C 
ATOM     18  O   UNL     1      -0.517  -4.039   1.168  0.00  0.00    -0.245 OA
BRANCH  17  19
ATOM     19  O   UNL     1      -0.859  -2.212   2.389  0.00  0.00    -0.462 OA
BRANCH  19  21
ATOM     20  C   UNL     1       0.743  -1.222   3.903  0.00  0.00    +0.048 C 
ATOM     21  C   UNL     1       0.463  -2.354   2.913  0.00  0.00    +0.229 C 
ENDBRANCH  19  21
ENDBRANCH  17  19
ENDBRANCH   1  17
BRANCH   2  22
ATOM     22  C   UNL     1      -1.983  -4.926  -0.572  0.00  0.00    -0.026 C 
BRANCH  22  23
ATOM     23  N   UNL     1      -2.038  -6.120   0.282  0.00  0.00    +0.384 N 
ATOM     24  C   UNL     1      -0.910  -6.983  -0.058  0.00  0.00    -0.077 C 
ATOM     25  C   UNL     1      -0.501  -7.776   1.164  0.00  0.00    +0.000 C 
ATOM     26  C   UNL     1      -1.219  -9.137   1.155  0.00  0.00    +0.106 C 
ATOM     27  N   UNL     1      -2.616  -8.998   0.695  0.00  0.00    -0.299 N 
ATOM     28  C   UNL     1      -3.464  -7.901   1.113  0.00  0.00    +0.089 C 
ATOM     29  C   UNL     1      -3.310  -6.716   0.133  0.00  0.00    -0.059 C 
ATOM     30  C   UNL     1      -3.119  -9.925  -0.144  0.00  0.00    +0.247 C 
ATOM     31  O   UNL     1      -4.224  -9.771  -0.628  0.00  0.00    -0.270 OA
ATOM     32  H   UNL     1      -1.935  -5.828   1.243  0.00  0.00    -0.081 HD
BRANCH  30  33
ATOM     33  C   UNL     1      -2.328 -11.128  -0.476  0.00  0.00    +0.037 A 
ATOM     34  C   UNL     1      -1.542 -11.741   0.502  0.00  0.00    +0.016 A 
ATOM     35  C   UNL     1      -0.806 -12.864   0.187  0.00  0.00    +0.039 A 
ATOM     36  C   UNL     1      -0.845 -13.383  -1.098  0.00  0.00    +0.123 A 
ATOM     37  C   UNL     1      -1.624 -12.778  -2.073  0.00  0.00    +0.039 A 
ATOM     38  C   UNL     1      -2.369 -11.659  -1.767  0.00  0.00    +0.016 A 
ATOM     39  F   UNL     1      -0.121 -14.483  -1.402  0.00  0.00    -0.205 F 
ENDBRANCH  30  33
ENDBRANCH  22  23
ENDBRANCH   2  22
TORSDOF 7
