REMARK  Name = ZINC14275623
REMARK  7 active torsions:
REMARK  status: ('A' for Active; 'I' for Inactive)
REMARK    1  A    between atoms: C_1  and  C_2
REMARK    2  A    between atoms: C_6  and  C_10
REMARK    3  A    between atoms: C_7  and  O_8
REMARK    4  A    between atoms: O_8  and  C_9
REMARK    5  A    between atoms: N_12  and  C_13
REMARK    6  A    between atoms: C_13  and  N_15
REMARK    7  A    between atoms: C_21  and  C_25
REMARK                            x       y       z     vdW  Elec       q    Type
REMARK                         _______ _______ _______ _____ _____    ______ ____
ROOT
ATOM      1  C   UNL     1      -3.596  -0.802   0.034  0.00  0.00    +0.143 C 
ATOM      2  S   UNL     1      -3.567  -2.514   0.024  0.00  0.00    -0.018 S 
ENDROOT
BRANCH   1   3
ATOM      3  N   UNL     1      -4.774  -0.148   0.049  0.00  0.00    -0.276 N 
ATOM      4  C   UNL     1      -5.962  -0.861   0.057  0.00  0.00    +0.165 A 
ATOM      5  N   UNL     1      -6.141  -2.161   0.052  0.00  0.00    -0.225 NA
ATOM      6  C   UNL     1      -7.369  -2.724   0.061  0.00  0.00    +0.082 A 
ATOM      7  C   UNL     1      -7.699  -4.099   0.058  0.00  0.00    +0.049 A 
ATOM      8  C   UNL     1      -9.009  -4.506   0.069  0.00  0.00    +0.046 A 
ATOM      9  C   UNL     1     -10.052  -3.589   0.083  0.00  0.00    -0.031 A 
ATOM     10  C   UNL     1      -9.765  -2.237   0.087  0.00  0.00    +0.022 A 
ATOM     11  C   UNL     1      -8.457  -1.821   0.076  0.00  0.00    +0.041 A 
ATOM     12  S   UNL     1      -7.639  -0.244   0.084  0.00  0.00    -0.052 S 
ATOM     13  C   UNL     1     -11.482  -4.064   0.095  0.00  0.00    +0.045 C 
ATOM     14 CL   UNL     1      -9.371  -6.204   0.064  0.00  0.00    -0.083 Cl
ATOM     15  H   UNL     1      -4.791   0.821   0.054  0.00  0.00    +0.156 HD
ENDBRANCH   1   3
BRANCH   1  18
ATOM     16  C   UNL     1      -1.262  -0.763   0.011  0.00  0.00    +0.253 C 
ATOM     17  O   UNL     1      -1.242  -1.978   0.004  0.00  0.00    -0.270 OA
ATOM     18  N   UNL     1      -2.441  -0.109   0.026  0.00  0.00    -0.263 N 
ATOM     19  H   UNL     1      -2.457   0.861   0.031  0.00  0.00    +0.157 HD
BRANCH  16  25
ATOM     20  C   UNL     1       3.736  -0.678  -0.037  0.00  0.00    +0.047 C 
ATOM     21  C   UNL     1       2.413   0.043  -0.021  0.00  0.00    -0.007 A 
ATOM     22  C   UNL     1       2.381   1.424  -0.013  0.00  0.00    +0.022 A 
ATOM     23  C   UNL     1       1.169   2.096   0.002  0.00  0.00    +0.019 A 
ATOM     24  C   UNL     1      -0.017   1.393   0.010  0.00  0.00    +0.032 A 
ATOM     25  C   UNL     1       0.002  -0.004   0.002  0.00  0.00    +0.080 A 
ATOM     26  C   UNL     1       1.230  -0.680  -0.013  0.00  0.00    +0.135 A 
ATOM     27 BR   UNL     1       1.142   3.987   0.013  0.00  0.00    -0.050 Br
BRANCH  26  28
ATOM     28  O   UNL     1       1.261  -2.037  -0.021  0.00  0.00    -0.494 OA
ATOM     29  C   UNL     1       1.263  -2.679  -1.297  0.00  0.00    +0.277 C 
ENDBRANCH  26  28
ENDBRANCH  16  25
ENDBRANCH   1  18
TORSDOF 4
