REMARK  Name = ZINC39599847
REMARK  8 active torsions:
REMARK  status: ('A' for Active; 'I' for Inactive)
REMARK    1  A    between atoms: C_1  and  C_2
REMARK    2  A    between atoms: C_5  and  C_9
REMARK    3  A    between atoms: C_7  and  C_8
REMARK    4  A    between atoms: C_13  and  C_22
REMARK    5  A    between atoms: N_24  and  C_25
REMARK    6  A    between atoms: C_25  and  C_26
REMARK    7  A    between atoms: C_29  and  O_32
REMARK    8  A    between atoms: O_32  and  C_33
REMARK                            x       y       z     vdW  Elec       q    Type
REMARK                         _______ _______ _______ _____ _____    ______ ____
ROOT
ATOM      1  C   UNL     1       0.063  -4.258  -0.019  0.00  0.00    +0.247 C 
ATOM      2  O   UNL     1       0.186  -4.872   1.023  0.00  0.00    -0.270 OA
ATOM      3  N   UNL     1      -0.036  -4.925  -1.186  0.00  0.00    -0.296 N 
ATOM      4  C   UNL     1      -0.063  -4.359  -2.555  0.00  0.00    +0.121 C 
ATOM      5  C   UNL     1       0.782  -5.339  -3.399  0.00  0.00    +0.100 C 
ATOM      6  C   UNL     1       0.724  -6.670  -2.630  0.00  0.00    -0.004 C 
ATOM      7  C   UNL     1      -0.137  -6.390  -1.390  0.00  0.00    +0.115 C 
ATOM      8  C   UNL     1       0.076  -7.750  -3.491  0.00  0.00    -0.010 C 
ATOM      9  C   UNL     1       0.083  -9.077  -2.728  0.00  0.00    -0.082 C 
ATOM     10  N   UNL     1       1.464  -9.448  -2.399  0.00  0.00    +0.379 N 
ATOM     11  C   UNL     1       2.049  -8.450  -1.495  0.00  0.00    -0.082 C 
ATOM     12  C   UNL     1       2.126  -7.097  -2.206  0.00  0.00    -0.010 C 
ATOM     13  H   UNL     1       1.470 -10.352  -1.950  0.00  0.00    -0.086 HD
ATOM     14  H   UNL     1       2.010  -9.493  -3.246  0.00  0.00    -0.086 HD
ENDROOT
BRANCH   1  19
ATOM     15  C   UNL     1      -0.097   1.494   0.033  0.00  0.00    +0.044 C 
ATOM     16  C   UNL     1      -0.055  -0.012   0.020  0.00  0.00    -0.047 A 
ATOM     17  C   UNL     1      -0.642  -0.708  -1.022  0.00  0.00    +0.004 A 
ATOM     18  C   UNL     1      -0.607  -2.087  -1.041  0.00  0.00    +0.013 A 
ATOM     19  C   UNL     1       0.022  -2.780  -0.005  0.00  0.00    +0.037 A 
ATOM     20  C   UNL     1       0.612  -2.072   1.042  0.00  0.00    +0.016 A 
ATOM     21  C   UNL     1       0.575  -0.693   1.046  0.00  0.00    -0.047 A 
ATOM     22  C   UNL     1       1.216   0.074   2.174  0.00  0.00    +0.044 C 
ENDBRANCH   1  19
BRANCH   5  23
ATOM     23  C   UNL     1       2.205  -4.851  -3.502  0.00  0.00    +0.218 C 
ATOM     24  O   UNL     1       2.717  -4.275  -2.565  0.00  0.00    -0.275 OA
ATOM     25  N   UNL     1       2.907  -5.056  -4.633  0.00  0.00    -0.311 N 
ATOM     26  H   UNL     1       2.498  -5.517  -5.382  0.00  0.00    +0.149 HD
BRANCH  25  27
ATOM     27  C   UNL     1       4.290  -4.582  -4.733  0.00  0.00    +0.139 C 
BRANCH  27  28
ATOM     28  C   UNL     1       4.845  -4.934  -6.089  0.00  0.00    -0.030 A 
ATOM     29  C   UNL     1       5.485  -6.145  -6.280  0.00  0.00    +0.009 A 
ATOM     30  C   UNL     1       5.995  -6.470  -7.522  0.00  0.00    +0.046 A 
ATOM     31  C   UNL     1       5.865  -5.580  -8.578  0.00  0.00    +0.130 A 
ATOM     32  C   UNL     1       5.223  -4.366  -8.384  0.00  0.00    +0.046 A 
ATOM     33  C   UNL     1       4.710  -4.048  -7.141  0.00  0.00    +0.009 A 
BRANCH  31  34
ATOM     34  O   UNL     1       6.367  -5.897  -9.801  0.00  0.00    -0.406 OA
BRANCH  34  35
ATOM     35  C   UNL     1       6.196  -4.933 -10.841  0.00  0.00    +0.575 C 
ATOM     36  F   UNL     1       6.824  -3.737 -10.476  0.00  0.00    -0.133 F 
ATOM     37  F   UNL     1       6.767  -5.417 -12.023  0.00  0.00    -0.133 F 
ATOM     38  F   UNL     1       4.832  -4.701 -11.044  0.00  0.00    -0.133 F 
ENDBRANCH  34  35
ENDBRANCH  31  34
ENDBRANCH  27  28
ENDBRANCH  25  27
ENDBRANCH   5  23
TORSDOF 6
