REMARK  Name = ZINC37404712
REMARK  9 active torsions:
REMARK  status: ('A' for Active; 'I' for Inactive)
REMARK    1  A    between atoms: C_1  and  C_2
REMARK    2  A    between atoms: C_4  and  N_10
REMARK    3  A    between atoms: C_6  and  C_7
REMARK    4  A    between atoms: C_11  and  C_13
REMARK    5  A    between atoms: C_13  and  C_15
REMARK    6  A    between atoms: C_13  and  N_18
REMARK    7  A    between atoms: C_15  and  C_16
REMARK    8  A    between atoms: C_15  and  C_17
REMARK    9  A    between atoms: C_19  and  C_21
REMARK                            x       y       z     vdW  Elec       q    Type
REMARK                         _______ _______ _______ _____ _____    ______ ____
ROOT
ATOM      1  N   UNL     1       0.034  -3.010  -2.135  0.00  0.00    -0.278 N 
ATOM      2  C   UNL     1       0.054  -4.332  -1.878  0.00  0.00    +0.238 C 
ATOM      3  O   UNL     1       0.064  -4.727  -0.732  0.00  0.00    -0.273 OA
ATOM      4  H   UNL     1       0.025  -2.694  -3.053  0.00  0.00    +0.155 HD
ENDROOT
BRANCH   1   8
ATOM      5  C   UNL     1      -0.018   1.503   0.010  0.00  0.00    +0.045 C 
ATOM      6  C   UNL     1       0.002  -0.004   0.002  0.00  0.00    -0.027 A 
ATOM      7  C   UNL     1       0.007  -0.723  -1.161  0.00  0.00    +0.035 A 
ATOM      8  C   UNL     1       0.026  -2.099  -1.088  0.00  0.00    +0.073 A 
ATOM      9  S   UNL     1       0.038  -2.421   0.561  0.00  0.00    -0.067 S 
ATOM     10  C   UNL     1       0.023  -0.749   1.178  0.00  0.00    +0.105 A 
BRANCH  10  11
ATOM     11  C   UNL     1       0.029  -0.296   2.515  0.00  0.00    +0.393 C 
ATOM     12  O   UNL     1       0.015   0.906   2.755  0.00  0.00    -0.240 OA
ATOM     13  O   UNL     1       0.049  -1.105   3.436  0.00  0.00    -0.240 OA
ENDBRANCH  10  11
ENDBRANCH   1   8
BRANCH   2  14
ATOM     14  C   UNL     1       0.062  -5.321  -3.016  0.00  0.00    +0.162 C 
BRANCH  14  15
ATOM     15  N   UNL     1       0.084  -6.684  -2.478  0.00  0.00    -0.304 N 
ATOM     16  C   UNL     1      -0.399  -7.706  -3.212  0.00  0.00    +0.211 C 
ATOM     17  O   UNL     1      -0.851  -7.497  -4.318  0.00  0.00    -0.276 OA
ATOM     18  C   UNL     1      -0.377  -9.107  -2.659  0.00  0.00    +0.109 C 
ATOM     19  H   UNL     1       0.445  -6.851  -1.593  0.00  0.00    +0.149 HD
ENDBRANCH  14  15
BRANCH  14  20
ATOM     20  C   UNL     1       1.304  -5.094  -3.880  0.00  0.00    +0.012 C 
ATOM     21  C   UNL     1       2.559  -5.407  -3.061  0.00  0.00    +0.009 C 
ATOM     22  C   UNL     1       1.250  -6.013  -5.102  0.00  0.00    +0.009 C 
ENDBRANCH  14  20
ENDBRANCH   2  14
TORSDOF 5
