REMARK  Name = ZINC02782875
REMARK  7 active torsions:
REMARK  status: ('A' for Active; 'I' for Inactive)
REMARK    1  A    between atoms: C_1  and  C_2
REMARK    2  A    between atoms: C_6  and  C_7
REMARK    3  A    between atoms: N_8  and  N_9
REMARK    4  A    between atoms: C_10  and  C_12
REMARK    5  A    between atoms: C_17  and  C_30
REMARK    6  A    between atoms: C_20  and  C_23
REMARK    7  A    between atoms: C_30  and  C_31
REMARK                            x       y       z     vdW  Elec       q    Type
REMARK                         _______ _______ _______ _____ _____    ______ ____
ROOT
ATOM      1  C   UNL     1       0.320  -0.693   7.005  0.00  0.00    +0.151 A 
ATOM      2  C   UNL     1       0.585  -1.526   8.116  0.00  0.00    +0.078 A 
ATOM      3  C   UNL     1       0.588  -0.748   9.216  0.00  0.00    +0.119 A 
ATOM      4  N   UNL     1       0.331   0.537   8.830  0.00  0.00    -0.241 N 
ATOM      5  N   UNL     1       0.175   0.545   7.444  0.00  0.00    -0.164 NA
ATOM      6  C   UNL     1       0.252   1.665   9.761  0.00  0.00    +0.189 C 
ATOM      7  C   UNL     1       0.014   1.125  11.176  0.00  0.00    +0.060 C 
ATOM      8  C   UNL     1       1.026   0.018  11.489  0.00  0.00    +0.104 C 
ATOM      9  N   UNL     1       0.804  -1.100  10.551  0.00  0.00    -0.322 N 
ATOM     10  H   UNL     1       0.808  -2.025  10.845  0.00  0.00    +0.148 HD
ENDROOT
BRANCH   8  11
ATOM     11  C   UNL     1       0.833  -0.458  12.906  0.00  0.00    -0.027 A 
ATOM     12  C   UNL     1      -0.176  -1.355  13.201  0.00  0.00    +0.008 A 
ATOM     13  C   UNL     1      -0.354  -1.793  14.500  0.00  0.00    +0.038 A 
ATOM     14  C   UNL     1       0.480  -1.333  15.505  0.00  0.00    +0.123 A 
ATOM     15  C   UNL     1       1.491  -0.434  15.208  0.00  0.00    +0.038 A 
ATOM     16  C   UNL     1       1.670  -0.002  13.908  0.00  0.00    +0.008 A 
ATOM     17  F   UNL     1       0.307  -1.760  16.775  0.00  0.00    -0.205 F 
ENDBRANCH   8  11
BRANCH   1  19
ATOM     18  N   UNL     1      -0.028  -0.229   4.628  0.00  0.00    -0.202 N 
ATOM     19  C   UNL     1       0.226  -1.130   5.597  0.00  0.00    +0.283 C 
ATOM     20  O   UNL     1       0.379  -2.302   5.313  0.00  0.00    -0.267 OA
ATOM     21  H   UNL     1      -0.149   0.707   4.854  0.00  0.00    +0.178 HD
BRANCH  18  23
ATOM     22  C   UNL     1      -0.361   0.227   2.356  0.00  0.00    +0.145 C 
ATOM     23  N   UNL     1      -0.116  -0.643   3.292  0.00  0.00    -0.187 NA
BRANCH  22  29
ATOM     24  C   UNL     1      -0.927   2.036  -0.078  0.00  0.00    +0.045 C 
ATOM     25  C   UNL     1      -0.704   0.548  -0.175  0.00  0.00    -0.035 A 
ATOM     26  C   UNL     1      -0.737  -0.091  -1.392  0.00  0.00    +0.011 A 
ATOM     27  C   UNL     1      -0.531  -1.433  -1.444  0.00  0.00    +0.046 A 
ATOM     28  S   UNL     1      -0.277  -1.846   0.274  0.00  0.00    -0.095 S 
ATOM     29  C   UNL     1      -0.454  -0.206   0.959  0.00  0.00    +0.035 A 
ENDBRANCH  22  29
ENDBRANCH  18  23
ENDBRANCH   1  19
BRANCH   6  30
ATOM     30  C   UNL     1      -0.905   2.582   9.358  0.00  0.00    +0.363 C 
ATOM     31  F   UNL     1      -0.740   2.985   8.029  0.00  0.00    -0.193 F 
ATOM     32  F   UNL     1      -2.115   1.891   9.489  0.00  0.00    -0.193 F 
BRANCH  30  33
ATOM     33  C   UNL     1      -0.921   3.813  10.267  0.00  0.00    +0.456 C 
ATOM     34  F   UNL     1       0.337   4.426  10.243  0.00  0.00    -0.165 F 
ATOM     35  F   UNL     1      -1.888   4.716   9.812  0.00  0.00    -0.165 F 
ATOM     36  F   UNL     1      -1.225   3.424  11.575  0.00  0.00    -0.165 F 
ENDBRANCH  30  33
ENDBRANCH   6  30
TORSDOF 6
