REMARK  Name = ZINC02050335
REMARK  8 active torsions:
REMARK  status: ('A' for Active; 'I' for Inactive)
REMARK    1  A    between atoms: C_1  and  C_2
REMARK    2  A    between atoms: C_6  and  C_8
REMARK    3  A    between atoms: N_10  and  C_11
REMARK    4  A    between atoms: C_11  and  C_12
REMARK    5  A    between atoms: C_11  and  C_16
REMARK    6  A    between atoms: C_11  and  N_20
REMARK    7  A    between atoms: C_26  and  S_30
REMARK    8  A    between atoms: S_30  and  C_33
REMARK                            x       y       z     vdW  Elec       q    Type
REMARK                         _______ _______ _______ _____ _____    ______ ____
ROOT
ATOM      1  C   UNL     1      -2.485   1.187   0.100  0.00  0.00    +0.294 C 
ENDROOT
BRANCH   1   2
ATOM      2  N   UNL     1      -3.199   2.456   0.262  0.00  0.00    -0.288 N 
ATOM      3  C   UNL     1      -4.574   2.492   0.151  0.00  0.00    +0.161 A 
ATOM      4  N   UNL     1      -5.408   1.506  -0.092  0.00  0.00    -0.225 NA
ATOM      5  C   UNL     1      -6.744   1.688  -0.174  0.00  0.00    +0.080 A 
ATOM      6  C   UNL     1      -7.743   0.721  -0.427  0.00  0.00    +0.031 A 
ATOM      7  C   UNL     1      -9.066   1.077  -0.478  0.00  0.00    +0.029 A 
ATOM      8  C   UNL     1      -9.471   2.389  -0.283  0.00  0.00    +0.089 A 
ATOM      9  C   UNL     1      -8.520   3.361  -0.032  0.00  0.00    +0.044 A 
ATOM     10  C   UNL     1      -7.194   3.014   0.020  0.00  0.00    +0.043 A 
ATOM     11  S   UNL     1      -5.675   3.890   0.310  0.00  0.00    -0.052 S 
ATOM     12  H   UNL     1      -2.706   3.270   0.446  0.00  0.00    +0.151 HD
BRANCH   8  13
ATOM     13  S   UNL     1     -11.180   2.813  -0.354  0.00  0.00    -0.006 S 
ATOM     14  O   UNL     1     -11.865   1.617  -0.007  0.00  0.00    -0.170 OA
ATOM     15  O   UNL     1     -11.299   3.976   0.454  0.00  0.00    -0.170 OA
ATOM     16  C   UNL     1     -11.486   3.226  -2.093  0.00  0.00    +0.200 C 
ENDBRANCH   8  13
ENDBRANCH   1   2
BRANCH   1  19
ATOM     17  C   UNL     1      -0.458   2.466  -0.339  0.00  0.00    +0.246 C 
ATOM     18  O   UNL     1      -1.110   3.199  -1.056  0.00  0.00    -0.270 OA
ATOM     19  N   UNL     1      -1.046   1.413   0.262  0.00  0.00    -0.276 N 
ATOM     20  H   UNL     1      -0.517   0.805   0.802  0.00  0.00    +0.152 HD
BRANCH  17  26
ATOM     21  C   UNL     1       3.595   5.250  -1.194  0.00  0.00    +0.044 C 
ATOM     22  C   UNL     1       2.933   4.070  -0.529  0.00  0.00    -0.050 A 
ATOM     23  C   UNL     1       3.673   3.234   0.289  0.00  0.00    +0.003 A 
ATOM     24  C   UNL     1       3.073   2.149   0.903  0.00  0.00    +0.001 A 
ATOM     25  C   UNL     1       1.731   1.897   0.707  0.00  0.00    +0.013 A 
ATOM     26  C   UNL     1       0.980   2.733  -0.121  0.00  0.00    +0.037 A 
ATOM     27  C   UNL     1       1.591   3.827  -0.737  0.00  0.00    +0.016 A 
ENDBRANCH  17  26
ENDBRANCH   1  19
BRANCH   1  28
ATOM     28  C   UNL     1      -2.758   0.621  -1.295  0.00  0.00    +0.436 C 
ATOM     29  F   UNL     1      -1.956  -0.505  -1.507  0.00  0.00    -0.166 F 
ATOM     30  F   UNL     1      -4.106   0.260  -1.395  0.00  0.00    -0.166 F 
ATOM     31  F   UNL     1      -2.463   1.592  -2.258  0.00  0.00    -0.166 F 
ENDBRANCH   1  28
BRANCH   1  32
ATOM     32  C   UNL     1      -2.966   0.192   1.158  0.00  0.00    +0.436 C 
ATOM     33  F   UNL     1      -2.836   0.762   2.429  0.00  0.00    -0.166 F 
ATOM     34  F   UNL     1      -4.309  -0.123   0.924  0.00  0.00    -0.166 F 
ATOM     35  F   UNL     1      -2.195  -0.973   1.087  0.00  0.00    -0.166 F 
ENDBRANCH   1  32
TORSDOF 6
