REMARK  Name = ZINC20628795
REMARK  6 active torsions:
REMARK  status: ('A' for Active; 'I' for Inactive)
REMARK    1  A    between atoms: C_3  and  N_19
REMARK    2  A    between atoms: C_6  and  N_7
REMARK    3  A    between atoms: N_7  and  S_8
REMARK    4  A    between atoms: S_8  and  C_11
REMARK    5  A    between atoms: N_19  and  S_20
REMARK    6  A    between atoms: S_20  and  C_23
REMARK                            x       y       z     vdW  Elec       q    Type
REMARK                         _______ _______ _______ _____ _____    ______ ____
ROOT
ATOM      1  C   UNL     1       2.429   1.830   0.630  0.00  0.00    +0.026 A 
ATOM      2  C   UNL     1       3.503   2.679   0.448  0.00  0.00    +0.026 A 
ATOM      3  C   UNL     1       3.368   3.808  -0.348  0.00  0.00    +0.048 A 
ATOM      4  C   UNL     1       2.155   4.082  -0.965  0.00  0.00    +0.026 A 
ATOM      5  C   UNL     1       1.082   3.231  -0.787  0.00  0.00    +0.026 A 
ATOM      6  C   UNL     1       1.217   2.101   0.009  0.00  0.00    +0.048 A 
ENDROOT
BRANCH   6   7
ATOM      7  N   UNL     1       0.130   1.237   0.189  0.00  0.00    -0.216 N 
ATOM      8  H   UNL     1      -0.867   1.647   0.411  0.00  0.00    +0.174 HD
BRANCH   7   9
ATOM      9  S   UNL     1       0.344  -0.400   0.067  0.00  0.00    +0.072 S 
ATOM     10  O   UNL     1       1.448  -0.729   0.899  0.00  0.00    -0.150 OA
ATOM     11  O   UNL     1      -0.938  -0.991   0.234  0.00  0.00    -0.150 OA
BRANCH   9  12
ATOM     12  C   UNL     1       0.843  -0.739  -1.588  0.00  0.00    +0.111 A 
ATOM     13  C   UNL     1      -0.109  -0.896  -2.578  0.00  0.00    +0.032 A 
ATOM     14  C   UNL     1       0.280  -1.156  -3.879  0.00  0.00    +0.043 A 
ATOM     15  C   UNL     1       1.624  -1.270  -4.189  0.00  0.00    +0.159 A 
ATOM     16  C   UNL     1       2.579  -1.118  -3.195  0.00  0.00    +0.160 A 
ATOM     17  C   UNL     1       2.186  -0.852  -1.895  0.00  0.00    +0.070 A 
ATOM     18  F   UNL     1       3.892  -1.228  -3.496  0.00  0.00    -0.202 F 
ATOM     19  F   UNL     1       2.006  -1.529  -5.459  0.00  0.00    -0.202 F 
ENDBRANCH   9  12
ENDBRANCH   7   9
ENDBRANCH   6   7
BRANCH   3  20
ATOM     20  N   UNL     1       4.456   4.671  -0.529  0.00  0.00    -0.216 N 
ATOM     21  H   UNL     1       4.710   5.032  -1.537  0.00  0.00    +0.174 HD
BRANCH  20  22
ATOM     22  S   UNL     1       5.359   5.149   0.774  0.00  0.00    +0.075 S 
ATOM     23  O   UNL     1       5.745   3.964   1.457  0.00  0.00    -0.150 OA
ATOM     24  O   UNL     1       6.306   6.091   0.288  0.00  0.00    -0.150 OA
BRANCH  22  25
ATOM     25  C   UNL     1       4.285   6.028   1.859  0.00  0.00    +0.146 A 
ATOM     26  C   UNL     1       4.020   5.532   3.121  0.00  0.00    +0.070 A 
ATOM     27  C   UNL     1       3.176   6.223   3.974  0.00  0.00    +0.125 A 
ATOM     28  C   UNL     1       2.599   7.412   3.562  0.00  0.00    +0.041 A 
ATOM     29  C   UNL     1       2.863   7.909   2.300  0.00  0.00    +0.043 A 
ATOM     30  C   UNL     1       3.711   7.220   1.449  0.00  0.00    +0.150 A 
ATOM     31  F   UNL     1       3.975   7.708   0.217  0.00  0.00    -0.203 F 
ATOM     32  F   UNL     1       2.917   5.737   5.207  0.00  0.00    -0.205 F 
ENDBRANCH  22  25
ENDBRANCH  20  22
ENDBRANCH   3  20
TORSDOF 6
