REMARK  Name = ZINC53631891
REMARK  11 active torsions:
REMARK  status: ('A' for Active; 'I' for Inactive)
REMARK    1  A    between atoms: C_1  and  C_2
REMARK    2  A    between atoms: C_8  and  C_16
REMARK    3  A    between atoms: C_10  and  C_14
REMARK    4  A    between atoms: C_11  and  N_13
REMARK    5  A    between atoms: C_18  and  O_25
REMARK    6  A    between atoms: C_19  and  O_23
REMARK    7  A    between atoms: O_23  and  C_24
REMARK    8  A    between atoms: O_25  and  C_26
REMARK    9  A    between atoms: N_29  and  C_30
REMARK   10  A    between atoms: C_30  and  C_31
REMARK   11  A    between atoms: C_31  and  C_32
REMARK                            x       y       z     vdW  Elec       q    Type
REMARK                         _______ _______ _______ _____ _____    ______ ____
ROOT
ATOM      1  C   UNL     1      -0.019   1.526   0.010  0.00  0.00    +0.032 C 
ATOM      2  C   UNL     1       0.002  -0.004   0.002  0.00  0.00    +0.099 C 
ATOM      3  C   UNL     1       0.673  -0.472  -1.248  0.00  0.00    +0.037 C 
ATOM      4  C   UNL     1       1.725  -1.235  -1.285  0.00  0.00    +0.118 C 
ATOM      5  C   UNL     1       2.409  -1.760  -0.049  0.00  0.00    +0.153 C 
ATOM      6  C   UNL     1       3.874  -1.306  -0.093  0.00  0.00    +0.084 C 
ATOM      7  C   UNL     1       4.411  -1.490  -1.486  0.00  0.00    +0.095 C 
ATOM      8  C   UNL     1       3.612  -1.611  -2.569  0.00  0.00    +0.198 C 
ATOM      9  O   UNL     1       2.265  -1.599  -2.487  0.00  0.00    -0.445 OA
ATOM     10  C   UNL     1       1.762  -1.242   1.196  0.00  0.00    +0.227 C 
ATOM     11  O   UNL     1       2.241  -1.562   2.263  0.00  0.00    -0.275 OA
ATOM     12  N   UNL     1       0.677  -0.472   1.200  0.00  0.00    -0.294 N 
ENDROOT
BRANCH   6  13
ATOM     13  C   UNL     1       3.961   0.149   0.292  0.00  0.00    -0.033 A 
ATOM     14  C   UNL     1       4.714   0.528   1.387  0.00  0.00    +0.053 A 
ATOM     15  C   UNL     1       4.796   1.865   1.743  0.00  0.00    +0.163 A 
ATOM     16  C   UNL     1       4.119   2.823   0.995  0.00  0.00    +0.175 A 
ATOM     17  C   UNL     1       3.366   2.437  -0.103  0.00  0.00    +0.063 A 
ATOM     18  C   UNL     1       3.293   1.101  -0.455  0.00  0.00    +0.023 A 
ATOM     19 BR   UNL     1       2.445   3.735  -1.123  0.00  0.00    -0.046 Br
BRANCH  16  20
ATOM     20  O   UNL     1       4.196   4.137   1.340  0.00  0.00    -0.490 OA
ATOM     21  C   UNL     1       5.254   4.900   0.757  0.00  0.00    +0.277 C 
ENDBRANCH  16  20
BRANCH  15  22
ATOM     22  O   UNL     1       5.536   2.239   2.821  0.00  0.00    -0.491 OA
ATOM     23  C   UNL     1       6.203   1.201   3.542  0.00  0.00    +0.277 C 
ENDBRANCH  15  22
ENDBRANCH   6  13
BRANCH   8  24
ATOM     24  N   UNL     1       4.195  -1.752  -3.804  0.00  0.00    -0.328 N 
ATOM     25  H   UNL     1       5.162  -1.763  -3.885  0.00  0.00    +0.145 HD
ATOM     26  H   UNL     1       3.641  -1.840  -4.594  0.00  0.00    +0.145 HD
ENDBRANCH   8  24
BRANCH   7  27
ATOM     27  C   UNL     1       5.830  -1.539  -1.672  0.00  0.00    +0.100 C 
ATOM     28  N   UNL     1       6.956  -1.578  -1.820  0.00  0.00    -0.191 NA
ENDBRANCH   7  27
BRANCH  12  29
ATOM     29  C   UNL     1       0.139  -0.057   2.498  0.00  0.00    +0.114 C 
BRANCH  29  30
ATOM     30  C   UNL     1      -0.896  -1.080   2.971  0.00  0.00    +0.073 C 
BRANCH  30  31
ATOM     31  C   UNL     1      -1.450  -0.653   4.306  0.00  0.00    +0.035 A 
ATOM     32  H   UNL     1      -3.304   0.857   6.310  0.00  0.00    +0.166 HD
ATOM     33  C   UNL     1      -2.468   0.207   4.502  0.00  0.00    +0.105 A 
ATOM     34  N   UNL     1      -2.644   0.310   5.855  0.00  0.00    -0.352 N 
ATOM     35  C   UNL     1      -1.727  -0.490   6.440  0.00  0.00    +0.171 A 
ATOM     36  N   UNL     1      -1.020  -1.067   5.507  0.00  0.00    -0.350 N 
ATOM     37  H   UNL     1      -0.296  -1.694   5.658  0.00  0.00    +0.166 HD
ENDBRANCH  30  31
ENDBRANCH  29  30
ENDBRANCH  12  29
TORSDOF 8
