REMARK  Name = ZINC20571416
REMARK  5 active torsions:
REMARK  status: ('A' for Active; 'I' for Inactive)
REMARK    1  A    between atoms: C_1  and  C_2
REMARK    2  A    between atoms: C_5  and  S_8
REMARK    3  A    between atoms: S_8  and  N_11
REMARK    4  A    between atoms: N_11  and  C_12
REMARK    5  A    between atoms: C_15  and  C_18
REMARK                            x       y       z     vdW  Elec       q    Type
REMARK                         _______ _______ _______ _____ _____    ______ ____
ROOT
ATOM      1  C   UNL     1       1.125   2.395  -0.183  0.00  0.00    +0.048 A 
ATOM      2  C   UNL     1       2.310   2.002   0.431  0.00  0.00    +0.025 A 
ATOM      3  C   UNL     1       3.461   2.733   0.242  0.00  0.00    +0.015 A 
ATOM      4  C   UNL     1       3.435   3.878  -0.559  0.00  0.00    +0.037 A 
ATOM      5  C   UNL     1       2.242   4.274  -1.170  0.00  0.00    +0.015 A 
ATOM      6  C   UNL     1       1.096   3.535  -0.982  0.00  0.00    +0.025 A 
ENDROOT
BRANCH   4   7
ATOM      7  C   UNL     1       4.665   4.668  -0.759  0.00  0.00    +0.250 C 
ATOM      8  O   UNL     1       4.641   5.664  -1.456  0.00  0.00    -0.270 OA
ATOM      9  N   UNL     1       5.815   4.285  -0.169  0.00  0.00    -0.261 N 
ATOM     10  C   UNL     1       6.969   5.026  -0.356  0.00  0.00    +0.166 A 
ATOM     11  N   UNL     1       8.171   4.816   0.129  0.00  0.00    -0.224 NA
ATOM     12  C   UNL     1       9.216   5.630  -0.140  0.00  0.00    +0.084 A 
ATOM     13  C   UNL     1      10.549   5.516   0.317  0.00  0.00    +0.078 A 
ATOM     14  C   UNL     1      11.505   6.437  -0.049  0.00  0.00    +0.164 A 
ATOM     15  C   UNL     1      11.186   7.507  -0.885  0.00  0.00    +0.163 A 
ATOM     16  C   UNL     1       9.888   7.645  -1.349  0.00  0.00    +0.066 A 
ATOM     17  C   UNL     1       8.934   6.729  -0.982  0.00  0.00    +0.044 A 
ATOM     18  S   UNL     1       7.205   6.508  -1.327  0.00  0.00    -0.052 S 
ATOM     19  O   UNL     1      12.129   8.415  -1.255  0.00  0.00    -0.485 OA
ATOM     20  C   UNL     1      13.328   8.453  -0.472  0.00  0.00    +0.270 C 
ATOM     21  C   UNL     1      13.806   7.010  -0.260  0.00  0.00    +0.270 C 
ATOM     22  O   UNL     1      12.777   6.290   0.424  0.00  0.00    -0.485 OA
ATOM     23  H   UNL     1       5.836   3.384   0.462  0.00  0.00    +0.157 HD
ENDBRANCH   4   7
BRANCH   1  24
ATOM     24  N   UNL     1      -0.035   1.651   0.005  0.00  0.00    -0.216 N 
ATOM     25  H   UNL     1      -0.984   2.160   0.228  0.00  0.00    +0.174 HD
BRANCH  24  26
ATOM     26  S   UNL     1       0.014  -0.000  -0.105  0.00  0.00    +0.072 S 
ATOM     27  O   UNL     1       1.068  -0.433   0.745  0.00  0.00    -0.150 OA
ATOM     28  O   UNL     1      -1.323  -0.457   0.046  0.00  0.00    -0.150 OA
BRANCH  26  33
ATOM     29  C   UNL     1       1.676  -1.364  -5.743  0.00  0.00    +0.044 C 
ATOM     30  C   UNL     1       1.261  -1.024  -4.335  0.00  0.00    -0.050 A 
ATOM     31  C   UNL     1       2.208  -0.968  -3.329  0.00  0.00    +0.005 A 
ATOM     32  C   UNL     1       1.827  -0.656  -2.038  0.00  0.00    +0.029 A 
ATOM     33  C   UNL     1       0.500  -0.398  -1.752  0.00  0.00    +0.109 A 
ATOM     34  C   UNL     1      -0.448  -0.459  -2.756  0.00  0.00    +0.029 A 
ATOM     35  C   UNL     1      -0.067  -0.766  -4.049  0.00  0.00    +0.005 A 
ENDBRANCH  26  33
ENDBRANCH  24  26
ENDBRANCH   1  24
TORSDOF 4
