REMARK  Name = ZINC63386371
REMARK  1 active torsions:
REMARK  status: ('A' for Active; 'I' for Inactive)
REMARK    1  A    between atoms: C_7  and  C_17
REMARK                            x       y       z     vdW  Elec       q    Type
REMARK                         _______ _______ _______ _____ _____    ______ ____
ROOT
ATOM      1  C   UNL     1       0.045   1.848  -0.002  0.00  0.00    +0.022 A 
ATOM      2  C   UNL     1       1.224   2.505   0.027  0.00  0.00    +0.027 A 
ATOM      3  C   UNL     1       2.450   1.788  -0.006  0.00  0.00    +0.043 A 
ATOM      4  N   UNL     1       3.700   2.194   0.037  0.00  0.00    -0.376 N 
ATOM      5  C   UNL     1       4.568   1.032  -0.124  0.00  0.00    +0.128 C 
ATOM      6  C   UNL     1       5.570   0.881   1.024  0.00  0.00    +0.121 C 
ATOM      7  N   UNL     1       6.187  -0.451   0.928  0.00  0.00    -0.307 NA
ATOM      8  C   UNL     1       5.243  -1.544   1.179  0.00  0.00    +0.086 C 
ATOM      9  C   UNL     1       4.171  -1.581   0.075  0.00  0.00    +0.048 C 
ATOM     10  C   UNL     1       3.641  -0.172  -0.073  0.00  0.00    -0.035 C 
ATOM     11  C   UNL     1       2.391   0.306  -0.064  0.00  0.00    +0.001 A 
ATOM     12  C   UNL     1       1.067  -0.329  -0.097  0.00  0.00    +0.030 A 
ATOM     13  C   UNL     1      -0.038   0.449  -0.066  0.00  0.00    +0.042 A 
ATOM     14 CL   UNL     1      -1.603  -0.303  -0.107  0.00  0.00    -0.084 Cl
ATOM     15  H   UNL     1       6.652  -0.571   0.041  0.00  0.00    +0.123 HD
ATOM     16  H   UNL     1       3.995   3.111   0.154  0.00  0.00    +0.160 HD
ENDROOT
BRANCH   6  17
ATOM     17  C   UNL     1       4.853   1.016   2.343  0.00  0.00    +0.100 A 
ATOM     18  C   UNL     1       5.270   1.954   3.280  0.00  0.00    +0.261 A 
ATOM     19  O   UNL     1       6.312   2.747   3.020  0.00  0.00    -0.267 OA
ATOM     20  N   UNL     1       4.609   2.057   4.463  0.00  0.00    -0.302 N 
ATOM     21  C   UNL     1       3.558   1.260   4.729  0.00  0.00    +0.161 A 
ATOM     22  S   UNL     1       2.744   1.413   6.228  0.00  0.00    -0.013 S 
ATOM     23  N   UNL     1       3.136   0.345   3.838  0.00  0.00    -0.302 N 
ATOM     24  C   UNL     1       3.763   0.209   2.639  0.00  0.00    +0.261 A 
ATOM     25  O   UNL     1       3.336  -0.697   1.756  0.00  0.00    -0.267 OA
ATOM     26  H   UNL     1       4.896   2.710   5.120  0.00  0.00    +0.171 HD
ATOM     27  H   UNL     1       2.376  -0.219   4.050  0.00  0.00    +0.171 HD
ENDBRANCH   6  17
TORSDOF 1
