REMARK  Name = ZINC12637886
REMARK  10 active torsions:
REMARK  status: ('A' for Active; 'I' for Inactive)
REMARK    1  A    between atoms: C_1  and  C_2
REMARK    2  A    between atoms: C_5  and  N_8
REMARK    3  A    between atoms: N_8  and  C_9
REMARK    4  A    between atoms: C_9  and  C_11
REMARK    5  A    between atoms: C_9  and  C_20
REMARK    6  A    between atoms: C_14  and  O_19
REMARK    7  A    between atoms: C_15  and  O_17
REMARK    8  A    between atoms: O_17  and  C_18
REMARK    9  A    between atoms: N_22  and  C_23
REMARK   10  A    between atoms: C_28  and  C_30
REMARK                            x       y       z     vdW  Elec       q    Type
REMARK                         _______ _______ _______ _____ _____    ______ ____
ROOT
ATOM      1  N   UNL     1       3.897  -2.124   0.082  0.00  0.00    -0.251 N 
ATOM      2  C   UNL     1       3.553  -1.004  -0.585  0.00  0.00    +0.252 C 
ATOM      3  O   UNL     1       2.729  -0.245  -0.113  0.00  0.00    -0.270 OA
ENDROOT
BRANCH   2   4
ATOM      4  C   UNL     1       4.177  -0.699  -1.887  0.00  0.00    +0.041 A 
ATOM      5  C   UNL     1       5.377  -1.315  -2.250  0.00  0.00    +0.017 A 
ATOM      6  C   UNL     1       5.957  -1.028  -3.466  0.00  0.00    +0.050 A 
ATOM      7  C   UNL     1       5.354  -0.126  -4.335  0.00  0.00    +0.162 A 
ATOM      8  C   UNL     1       4.156   0.490  -3.979  0.00  0.00    +0.163 A 
ATOM      9  C   UNL     1       3.570   0.207  -2.760  0.00  0.00    +0.062 A 
ATOM     10  O   UNL     1       3.549   1.369  -4.822  0.00  0.00    -0.485 OA
ATOM     11  C   UNL     1       4.353   1.912  -5.875  0.00  0.00    +0.270 C 
ATOM     12  C   UNL     1       5.130   0.761  -6.528  0.00  0.00    +0.270 C 
ATOM     13  O   UNL     1       5.949   0.149  -5.526  0.00  0.00    -0.485 OA
ENDBRANCH   2   4
BRANCH   1  18
ATOM     14  C   UNL     1       1.023  -3.660   4.724  0.00  0.00    +0.044 C 
ATOM     15  C   UNL     1       1.786  -3.251   3.491  0.00  0.00    -0.050 A 
ATOM     16  C   UNL     1       3.131  -2.941   3.583  0.00  0.00    +0.005 A 
ATOM     17  C   UNL     1       3.833  -2.567   2.455  0.00  0.00    +0.024 A 
ATOM     18  C   UNL     1       3.188  -2.502   1.226  0.00  0.00    +0.038 A 
ATOM     19  C   UNL     1       1.837  -2.809   1.138  0.00  0.00    +0.024 A 
ATOM     20  C   UNL     1       1.141  -3.188   2.270  0.00  0.00    +0.005 A 
ENDBRANCH   1  18
BRANCH   1  21
ATOM     21  C   UNL     1       5.013  -2.945  -0.394  0.00  0.00    +0.198 C 
BRANCH  21  22
ATOM     22  C   UNL     1       5.134  -4.176   0.468  0.00  0.00    -0.014 A 
ATOM     23  C   UNL     1       4.041  -5.003   0.646  0.00  0.00    +0.010 A 
ATOM     24  C   UNL     1       4.148  -6.136   1.431  0.00  0.00    +0.049 A 
ATOM     25  C   UNL     1       5.350  -6.439   2.050  0.00  0.00    +0.158 A 
ATOM     26  C   UNL     1       6.449  -5.603   1.875  0.00  0.00    +0.162 A 
ATOM     27  C   UNL     1       6.336  -4.472   1.083  0.00  0.00    +0.055 A 
BRANCH  26  28
ATOM     28  O   UNL     1       7.631  -5.896   2.480  0.00  0.00    -0.491 OA
ATOM     29  C   UNL     1       8.716  -4.994   2.255  0.00  0.00    +0.277 C 
ENDBRANCH  26  28
BRANCH  25  30
ATOM     30  O   UNL     1       5.455  -7.550   2.827  0.00  0.00    -0.503 OA
ATOM     31  H   UNL     1       5.241  -7.400   3.758  0.00  0.00    +0.292 HD
ENDBRANCH  25  30
ENDBRANCH  21  22
BRANCH  21  32
ATOM     32  C   UNL     1       4.763  -3.355  -1.822  0.00  0.00    +0.239 C 
ATOM     33  O   UNL     1       3.752  -2.996  -2.388  0.00  0.00    -0.273 OA
ATOM     34  N   UNL     1       5.663  -4.120  -2.471  0.00  0.00    -0.311 N 
ATOM     35  H   UNL     1       6.472  -4.407  -2.019  0.00  0.00    +0.149 HD
BRANCH  34  36
ATOM     36  C   UNL     1       5.420  -4.518  -3.860  0.00  0.00    +0.073 C 
ATOM     37  C   UNL     1       4.604  -5.826  -3.900  0.00  0.00    +0.022 C 
ATOM     38  C   UNL     1       5.191  -6.604  -5.104  0.00  0.00    +0.002 C 
ATOM     39  C   UNL     1       6.705  -6.288  -5.009  0.00  0.00    +0.002 C 
ATOM     40  C   UNL     1       6.756  -4.811  -4.566  0.00  0.00    +0.022 C 
ENDBRANCH  34  36
ENDBRANCH  21  32
ENDBRANCH   1  21
TORSDOF 8
