REMARK  Name = ZINC39884976
REMARK  6 active torsions:
REMARK  status: ('A' for Active; 'I' for Inactive)
REMARK    1  A    between atoms: C_6  and  C_7
REMARK    2  A    between atoms: C_10  and  C_12
REMARK    3  A    between atoms: C_13  and  C_14
REMARK    4  A    between atoms: C_13  and  C_16
REMARK    5  A    between atoms: N_18  and  C_19
REMARK    6  A    between atoms: C_20  and  C_28
REMARK                            x       y       z     vdW  Elec       q    Type
REMARK                         _______ _______ _______ _____ _____    ______ ____
ROOT
ATOM      1  C   UNL     1      -6.810   0.399   0.053  0.00  0.00    +0.259 C 
ATOM      2  O   UNL     1      -7.540  -0.575   0.057  0.00  0.00    -0.269 OA
ATOM      3  N   UNL     1      -7.340   1.639   0.058  0.00  0.00    -0.275 N 
ATOM      4  H   UNL     1      -6.758   2.415   0.055  0.00  0.00    +0.156 HD
ENDROOT
BRANCH   3   5
ATOM      5  C   UNL     1      -8.715   1.804   0.069  0.00  0.00    +0.085 A 
ATOM      6  C   UNL     1      -9.431   2.991   0.070  0.00  0.00    +0.068 A 
ATOM      7  C   UNL     1     -10.880   2.893   0.082  0.00  0.00    -0.023 A 
ATOM      8  C   UNL     1     -11.348   1.626   0.091  0.00  0.00    -0.004 A 
ATOM      9  S   UNL     1      -9.898   0.612   0.075  0.00  0.00    -0.077 S 
ATOM     10  C   UNL     1     -12.782   1.196   0.106  0.00  0.00    +0.043 C 
ATOM     11  C   UNL     1     -13.645   2.408   0.490  0.00  0.00    +0.005 C 
ATOM     12  C   UNL     1     -13.214   3.610  -0.355  0.00  0.00    +0.005 C 
ATOM     13  C   UNL     1     -11.826   4.085   0.084  0.00  0.00    +0.037 C 
BRANCH   6  14
ATOM     14  C   UNL     1      -8.754   4.291   0.059  0.00  0.00    +0.244 C 
ATOM     15  O   UNL     1      -8.482   4.827  -0.999  0.00  0.00    -0.270 OA
ATOM     16  N   UNL     1      -8.433   4.893   1.222  0.00  0.00    -0.325 N 
ATOM     17  H   UNL     1      -8.650   4.466   2.065  0.00  0.00    +0.145 HD
ATOM     18  H   UNL     1      -7.985   5.753   1.215  0.00  0.00    +0.145 HD
ENDBRANCH   6  14
ENDBRANCH   3   5
BRANCH   1  20
ATOM     19  C   UNL     1      -4.808  -1.052   0.036  0.00  0.00    +0.070 C 
ATOM     20  C   UNL     1      -5.354   0.224   0.042  0.00  0.00    +0.117 C 
BRANCH  19  24
ATOM     21  C   UNL     1      -1.263  -0.762   0.011  0.00  0.00    +0.136 A 
ATOM     22  C   UNL     1      -1.378  -2.137   0.010  0.00  0.00    +0.050 A 
ATOM     23  C   UNL     1      -2.740  -2.433   0.019  0.00  0.00    +0.050 A 
ATOM     24  C   UNL     1      -3.414  -1.220   0.026  0.00  0.00    +0.130 A 
ATOM     25  O   UNL     1      -2.497  -0.229   0.026  0.00  0.00    -0.455 OA
BRANCH  21  31
ATOM     26  C   UNL     1      -0.017   1.393   0.010  0.00  0.00    +0.013 A 
ATOM     27  C   UNL     1       1.169   2.096   0.002  0.00  0.00    +0.021 A 
ATOM     28  C   UNL     1       2.378   1.419  -0.013  0.00  0.00    +0.041 A 
ATOM     29  C   UNL     1       2.404   0.035  -0.021  0.00  0.00    +0.021 A 
ATOM     30  C   UNL     1       1.225  -0.680  -0.014  0.00  0.00    +0.013 A 
ATOM     31  C   UNL     1       0.002  -0.004   0.002  0.00  0.00    +0.017 A 
ATOM     32 CL   UNL     1       3.868   2.312  -0.022  0.00  0.00    -0.084 Cl
ENDBRANCH  21  31
ENDBRANCH  19  24
BRANCH  20  33
ATOM     33  C   UNL     1      -4.495   1.370   0.037  0.00  0.00    +0.104 C 
ATOM     34  N   UNL     1      -3.814   2.279   0.033  0.00  0.00    -0.191 NA
ENDBRANCH  20  33
ENDBRANCH   1  20
TORSDOF 6
