REMARK  Name = ZINC20571924
REMARK  4 active torsions:
REMARK  status: ('A' for Active; 'I' for Inactive)
REMARK    1  A    between atoms: C_4  and  N_25
REMARK    2  A    between atoms: C_5  and  C_7
REMARK    3  A    between atoms: N_25  and  S_26
REMARK    4  A    between atoms: S_26  and  C_29
REMARK                            x       y       z     vdW  Elec       q    Type
REMARK                         _______ _______ _______ _____ _____    ______ ____
ROOT
ATOM      1  C   UNL     1       0.973   4.680  -1.992  0.00  0.00    +0.249 C 
ATOM      2  O   UNL     1       2.153   4.674  -2.287  0.00  0.00    -0.270 OA
ATOM      3  N   UNL     1       0.559   4.083  -0.856  0.00  0.00    -0.294 N 
ATOM      4  C   UNL     1      -0.852   4.138  -0.446  0.00  0.00    +0.127 C 
ATOM      5  C   UNL     1      -0.919   4.619   1.007  0.00  0.00    +0.126 C 
ATOM      6  N   UNL     1      -0.062   3.766   1.842  0.00  0.00    -0.307 N 
ATOM      7  C   UNL     1       1.347   3.872   1.441  0.00  0.00    +0.126 C 
ATOM      8  C   UNL     1       1.507   3.361   0.005  0.00  0.00    +0.127 C 
ATOM      9  C   UNL     1      -0.220   4.065   3.180  0.00  0.00    +0.162 A 
ATOM     10  N   UNL     1       0.370   3.522   4.220  0.00  0.00    -0.225 NA
ATOM     11  C   UNL     1       0.117   3.920   5.488  0.00  0.00    +0.080 A 
ATOM     12  C   UNL     1       0.678   3.423   6.686  0.00  0.00    +0.032 A 
ATOM     13  C   UNL     1       0.310   3.941   7.900  0.00  0.00    +0.040 A 
ATOM     14  C   UNL     1      -0.623   4.966   7.999  0.00  0.00    +0.125 A 
ATOM     15  C   UNL     1      -1.193   5.475   6.844  0.00  0.00    +0.055 A 
ATOM     16  C   UNL     1      -0.828   4.961   5.625  0.00  0.00    +0.043 A 
ATOM     17  S   UNL     1      -1.273   5.295   3.937  0.00  0.00    -0.052 S 
ATOM     18  F   UNL     1      -0.970   5.460   9.207  0.00  0.00    -0.205 F 
ENDROOT
BRANCH   1  23
ATOM     19  C   UNL     1      -2.194   5.424  -3.861  0.00  0.00    +0.001 A 
ATOM     20  C   UNL     1      -1.846   6.581  -4.541  0.00  0.00    +0.002 A 
ATOM     21  C   UNL     1      -0.586   7.123  -4.397  0.00  0.00    +0.027 A 
ATOM     22  C   UNL     1       0.345   6.511  -3.566  0.00  0.00    +0.086 A 
ATOM     23  C   UNL     1      -0.005   5.340  -2.876  0.00  0.00    +0.061 A 
ATOM     24  C   UNL     1      -1.283   4.800  -3.038  0.00  0.00    +0.015 A 
BRANCH  22  25
ATOM     25  N   UNL     1       1.614   7.055  -3.419  0.00  0.00    -0.097 NA
BRANCH  25  26
ATOM     26  S   UNL     1       1.849   8.680  -3.634  0.00  0.00    +0.092 S 
ATOM     27  O   UNL     1       3.199   8.946  -3.278  0.00  0.00    -0.148 OA
ATOM     28  O   UNL     1       1.320   9.001  -4.913  0.00  0.00    -0.148 OA
BRANCH  26  29
ATOM     29  C   UNL     1       0.843   9.512  -2.450  0.00  0.00    +0.111 A 
ATOM     30  C   UNL     1      -0.453   9.870  -2.774  0.00  0.00    +0.031 A 
ATOM     31  C   UNL     1      -1.244  10.518  -1.845  0.00  0.00    +0.040 A 
ATOM     32  C   UNL     1      -0.735  10.819  -0.593  0.00  0.00    +0.124 A 
ATOM     33  C   UNL     1       0.564  10.465  -0.271  0.00  0.00    +0.040 A 
ATOM     34  C   UNL     1       1.352   9.812  -1.200  0.00  0.00    +0.031 A 
ATOM     35  F   UNL     1      -1.507  11.457   0.314  0.00  0.00    -0.205 F 
ENDBRANCH  26  29
ENDBRANCH  25  26
ENDBRANCH  22  25
ENDBRANCH   1  23
TORSDOF 4
