REMARK  Name = ZINC39609545
REMARK  11 active torsions:
REMARK  status: ('A' for Active; 'I' for Inactive)
REMARK    1  A    between atoms: C_1  and  C_2
REMARK    2  A    between atoms: C_2  and  O_3
REMARK    3  A    between atoms: O_3  and  C_4
REMARK    4  A    between atoms: C_8  and  C_10
REMARK    5  A    between atoms: C_10  and  C_11
REMARK    6  A    between atoms: C_11  and  N_12
REMARK    7  A    between atoms: C_13  and  C_15
REMARK    8  A    between atoms: C_26  and  C_28
REMARK    9  A    between atoms: C_31  and  O_38
REMARK   10  A    between atoms: C_32  and  C_34
REMARK   11  A    between atoms: O_38  and  C_39
REMARK                            x       y       z     vdW  Elec       q    Type
REMARK                         _______ _______ _______ _____ _____    ______ ____
ROOT
ATOM      1  C   UNL     1       2.401  -6.045  -8.851  0.00  0.00    +0.100 C 
ATOM      2  C   UNL     1       2.871  -7.377  -8.224  0.00  0.00    +0.121 C 
ATOM      3  N   UNL     1       1.826  -8.358  -8.601  0.00  0.00    -0.296 N 
ATOM      4  C   UNL     1       1.470  -8.000  -9.995  0.00  0.00    +0.115 C 
ATOM      5  C   UNL     1       1.484  -6.459 -10.015  0.00  0.00    -0.004 C 
ATOM      6  C   UNL     1       0.075  -5.916  -9.797  0.00  0.00    -0.010 C 
ATOM      7  C   UNL     1      -0.803  -6.292 -10.994  0.00  0.00    -0.082 C 
ATOM      8  N   UNL     1      -0.226  -5.731 -12.221  0.00  0.00    +0.379 N 
ATOM      9  C   UNL     1       1.092  -6.327 -12.474  0.00  0.00    -0.082 C 
ATOM     10  C   UNL     1       2.050  -5.953 -11.339  0.00  0.00    -0.010 C 
ATOM     11  C   UNL     1       1.314  -9.351  -7.847  0.00  0.00    +0.247 C 
ATOM     12  O   UNL     1       1.618  -9.441  -6.673  0.00  0.00    -0.270 OA
ATOM     13  H   UNL     1      -0.837  -5.927 -12.999  0.00  0.00    -0.086 HD
ATOM     14  H   UNL     1      -0.127  -4.731 -12.119  0.00  0.00    -0.086 HD
ENDROOT
BRANCH  11  15
ATOM     15  C   UNL     1       0.385 -10.329  -8.446  0.00  0.00    +0.038 A 
ATOM     16  C   UNL     1       0.363 -10.518  -9.830  0.00  0.00    +0.016 A 
ATOM     17  C   UNL     1      -0.504 -11.432 -10.385  0.00  0.00    +0.047 A 
ATOM     18  C   UNL     1      -1.359 -12.165  -9.570  0.00  0.00    +0.132 A 
ATOM     19  C   UNL     1      -1.341 -11.980  -8.192  0.00  0.00    +0.097 A 
ATOM     20  C   UNL     1      -0.472 -11.072  -7.629  0.00  0.00    +0.029 A 
BRANCH  19  21
ATOM     21  C   UNL     1      -2.269 -12.777  -7.313  0.00  0.00    +0.421 C 
ATOM     22  F   UNL     1      -2.068 -12.419  -5.976  0.00  0.00    -0.166 F 
ATOM     23  F   UNL     1      -3.595 -12.511  -7.673  0.00  0.00    -0.166 F 
ATOM     24  F   UNL     1      -2.007 -14.142  -7.475  0.00  0.00    -0.166 F 
ENDBRANCH  19  21
BRANCH  18  25
ATOM     25  O   UNL     1      -2.213 -13.064 -10.120  0.00  0.00    -0.495 OA
ATOM     26  C   UNL     1      -2.180 -13.204 -11.542  0.00  0.00    +0.277 C 
ENDBRANCH  18  25
ENDBRANCH  11  15
BRANCH   1  28
ATOM     27  N   UNL     1       1.543  -3.895  -7.981  0.00  0.00    -0.315 N 
ATOM     28  C   UNL     1       1.632  -5.232  -7.842  0.00  0.00    +0.218 C 
ATOM     29  O   UNL     1       1.095  -5.782  -6.904  0.00  0.00    -0.275 OA
ATOM     30  H   UNL     1       1.973  -3.455  -8.732  0.00  0.00    +0.149 HD
BRANCH  27  31
ATOM     31  C   UNL     1       0.796  -3.104  -7.000  0.00  0.00    +0.109 C 
BRANCH  31  32
ATOM     32  C   UNL     1       0.850  -1.626  -7.388  0.00  0.00    +0.054 C 
BRANCH  32  37
ATOM     33  C   UNL     1      -1.974   0.174  -5.636  0.00  0.00    +0.121 A 
ATOM     34  C   UNL     1      -1.324   0.682  -4.520  0.00  0.00    +0.045 A 
ATOM     35  C   UNL     1       0.024   0.442  -4.338  0.00  0.00    +0.004 A 
ATOM     36  C   UNL     1       0.726  -0.305  -5.266  0.00  0.00    +0.004 A 
ATOM     37  C   UNL     1       0.081  -0.812  -6.379  0.00  0.00    -0.042 A 
ATOM     38  C   UNL     1      -1.268  -0.579  -6.563  0.00  0.00    +0.049 A 
BRANCH  33  39
ATOM     39  O   UNL     1      -3.300   0.409  -5.818  0.00  0.00    -0.492 OA
BRANCH  39  41
ATOM     40  C   UNL     1      -5.437   1.349  -5.196  0.00  0.00    +0.048 C 
ATOM     41  C   UNL     1      -3.962   1.193  -4.823  0.00  0.00    +0.225 C 
ENDBRANCH  39  41
ENDBRANCH  33  39
ENDBRANCH  32  37
ENDBRANCH  31  32
ENDBRANCH  27  31
ENDBRANCH   1  28
TORSDOF 9
