REMARK  Name = ZINC39686865
REMARK  6 active torsions:
REMARK  status: ('A' for Active; 'I' for Inactive)
REMARK    1  A    between atoms: C_1  and  C_2
REMARK    2  A    between atoms: C_2  and  C_4
REMARK    3  A    between atoms: C_2  and  N_12
REMARK    4  A    between atoms: C_4  and  C_5
REMARK    5  A    between atoms: C_13  and  C_15
REMARK    6  A    between atoms: C_26  and  C_28
REMARK                            x       y       z     vdW  Elec       q    Type
REMARK                         _______ _______ _______ _____ _____    ______ ____
ROOT
ATOM      1  C   UNL     1       2.976  -0.787   2.706  0.00  0.00    +0.100 C 
ATOM      2  C   UNL     1       2.762  -2.311   2.841  0.00  0.00    +0.121 C 
ATOM      3  N   UNL     1       3.836  -2.914   2.016  0.00  0.00    -0.296 N 
ATOM      4  C   UNL     1       5.021  -2.062   2.273  0.00  0.00    +0.115 C 
ATOM      5  C   UNL     1       4.461  -0.627   2.337  0.00  0.00    -0.004 C 
ATOM      6  C   UNL     1       4.597   0.052   0.978  0.00  0.00    -0.010 C 
ATOM      7  C   UNL     1       6.082   0.250   0.659  0.00  0.00    -0.082 C 
ATOM      8  N   UNL     1       6.703   1.073   1.704  0.00  0.00    +0.379 N 
ATOM      9  C   UNL     1       6.649   0.371   2.992  0.00  0.00    -0.082 C 
ATOM     10  C   UNL     1       5.189   0.177   3.409  0.00  0.00    -0.010 C 
ATOM     11  C   UNL     1       3.752  -3.994   1.213  0.00  0.00    +0.247 C 
ATOM     12  O   UNL     1       4.748  -4.416   0.658  0.00  0.00    -0.270 OA
ATOM     13  H   UNL     1       7.665   1.253   1.460  0.00  0.00    -0.086 HD
ATOM     14  H   UNL     1       6.208   1.949   1.779  0.00  0.00    -0.086 HD
ENDROOT
BRANCH  11  15
ATOM     15  C   UNL     1       2.452  -4.663   1.007  0.00  0.00    +0.045 A 
ATOM     16  C   UNL     1       1.652  -4.998   2.106  0.00  0.00    +0.014 A 
ATOM     17  C   UNL     1       0.438  -5.622   1.917  0.00  0.00    +0.001 A 
ATOM     18  C   UNL     1      -0.004  -5.924   0.639  0.00  0.00    +0.012 A 
ATOM     19  C   UNL     1       0.774  -5.601  -0.466  0.00  0.00    +0.031 A 
ATOM     20  C   UNL     1       2.010  -4.959  -0.289  0.00  0.00    +0.006 A 
ATOM     21  C   UNL     1       2.622  -4.727  -1.621  0.00  0.00    -0.006 A 
ATOM     22  C   UNL     1       3.823  -4.142  -2.000  0.00  0.00    +0.009 A 
ATOM     23  C   UNL     1       4.156  -4.050  -3.343  0.00  0.00    +0.001 A 
ATOM     24  C   UNL     1       3.300  -4.537  -4.311  0.00  0.00    +0.001 A 
ATOM     25  C   UNL     1       2.098  -5.124  -3.949  0.00  0.00    +0.012 A 
ATOM     26  C   UNL     1       1.752  -5.222  -2.607  0.00  0.00    +0.030 A 
ATOM     27  C   UNL     1       0.569  -5.795  -1.921  0.00  0.00    +0.194 C 
ATOM     28  O   UNL     1      -0.392  -6.314  -2.451  0.00  0.00    -0.287 OA
ENDBRANCH  11  15
BRANCH   1  30
ATOM     29  N   UNL     1       1.757   1.075   1.625  0.00  0.00    -0.312 N 
ATOM     30  C   UNL     1       2.101  -0.229   1.614  0.00  0.00    +0.218 C 
ATOM     31  O   UNL     1       1.706  -0.952   0.724  0.00  0.00    -0.275 OA
ATOM     32  H   UNL     1       2.015   1.637   2.373  0.00  0.00    +0.149 HD
BRANCH  29  34
ATOM     33  C   UNL     1       1.956   2.057  -0.605  0.00  0.00    +0.028 C 
ATOM     34  C   UNL     1       0.995   1.641   0.510  0.00  0.00    +0.074 C 
BRANCH  34  35
ATOM     35  C   UNL     1       0.216   2.866   0.995  0.00  0.00    +0.060 C 
BRANCH  35  36
ATOM     36  C   UNL     1      -0.825   2.435   1.995  0.00  0.00    -0.010 A 
ATOM     37  C   UNL     1      -2.104   2.126   1.572  0.00  0.00    +0.006 A 
ATOM     38  C   UNL     1      -3.060   1.731   2.490  0.00  0.00    +0.000 A 
ATOM     39  C   UNL     1      -2.737   1.644   3.832  0.00  0.00    +0.003 A 
ATOM     40  C   UNL     1      -1.458   1.951   4.256  0.00  0.00    +0.038 A 
ATOM     41  C   UNL     1      -0.499   2.342   3.337  0.00  0.00    +0.127 A 
ATOM     42  F   UNL     1       0.752   2.639   3.751  0.00  0.00    -0.205 F 
ENDBRANCH  35  36
ENDBRANCH  34  35
ENDBRANCH  29  34
ENDBRANCH   1  30
TORSDOF 5
