REMARK  Name = ZINC12658186
REMARK  11 active torsions:
REMARK  status: ('A' for Active; 'I' for Inactive)
REMARK    1  A    between atoms: C_1  and  N_62
REMARK    2  A    between atoms: C_2  and  N_62
REMARK    3  A    between atoms: C_8  and  O_33
REMARK    4  A    between atoms: C_9  and  O_31
REMARK    5  A    between atoms: C_10  and  O_29
REMARK    6  A    between atoms: C_17  and  N_20
REMARK    7  A    between atoms: N_20  and  C_21
REMARK    8  A    between atoms: C_21  and  C_22
REMARK    9  A    between atoms: O_29  and  C_30
REMARK   10  A    between atoms: O_31  and  C_32
REMARK   11  A    between atoms: O_33  and  C_34
REMARK                            x       y       z     vdW  Elec       q    Type
REMARK                         _______ _______ _______ _____ _____    ______ ____
ROOT
ATOM      1  C   UNL     1       0.454  -0.975  -1.327  0.00  0.00    -0.040 C 
ATOM      2  C   UNL     1       1.060  -2.356  -1.175  0.00  0.00    -0.007 C 
ATOM      3  C   UNL     1       1.561  -2.886  -2.515  0.00  0.00    +0.035 C 
ATOM      4  C   UNL     1       2.309  -1.800  -3.245  0.00  0.00    -0.033 A 
ATOM      5  C   UNL     1       3.687  -1.823  -3.299  0.00  0.00    +0.054 A 
ATOM      6  C   UNL     1       4.372  -0.826  -3.983  0.00  0.00    +0.165 A 
ATOM      7  C   UNL     1       3.675   0.197  -4.617  0.00  0.00    +0.204 A 
ATOM      8  C   UNL     1       2.288   0.227  -4.564  0.00  0.00    +0.173 A 
ATOM      9  C   UNL     1       1.605  -0.776  -3.868  0.00  0.00    +0.031 A 
ATOM     10  C   UNL     1       0.114  -0.737  -3.792  0.00  0.00    -0.012 A 
ATOM     11  C   UNL     1      -0.462  -0.895  -2.531  0.00  0.00    -0.050 A 
ATOM     12  C   UNL     1      -1.782  -0.985  -2.285  0.00  0.00    +0.055 A 
ATOM     13  C   UNL     1      -2.883  -0.927  -3.089  0.00  0.00    +0.200 A 
ATOM     14  O   UNL     1      -3.956  -1.128  -2.537  0.00  0.00    -0.286 OA
ATOM     15  C   UNL     1      -2.945  -0.670  -4.457  0.00  0.00    +0.075 A 
ATOM     16  C   UNL     1      -1.870  -0.499  -5.277  0.00  0.00    +0.027 A 
ATOM     17  C   UNL     1      -0.560  -0.543  -4.971  0.00  0.00    +0.011 A 
ENDROOT
BRANCH   1  19
ATOM     18  C   UNL     1      -0.398   0.798   0.084  0.00  0.00    -0.100 C 
ATOM     19  N   UNL     1      -0.321  -0.662  -0.111  0.00  0.00    +0.382 N 
ATOM     20  H   UNL     1      -1.270  -1.042  -0.207  0.00  0.00    -0.085 HD
ATOM     21  H   UNL     1       0.138  -1.089   0.702  0.00  0.00    -0.085 HD
ENDBRANCH   1  19
BRANCH  15  22
ATOM     22  N   UNL     1      -4.202  -0.580  -5.030  0.00  0.00    -0.337 N 
ATOM     23  H   UNL     1      -4.994  -0.695  -4.482  0.00  0.00    +0.147 HD
BRANCH  22  24
ATOM     24  C   UNL     1      -4.336  -0.312  -6.464  0.00  0.00    +0.137 C 
BRANCH  24  25
ATOM     25  C   UNL     1      -5.796  -0.264  -6.832  0.00  0.00    -0.030 A 
ATOM     26  C   UNL     1      -6.447  -1.418  -7.228  0.00  0.00    +0.008 A 
ATOM     27  C   UNL     1      -7.787  -1.376  -7.561  0.00  0.00    +0.038 A 
ATOM     28  C   UNL     1      -8.476  -0.176  -7.508  0.00  0.00    +0.123 A 
ATOM     29  C   UNL     1      -7.823   0.980  -7.116  0.00  0.00    +0.038 A 
ATOM     30  C   UNL     1      -6.483   0.935  -6.778  0.00  0.00    +0.008 A 
ATOM     31  F   UNL     1      -9.786  -0.133  -7.838  0.00  0.00    -0.205 F 
ENDBRANCH  24  25
ENDBRANCH  22  24
ENDBRANCH  15  22
BRANCH   8  32
ATOM     32  O   UNL     1       1.600   1.223  -5.182  0.00  0.00    -0.491 OA
ATOM     33  C   UNL     1       1.417   2.436  -4.450  0.00  0.00    +0.277 C 
ENDBRANCH   8  32
BRANCH   7  34
ATOM     34  O   UNL     1       4.352   1.166  -5.291  0.00  0.00    -0.488 OA
ATOM     35  C   UNL     1       4.622   0.928  -6.674  0.00  0.00    +0.277 C 
ENDBRANCH   7  34
BRANCH   6  36
ATOM     36  O   UNL     1       5.730  -0.851  -4.032  0.00  0.00    -0.491 OA
ATOM     37  C   UNL     1       6.384  -1.929  -3.360  0.00  0.00    +0.277 C 
ENDBRANCH   6  36
TORSDOF 7
