REMARK  Name = ZINC12250455
REMARK  10 active torsions:
REMARK  status: ('A' for Active; 'I' for Inactive)
REMARK    1  A    between atoms: C_1  and  C_2
REMARK    2  A    between atoms: C_6  and  N_8
REMARK    3  A    between atoms: C_9  and  C_11
REMARK    4  A    between atoms: C_12  and  C_37
REMARK    5  A    between atoms: C_14  and  S_25
REMARK    6  A    between atoms: C_15  and  C_23
REMARK    7  A    between atoms: C_16  and  C_18
REMARK    8  A    between atoms: S_25  and  C_26
REMARK    9  A    between atoms: C_26  and  C_27
REMARK   10  A    between atoms: N_29  and  C_30
REMARK                            x       y       z     vdW  Elec       q    Type
REMARK                         _______ _______ _______ _____ _____    ______ ____
ROOT
ATOM      1  C   UNL     1      -2.034   2.860  -0.630  0.00  0.00    +0.047 C 
ATOM      2  C   UNL     1      -1.184   3.653   0.041  0.00  0.00    +0.015 C 
ATOM      3  N   UNL     1       0.097   3.250   0.306  0.00  0.00    -0.312 N 
ATOM      4  C   UNL     1       0.654   2.208  -0.400  0.00  0.00    +0.080 C 
ATOM      5  C   UNL     1      -0.135   1.345  -1.095  0.00  0.00    +0.072 C 
ATOM      6  C   UNL     1      -1.629   1.499  -1.115  0.00  0.00    +0.134 C 
ATOM      7  C   UNL     1      -1.647   5.009   0.508  0.00  0.00    +0.061 C 
ATOM      8  H   UNL     1       0.683   3.759   1.085  0.00  0.00    +0.152 HD
ENDROOT
BRANCH   6   9
ATOM      9  C   UNL     1      -2.130   1.302  -2.523  0.00  0.00    +0.118 A 
ATOM     10  C   UNL     1      -3.088   0.439  -2.904  0.00  0.00    +0.045 A 
ATOM     11  C   UNL     1      -3.240   0.587  -4.301  0.00  0.00    +0.041 A 
ATOM     12  C   UNL     1      -2.360   1.525  -4.692  0.00  0.00    +0.195 A 
ATOM     13  O   UNL     1      -1.690   1.956  -3.611  0.00  0.00    -0.467 OA
ENDBRANCH   6   9
BRANCH   1  15
ATOM     14  N   UNL     1      -3.574   4.158  -1.922  0.00  0.00    -0.282 N 
ATOM     15  C   UNL     1      -3.347   3.321  -0.891  0.00  0.00    +0.247 C 
ATOM     16  O   UNL     1      -4.271   2.961  -0.184  0.00  0.00    -0.270 OA
ATOM     17  H   UNL     1      -2.761   4.404  -2.621  0.00  0.00    +0.155 HD
BRANCH  14  23
ATOM     18  C   UNL     1      -7.083   5.795  -4.951  0.00  0.00    +0.044 C 
ATOM     19  C   UNL     1      -6.570   5.519  -3.561  0.00  0.00    -0.049 A 
ATOM     20  C   UNL     1      -7.357   5.817  -2.463  0.00  0.00    +0.003 A 
ATOM     21  C   UNL     1      -6.890   5.565  -1.186  0.00  0.00    +0.002 A 
ATOM     22  C   UNL     1      -5.639   5.010  -1.003  0.00  0.00    +0.023 A 
ATOM     23  C   UNL     1      -4.844   4.715  -2.103  0.00  0.00    +0.034 A 
ATOM     24  C   UNL     1      -5.316   4.970  -3.385  0.00  0.00    +0.026 A 
ENDBRANCH  14  23
ENDBRANCH   1  15
BRANCH   5  25
ATOM     25  C   UNL     1       0.471   0.274  -1.828  0.00  0.00    +0.098 C 
ATOM     26  N   UNL     1       0.951  -0.575  -2.409  0.00  0.00    -0.191 NA
ENDBRANCH   5  25
BRANCH   4  27
ATOM     27  S   UNL     1       2.402   1.989  -0.402  0.00  0.00    -0.100 S 
BRANCH  27  28
ATOM     28  C   UNL     1       2.894   3.378   0.649  0.00  0.00    +0.171 C 
BRANCH  28  29
ATOM     29  C   UNL     1       4.394   3.392   0.794  0.00  0.00    +0.227 C 
ATOM     30  O   UNL     1       5.065   2.546   0.241  0.00  0.00    -0.275 OA
ATOM     31  N   UNL     1       4.990   4.345   1.538  0.00  0.00    -0.285 N 
ATOM     32  H   UNL     1       4.380   5.057   2.112  0.00  0.00    +0.155 HD
BRANCH  31  33
ATOM     33  C   UNL     1       6.387   4.428   1.580  0.00  0.00    +0.036 A 
ATOM     34  C   UNL     1       7.021   4.904   2.720  0.00  0.00    +0.023 A 
ATOM     35  C   UNL     1       8.400   4.981   2.761  0.00  0.00    +0.005 A 
ATOM     36  C   UNL     1       9.149   4.594   1.665  0.00  0.00    +0.038 A 
ATOM     37  C   UNL     1       8.520   4.124   0.525  0.00  0.00    +0.125 A 
ATOM     38  C   UNL     1       7.139   4.040   0.480  0.00  0.00    +0.061 A 
ATOM     39  F   UNL     1       9.254   3.747  -0.545  0.00  0.00    -0.205 F 
ENDBRANCH  31  33
ENDBRANCH  28  29
ENDBRANCH  27  28
ENDBRANCH   4  27
TORSDOF 8
