REMARK  Name = ZINC22320295
REMARK  7 active torsions:
REMARK  status: ('A' for Active; 'I' for Inactive)
REMARK    1  A    between atoms: C_1  and  C_2
REMARK    2  A    between atoms: C_2  and  N_3
REMARK    3  A    between atoms: N_6  and  C_9
REMARK    4  A    between atoms: C_12  and  N_16
REMARK    5  A    between atoms: C_13  and  C_15
REMARK    6  A    between atoms: C_17  and  C_19
REMARK    7  A    between atoms: N_22  and  C_24
REMARK                            x       y       z     vdW  Elec       q    Type
REMARK                         _______ _______ _______ _____ _____    ______ ____
ROOT
ATOM      1  N   UNL     1      -3.225   5.069  -5.798  0.00  0.00    -0.280 N 
ATOM      2  C   UNL     1      -3.577   4.233  -6.794  0.00  0.00    +0.269 C 
ATOM      3  O   UNL     1      -3.450   3.032  -6.653  0.00  0.00    -0.268 OA
ATOM      4  H   UNL     1      -3.424   6.147  -5.888  0.00  0.00    +0.155 HD
ENDROOT
BRANCH   2   5
ATOM      5  C   UNL     1      -4.116   4.775  -8.057  0.00  0.00    +0.151 A 
ATOM      6  C   UNL     1      -4.520   4.032  -9.186  0.00  0.00    +0.006 A 
ATOM      7  C   UNL     1      -4.934   4.939 -10.098  0.00  0.00    +0.049 A 
ATOM      8  N   UNL     1      -4.789   6.164  -9.536  0.00  0.00    -0.236 N 
ATOM      9  N   UNL     1      -4.307   6.049  -8.349  0.00  0.00    -0.161 NA
ATOM     10  C   UNL     1      -5.439   4.620 -11.481  0.00  0.00    +0.056 C 
ATOM     11  C   UNL     1      -6.456   3.485 -11.398  0.00  0.00    +0.006 C 
ATOM     12  C   UNL     1      -5.744   2.138 -11.497  0.00  0.00    +0.001 C 
ATOM     13  C   UNL     1      -4.366   2.205 -10.844  0.00  0.00    +0.005 C 
ATOM     14  C   UNL     1      -4.515   2.538  -9.356  0.00  0.00    +0.039 C 
BRANCH   8  15
ATOM     15  C   UNL     1      -5.116   7.378 -10.157  0.00  0.00    +0.066 A 
ATOM     16  C   UNL     1      -4.924   7.533 -11.524  0.00  0.00    +0.030 A 
ATOM     17  C   UNL     1      -5.250   8.728 -12.134  0.00  0.00    +0.040 A 
ATOM     18  C   UNL     1      -5.761   9.774 -11.383  0.00  0.00    +0.124 A 
ATOM     19  C   UNL     1      -5.949   9.622 -10.020  0.00  0.00    +0.040 A 
ATOM     20  C   UNL     1      -5.628   8.427  -9.406  0.00  0.00    +0.030 A 
ATOM     21  F   UNL     1      -6.075  10.944 -11.982  0.00  0.00    -0.205 F 
ENDBRANCH   8  15
ENDBRANCH   2   5
BRANCH   1  25
ATOM     22  C   UNL     1      -1.385   3.570  -2.369  0.00  0.00    +0.030 A 
ATOM     23  C   UNL     1      -1.284   2.879  -3.570  0.00  0.00    +0.025 A 
ATOM     24  C   UNL     1      -1.898   3.373  -4.704  0.00  0.00    +0.025 A 
ATOM     25  C   UNL     1      -2.607   4.566  -4.646  0.00  0.00    +0.037 A 
ATOM     26  C   UNL     1      -2.704   5.259  -3.447  0.00  0.00    -0.027 A 
ATOM     27  C   UNL     1      -2.094   4.762  -2.311  0.00  0.00    +0.028 A 
ATOM     28  C   UNL     1      -3.474   6.552  -3.384  0.00  0.00    +0.046 C 
BRANCH  22  32
ATOM     29  N   UNL     1      -0.319   1.160   0.847  0.00  0.00    +0.382 N 
ATOM     30  C   UNL     1       0.652   1.328  -0.243  0.00  0.00    -0.060 C 
ATOM     31  C   UNL     1      -0.075   1.802  -1.503  0.00  0.00    +0.086 C 
ATOM     32  N   UNL     1      -0.767   3.067  -1.219  0.00  0.00    -0.333 N 
ATOM     33  C   UNL     1      -1.739   2.899  -0.130  0.00  0.00    +0.086 C 
ATOM     34  C   UNL     1      -1.012   2.425   1.131  0.00  0.00    -0.060 C 
ATOM     35  H   UNL     1      -1.071   0.426   0.522  0.00  0.00    -0.082 HD
BRANCH  29  37
ATOM     36  C   UNL     1      -0.645   0.705   3.231  0.00  0.00    -0.017 C 
ATOM     37  C   UNL     1       0.330   0.632   2.055  0.00  0.00    -0.082 C 
ENDBRANCH  29  37
ENDBRANCH  22  32
ENDBRANCH   1  25
TORSDOF 5
