REMARK  Name = ZINC55996171
REMARK  5 active torsions:
REMARK  status: ('A' for Active; 'I' for Inactive)
REMARK    1  A    between atoms: C_1  and  C_2
REMARK    2  A    between atoms: C_4  and  C_14
REMARK    3  A    between atoms: C_7  and  N_8
REMARK    4  A    between atoms: N_16  and  C_17
REMARK    5  A    between atoms: C_20  and  C_23
REMARK                            x       y       z     vdW  Elec       q    Type
REMARK                         _______ _______ _______ _____ _____    ______ ____
ROOT
ATOM      1  C   UNL     1       0.026  -2.816  -2.481  0.00  0.00    +0.248 C 
ATOM      2  O   UNL     1       0.003  -2.204  -3.532  0.00  0.00    -0.270 OA
ATOM      3  N   UNL     1       0.047  -4.163  -2.486  0.00  0.00    -0.282 N 
ATOM      4  H   UNL     1       0.134  -4.650  -1.652  0.00  0.00    +0.155 HD
ENDROOT
BRANCH   1   8
ATOM      5  C   UNL     1      -0.009   1.502   0.011  0.00  0.00    +0.046 C 
ATOM      6  C   UNL     1       0.014  -0.004   0.003  0.00  0.00    -0.028 A 
ATOM      7  C   UNL     1       0.009  -0.685  -1.194  0.00  0.00    +0.018 A 
ATOM      8  C   UNL     1       0.031  -2.083  -1.201  0.00  0.00    +0.037 A 
ATOM      9  C   UNL     1       0.057  -2.784   0.008  0.00  0.00    +0.015 A 
ATOM     10  C   UNL     1       0.061  -2.097   1.200  0.00  0.00    +0.024 A 
ATOM     11  C   UNL     1       0.045  -0.706   1.204  0.00  0.00    +0.041 A 
BRANCH  11  12
ATOM     12  N   UNL     1       0.055  -0.013   2.414  0.00  0.00    -0.254 N 
ATOM     13  C   UNL     1      -1.137   0.388   3.176  0.00  0.00    +0.134 C 
ATOM     14  C   UNL     1      -0.561   1.111   4.409  0.00  0.00    +0.125 C 
ATOM     15  N   UNL     1       0.894   1.042   4.210  0.00  0.00    -0.297 N 
ATOM     16  C   UNL     1       1.152   0.390   3.069  0.00  0.00    +0.307 C 
ATOM     17  O   UNL     1       2.279   0.185   2.662  0.00  0.00    -0.252 OA
ATOM     18  H   UNL     1       1.562   1.407   4.812  0.00  0.00    +0.150 HD
ENDBRANCH  11  12
ENDBRANCH   1   8
BRANCH   3  19
ATOM     19  C   UNL     1      -0.055  -4.859  -3.693  0.00  0.00    +0.034 A 
ATOM     20  C   UNL     1       0.530  -4.341  -4.844  0.00  0.00    +0.024 A 
ATOM     21  C   UNL     1       0.432  -5.025  -6.035  0.00  0.00    +0.015 A 
ATOM     22  C   UNL     1      -0.256  -6.239  -6.087  0.00  0.00    +0.039 A 
ATOM     23  C   UNL     1      -0.843  -6.756  -4.930  0.00  0.00    +0.015 A 
ATOM     24  C   UNL     1      -0.736  -6.070  -3.740  0.00  0.00    +0.024 A 
BRANCH  22  25
ATOM     25  C   UNL     1      -0.364  -6.975  -7.364  0.00  0.00    +0.248 A 
ATOM     26  N   UNL     1       0.141  -6.609  -8.519  0.00  0.00    -0.108 NA
ATOM     27  N   UNL     1      -0.151  -7.492  -9.409  0.00  0.00    -0.116 NA
ATOM     28  C   UNL     1      -0.847  -8.448  -8.862  0.00  0.00    +0.332 A 
ATOM     29  O   UNL     1      -0.995  -8.151  -7.559  0.00  0.00    -0.423 OA
ENDBRANCH  22  25
ENDBRANCH   3  19
TORSDOF 4
