REMARK  Name = ZINC14564093
REMARK  8 active torsions:
REMARK  status: ('A' for Active; 'I' for Inactive)
REMARK    1  A    between atoms: C_1  and  C_2
REMARK    2  A    between atoms: C_6  and  N_8
REMARK    3  A    between atoms: C_9  and  C_11
REMARK    4  A    between atoms: C_15  and  N_17
REMARK    5  A    between atoms: N_17  and  C_18
REMARK    6  A    between atoms: C_18  and  N_20
REMARK    7  A    between atoms: C_21  and  C_23
REMARK    8  A    between atoms: C_24  and  C_25
REMARK                            x       y       z     vdW  Elec       q    Type
REMARK                         _______ _______ _______ _____ _____    ______ ____
ROOT
ATOM      1  C   UNL     1       3.413  -6.210  -0.039  0.00  0.00    +0.039 A 
ATOM      2  C   UNL     1       2.161  -6.802   0.136  0.00  0.00    +0.013 A 
ATOM      3  C   UNL     1       1.019  -6.030   0.081  0.00  0.00    +0.003 A 
ATOM      4  C   UNL     1       1.109  -4.669  -0.143  0.00  0.00    +0.023 A 
ATOM      5  C   UNL     1       2.350  -4.071  -0.325  0.00  0.00    +0.033 A 
ATOM      6  C   UNL     1       3.504  -4.837  -0.271  0.00  0.00    +0.036 A 
ENDROOT
BRANCH   1   8
ATOM      7  N   UNL     1       4.549  -8.360   0.244  0.00  0.00    -0.281 N 
ATOM      8  C   UNL     1       4.639  -7.034   0.021  0.00  0.00    +0.248 C 
ATOM      9  O   UNL     1       5.728  -6.516  -0.132  0.00  0.00    -0.270 OA
ATOM     10  H   UNL     1       3.679  -8.787   0.286  0.00  0.00    +0.155 HD
BRANCH   7  16
ATOM     11  C   UNL     1       6.953 -12.606  -0.353  0.00  0.00    +0.044 C 
ATOM     12  C   UNL     1       6.903 -11.182   0.137  0.00  0.00    -0.049 A 
ATOM     13  C   UNL     1       8.006 -10.626   0.758  0.00  0.00    +0.003 A 
ATOM     14  C   UNL     1       7.964  -9.319   1.209  0.00  0.00    +0.002 A 
ATOM     15  C   UNL     1       6.819  -8.565   1.040  0.00  0.00    +0.023 A 
ATOM     16  C   UNL     1       5.710  -9.121   0.416  0.00  0.00    +0.034 A 
ATOM     17  C   UNL     1       5.753 -10.435  -0.031  0.00  0.00    +0.026 A 
ENDBRANCH   7  16
ENDBRANCH   1   8
BRANCH   5  18
ATOM     18  N   UNL     1       2.435  -2.693  -0.556  0.00  0.00    -0.297 N 
ATOM     19  H   UNL     1       3.127  -2.171  -0.121  0.00  0.00    +0.154 HD
BRANCH  18  20
ATOM     20  C   UNL     1       1.556  -2.093  -1.383  0.00  0.00    +0.141 C 
ATOM     21  S   UNL     1       0.426  -3.034  -2.259  0.00  0.00    -0.018 S 
BRANCH  20  22
ATOM     22  N   UNL     1       1.567  -0.752  -1.519  0.00  0.00    -0.264 N 
ATOM     23  C   UNL     1       0.688  -0.152  -2.345  0.00  0.00    +0.242 C 
ATOM     24  O   UNL     1      -0.116  -0.821  -2.969  0.00  0.00    -0.270 OA
ATOM     25  H   UNL     1       2.207  -0.219  -1.022  0.00  0.00    +0.157 HD
BRANCH  23  26
ATOM     26  C   UNL     1       0.699   1.303  -2.493  0.00  0.00    +0.068 C 
ATOM     27  C   UNL     1      -0.177   1.904  -3.325  0.00  0.00    +0.013 C 
BRANCH  27  28
ATOM     28  C   UNL     1      -0.166   3.367  -3.474  0.00  0.00    -0.025 A 
ATOM     29  C   UNL     1       0.749   4.140  -2.750  0.00  0.00    +0.009 A 
ATOM     30  C   UNL     1       0.757   5.510  -2.899  0.00  0.00    +0.020 A 
ATOM     31  C   UNL     1      -0.144   6.123  -3.754  0.00  0.00    +0.041 A 
ATOM     32  C   UNL     1      -1.056   5.365  -4.470  0.00  0.00    +0.020 A 
ATOM     33  C   UNL     1      -1.073   3.993  -4.335  0.00  0.00    +0.009 A 
ATOM     34 CL   UNL     1      -0.130   7.851  -3.930  0.00  0.00    -0.084 Cl
ENDBRANCH  27  28
ENDBRANCH  23  26
ENDBRANCH  20  22
ENDBRANCH  18  20
ENDBRANCH   5  18
TORSDOF 7
