REMARK  Name = ZINC43751617
REMARK  7 active torsions:
REMARK  status: ('A' for Active; 'I' for Inactive)
REMARK    1  A    between atoms: C_4  and  C_7
REMARK    2  A    between atoms: C_7  and  C_8
REMARK    3  A    between atoms: N_10  and  C_11
REMARK    4  A    between atoms: C_11  and  C_13
REMARK    5  A    between atoms: C_11  and  N_17
REMARK    6  A    between atoms: N_17  and  C_18
REMARK    7  A    between atoms: C_18  and  N_20
REMARK                            x       y       z     vdW  Elec       q    Type
REMARK                         _______ _______ _______ _____ _____    ______ ____
ROOT
ATOM      1  N   UNL     1       6.856  -0.937   3.322  0.00  0.00    -0.305 N 
ATOM      2  H   UNL     1       7.745  -1.091   2.967  0.00  0.00    +0.150 HD
ENDROOT
BRANCH   1   3
ATOM      3  C   UNL     1       6.624   0.122   4.123  0.00  0.00    +0.134 C 
ATOM      4  S   UNL     1       5.031   0.467   4.646  0.00  0.00    -0.019 S 
BRANCH   3   5
ATOM      5  N   UNL     1       7.646   0.909   4.512  0.00  0.00    -0.312 N 
ATOM      6  C   UNL     1       8.998   0.702   3.979  0.00  0.00    +0.112 C 
ATOM      7  C   UNL     1       9.569   2.016   3.466  0.00  0.00    +0.027 C 
ATOM      8  C   UNL     1       9.427   3.123   4.511  0.00  0.00    +0.018 C 
ATOM      9  C   UNL     1       7.940   3.295   4.832  0.00  0.00    +0.054 C 
ATOM     10  C   UNL     1       7.431   2.000   5.477  0.00  0.00    +0.116 C 
ATOM     11  C   UNL     1       7.166   3.525   3.556  0.00  0.00    +0.027 A 
ATOM     12  C   UNL     1       6.009   4.234   3.644  0.00  0.00    +0.022 A 
ATOM     13  C   UNL     1       5.207   4.429   2.515  0.00  0.00    +0.007 A 
ATOM     14  C   UNL     1       5.591   3.875   1.329  0.00  0.00    +0.070 A 
ATOM     15  C   UNL     1       6.788   3.147   1.273  0.00  0.00    +0.251 A 
ATOM     16  O   UNL     1       7.110   2.593   0.234  0.00  0.00    -0.268 OA
ATOM     17  N   UNL     1       7.591   3.053   2.361  0.00  0.00    -0.312 N 
ATOM     18  C   UNL     1       8.909   2.458   2.173  0.00  0.00    +0.130 C 
ENDBRANCH   3   5
ENDBRANCH   1   3
BRANCH   1  19
ATOM     19  C   UNL     1       5.764  -1.855   2.987  0.00  0.00    +0.211 C 
BRANCH  19  22
ATOM     20  C   UNL     1       4.171  -0.964   1.373  0.00  0.00    +0.219 C 
ATOM     21  O   UNL     1       3.491  -0.580   2.301  0.00  0.00    -0.275 OA
ATOM     22  N   UNL     1       5.328  -1.613   1.609  0.00  0.00    -0.293 N 
ATOM     23  H   UNL     1       5.872  -1.920   0.868  0.00  0.00    +0.151 HD
BRANCH  20  24
ATOM     24  C   UNL     1       3.722  -0.715  -0.044  0.00  0.00    +0.131 C 
BRANCH  24  28
ATOM     25  C   UNL     1      -0.002   1.377  -0.014  0.00  0.00    +0.000 A 
ATOM     26  C   UNL     1       1.187   2.082  -0.020  0.00  0.00    +0.000 A 
ATOM     27  C   UNL     1       2.392   1.405  -0.030  0.00  0.00    +0.004 A 
ATOM     28  C   UNL     1       2.408   0.023  -0.033  0.00  0.00    -0.039 A 
ATOM     29  C   UNL     1       1.220  -0.682  -0.026  0.00  0.00    +0.004 A 
ATOM     30  C   UNL     1       0.014  -0.005  -0.018  0.00  0.00    +0.000 A 
ENDBRANCH  24  28
ENDBRANCH  20  24
ENDBRANCH  19  22
BRANCH  19  31
ATOM     31  C   UNL     1       6.253  -3.299   3.121  0.00  0.00    +0.225 C 
ATOM     32 CL   UNL     1       7.635  -3.572   1.996  0.00  0.00    -0.080 Cl
ATOM     33 CL   UNL     1       6.789  -3.596   4.816  0.00  0.00    -0.080 Cl
ATOM     34 CL   UNL     1       4.909  -4.428   2.709  0.00  0.00    -0.080 Cl
ENDBRANCH  19  31
ENDBRANCH   1  19
TORSDOF 7
