REMARK  Name = ZINC21867849
REMARK  6 active torsions:
REMARK  status: ('A' for Active; 'I' for Inactive)
REMARK    1  A    between atoms: C_1  and  C_2
REMARK    2  A    between atoms: C_2  and  C_4
REMARK    3  A    between atoms: C_2  and  N_11
REMARK    4  A    between atoms: C_12  and  C_14
REMARK    5  A    between atoms: C_22  and  C_25
REMARK    6  A    between atoms: C_29  and  C_31
REMARK                            x       y       z     vdW  Elec       q    Type
REMARK                         _______ _______ _______ _____ _____    ______ ____
ROOT
ATOM      1  C   UNL     1      -1.798  10.834  -1.079  0.00  0.00    +0.039 A 
ATOM      2  C   UNL     1      -2.927  10.563  -1.857  0.00  0.00    +0.014 A 
ATOM      3  C   UNL     1      -3.289   9.261  -2.124  0.00  0.00    +0.016 A 
ATOM      4  C   UNL     1      -2.526   8.212  -1.615  0.00  0.00    +0.067 A 
ATOM      5  C   UNL     1      -1.391   8.478  -0.831  0.00  0.00    +0.082 A 
ATOM      6  C   UNL     1      -1.032   9.790  -0.566  0.00  0.00    +0.041 A 
ATOM      7  N   UNL     1      -0.645   7.415  -0.334  0.00  0.00    -0.193 N 
ATOM      8  C   UNL     1      -1.002   6.128  -0.604  0.00  0.00    +0.188 A 
ATOM      9  C   UNL     1      -0.070   5.327   0.030  0.00  0.00    +0.139 A 
ATOM     10  N   UNL     1       0.814   6.120   0.649  0.00  0.00    -0.127 NA
ATOM     11  N   UNL     1       0.509   7.356   0.458  0.00  0.00    -0.058 NA
ATOM     12  N   UNL     1      -2.115   5.827  -1.366  0.00  0.00    -0.187 NA
ATOM     13  C   UNL     1      -2.887   6.805  -1.883  0.00  0.00    +0.281 A 
ATOM     14  O   UNL     1      -3.863   6.534  -2.556  0.00  0.00    -0.265 OA
ENDROOT
BRANCH   9  15
ATOM     15  C   UNL     1      -0.050   3.844   0.022  0.00  0.00    +0.006 A 
ATOM     16  C   UNL     1      -1.246   3.128   0.030  0.00  0.00    +0.010 A 
ATOM     17  C   UNL     1      -1.222   1.748   0.017  0.00  0.00    +0.001 A 
ATOM     18  C   UNL     1      -0.013   1.076   0.008  0.00  0.00    +0.012 A 
ATOM     19  C   UNL     1       1.177   1.781   0.000  0.00  0.00    +0.055 A 
ATOM     20  C   UNL     1       1.165   3.161   0.007  0.00  0.00    +0.022 A 
BRANCH  19  21
ATOM     21  C   UNL     1       2.490   1.041  -0.015  0.00  0.00    +0.417 C 
ATOM     22  F   UNL     1       2.248  -0.337  -0.019  0.00  0.00    -0.166 F 
ATOM     23  F   UNL     1       3.210   1.392  -1.162  0.00  0.00    -0.166 F 
ATOM     24  F   UNL     1       3.231   1.381   1.122  0.00  0.00    -0.166 F 
ENDBRANCH  19  21
ENDBRANCH   9  15
BRANCH   1  26
ATOM     25  N   UNL     1      -2.156  13.248  -1.291  0.00  0.00    -0.305 N 
ATOM     26  C   UNL     1      -1.416  12.236  -0.797  0.00  0.00    +0.245 C 
ATOM     27  O   UNL     1      -0.436  12.475  -0.120  0.00  0.00    -0.270 OA
ATOM     28  H   UNL     1      -3.044  13.033  -1.904  0.00  0.00    +0.150 HD
BRANCH  25  30
ATOM     29  C   UNL     1      -2.362  15.063   0.336  0.00  0.00    +0.033 C 
ATOM     30  C   UNL     1      -1.778  14.636  -1.012  0.00  0.00    +0.100 C 
BRANCH  30  31
ATOM     31  C   UNL     1      -2.317  15.531  -2.099  0.00  0.00    -0.027 A 
ATOM     32  C   UNL     1      -3.578  15.306  -2.618  0.00  0.00    +0.008 A 
ATOM     33  C   UNL     1      -4.075  16.129  -3.610  0.00  0.00    +0.038 A 
ATOM     34  C   UNL     1      -3.305  17.174  -4.092  0.00  0.00    +0.123 A 
ATOM     35  C   UNL     1      -2.040  17.396  -3.575  0.00  0.00    +0.038 A 
ATOM     36  C   UNL     1      -1.547  16.574  -2.579  0.00  0.00    +0.008 A 
ATOM     37  F   UNL     1      -3.787  17.976  -5.066  0.00  0.00    -0.205 F 
ENDBRANCH  30  31
ENDBRANCH  25  30
ENDBRANCH   1  26
TORSDOF 5
