REMARK  Name = ZINC52273709
REMARK  4 active torsions:
REMARK  status: ('A' for Active; 'I' for Inactive)
REMARK    1  A    between atoms: C_1  and  C_2
REMARK    2  A    between atoms: C_5  and  N_7
REMARK    3  A    between atoms: N_7  and  C_8
REMARK    4  A    between atoms: C_13  and  N_14
REMARK                            x       y       z     vdW  Elec       q    Type
REMARK                         _______ _______ _______ _____ _____    ______ ____
ROOT
ATOM      1  C   UNL     1       2.470  -2.365   1.703  0.00  0.00    +0.052 A 
ATOM      2  C   UNL     1       2.835  -1.598   2.798  0.00  0.00    +0.074 A 
ATOM      3  C   UNL     1       3.879  -2.005   3.616  0.00  0.00    +0.164 A 
ATOM      4  C   UNL     1       4.559  -3.184   3.339  0.00  0.00    +0.164 A 
ATOM      5  C   UNL     1       4.196  -3.953   2.242  0.00  0.00    +0.074 A 
ATOM      6  C   UNL     1       3.150  -3.550   1.427  0.00  0.00    +0.049 A 
ATOM      7  O   UNL     1       5.582  -3.603   4.136  0.00  0.00    -0.485 OA
ATOM      8  C   UNL     1       6.162  -2.624   5.005  0.00  0.00    +0.270 C 
ATOM      9  C   UNL     1       5.024  -1.860   5.696  0.00  0.00    +0.270 C 
ATOM     10  O   UNL     1       4.226  -1.235   4.685  0.00  0.00    -0.485 OA
ENDROOT
BRANCH   6  11
ATOM     11  N   UNL     1       2.780  -4.331   0.322  0.00  0.00    -0.356 N 
ATOM     12  H   UNL     1       2.050  -4.047  -0.251  0.00  0.00    +0.142 HD
ATOM     13  H   UNL     1       3.253  -5.156   0.131  0.00  0.00    +0.142 HD
ENDBRANCH   6  11
BRANCH   1  14
ATOM     14  N   UNL     1       1.414  -1.953   0.877  0.00  0.00    -0.339 N 
ATOM     15  H   UNL     1       1.156  -2.493   0.113  0.00  0.00    +0.146 HD
BRANCH  14  19
ATOM     16  C   UNL     1      -0.019   1.526   0.010  0.00  0.00    +0.009 C 
ATOM     17  C   UNL     1       0.002  -0.004   0.002  0.00  0.00    +0.008 C 
ATOM     18  C   UNL     1      -0.828  -0.728   1.065  0.00  0.00    +0.027 C 
ATOM     19  C   UNL     1       0.700  -0.708   1.168  0.00  0.00    +0.074 C 
ENDBRANCH  14  19
ENDBRANCH   1  14
TORSDOF 3
