REMARK  Name = ZINC49223815
REMARK  8 active torsions:
REMARK  status: ('A' for Active; 'I' for Inactive)
REMARK    1  A    between atoms: C_1  and  C_2
REMARK    2  A    between atoms: C_5  and  C_7
REMARK    3  A    between atoms: C_7  and  C_9
REMARK    4  A    between atoms: C_7  and  N_10
REMARK    5  A    between atoms: C_11  and  C_19
REMARK    6  A    between atoms: C_12  and  C_18
REMARK    7  A    between atoms: C_13  and  C_16
REMARK    8  A    between atoms: C_14  and  N_15
REMARK                            x       y       z     vdW  Elec       q    Type
REMARK                         _______ _______ _______ _____ _____    ______ ____
ROOT
ATOM      1  N   UNL     1       2.534  -3.200   1.170  0.00  0.00    -0.322 N 
ATOM      2  C   UNL     1       2.595  -4.180   2.128  0.00  0.00    +0.022 A 
ATOM      3  C   UNL     1       3.471  -3.819   3.077  0.00  0.00    -0.011 A 
ATOM      4  C   UNL     1       4.004  -2.507   2.684  0.00  0.00    +0.094 A 
ATOM      5  C   UNL     1       3.380  -2.186   1.484  0.00  0.00    +0.115 A 
ATOM      6  C   UNL     1       3.838  -4.605   4.309  0.00  0.00    +0.047 C 
ATOM      7  C   UNL     1       1.801  -5.461   2.116  0.00  0.00    +0.064 C 
ENDROOT
BRANCH   5   8
ATOM      8  N   UNL     1       3.583  -1.036   0.744  0.00  0.00    -0.343 N 
ATOM      9  H   UNL     1       3.096  -0.900  -0.084  0.00  0.00    +0.144 HD
ATOM     10  H   UNL     1       4.212  -0.365   1.052  0.00  0.00    +0.144 HD
ENDBRANCH   5   8
BRANCH   1  11
ATOM     11  C   UNL     1       1.684  -3.245  -0.023  0.00  0.00    +0.151 C 
ATOM     12  C   UNL     1       2.560  -3.186  -1.276  0.00  0.00    +0.039 C 
BRANCH  11  17
ATOM     13  C   UNL     1      -0.018   1.503   0.010  0.00  0.00    +0.086 C 
ATOM     14  C   UNL     1       0.002  -0.004   0.002  0.00  0.00    +0.102 A 
ATOM     15  C   UNL     1      -1.078  -0.805   0.003  0.00  0.00    +0.045 A 
ATOM     16  C   UNL     1      -0.601  -2.136  -0.007  0.00  0.00    +0.047 A 
ATOM     17  C   UNL     1       0.742  -2.069  -0.013  0.00  0.00    +0.128 A 
ATOM     18  O   UNL     1       1.102  -0.775  -0.013  0.00  0.00    -0.463 OA
ENDBRANCH  11  17
ENDBRANCH   1  11
BRANCH   4  19
ATOM     19  C   UNL     1       4.971  -1.722   3.389  0.00  0.00    +0.103 C 
ATOM     20  N   UNL     1       5.739  -1.099   3.949  0.00  0.00    -0.191 NA
ENDBRANCH   4  19
TORSDOF 4
