REMARK  Name = ZINC08833361
REMARK  8 active torsions:
REMARK  status: ('A' for Active; 'I' for Inactive)
REMARK    1  A    between atoms: C_1  and  C_2
REMARK    2  A    between atoms: C_5  and  C_29
REMARK    3  A    between atoms: C_7  and  N_8
REMARK    4  A    between atoms: N_8  and  C_9
REMARK    5  A    between atoms: C_9  and  N_11
REMARK    6  A    between atoms: C_12  and  C_14
REMARK    7  A    between atoms: C_17  and  N_23
REMARK    8  A    between atoms: C_18  and  N_20
REMARK                            x       y       z     vdW  Elec       q    Type
REMARK                         _______ _______ _______ _____ _____    ______ ____
ROOT
ATOM      1  C   UNL     1       4.803   3.923   0.367  0.00  0.00    +0.141 C 
ATOM      2  S   UNL     1       4.875   5.556   0.875  0.00  0.00    -0.018 S 
ENDROOT
BRANCH   1   3
ATOM      3  N   UNL     1       3.626   3.267   0.371  0.00  0.00    -0.264 N 
ATOM      4  C   UNL     1       2.505   3.897   0.775  0.00  0.00    +0.250 C 
ATOM      5  O   UNL     1       2.555   5.057   1.135  0.00  0.00    -0.270 OA
ATOM      6  H   UNL     1       3.585   2.341   0.083  0.00  0.00    +0.157 HD
BRANCH   4   7
ATOM      7  C   UNL     1       1.216   3.180   0.779  0.00  0.00    +0.039 A 
ATOM      8  C   UNL     1       1.156   1.845   0.364  0.00  0.00    +0.015 A 
ATOM      9  C   UNL     1      -0.037   1.181   0.368  0.00  0.00    +0.026 A 
ATOM     10  C   UNL     1      -1.199   1.830   0.779  0.00  0.00    +0.060 A 
ATOM     11  C   UNL     1      -1.147   3.156   1.199  0.00  0.00    +0.148 A 
ATOM     12  C   UNL     1       0.052   3.832   1.197  0.00  0.00    +0.047 A 
BRANCH  10  13
ATOM     13  N   UNL     1      -2.411   1.150   0.776  0.00  0.00    -0.328 N 
ATOM     14  C   UNL     1      -2.392   0.034   1.730  0.00  0.00    +0.105 C 
ATOM     15  C   UNL     1      -3.783  -0.599   1.806  0.00  0.00    +0.019 C 
ATOM     16  C   UNL     1      -4.188  -1.098   0.417  0.00  0.00    +0.003 C 
ATOM     17  C   UNL     1      -4.154   0.074  -0.568  0.00  0.00    +0.019 C 
ATOM     18  C   UNL     1      -2.751   0.687  -0.575  0.00  0.00    +0.105 C 
ENDBRANCH  10  13
BRANCH  11  19
ATOM     19  N   UNL     1      -2.382   3.842   1.641  0.00  0.00    +0.058 N 
ATOM     20  O   UNL     1      -2.337   5.004   2.004  0.00  0.00    -0.126 OA
ATOM     21  O   UNL     1      -3.443   3.244   1.643  0.00  0.00    -0.126 OA
ENDBRANCH  11  19
ENDBRANCH   4   7
ENDBRANCH   1   3
BRANCH   1  22
ATOM     22  N   UNL     1       5.924   3.293  -0.036  0.00  0.00    -0.296 N 
ATOM     23  H   UNL     1       5.899   2.346  -0.248  0.00  0.00    +0.154 HD
BRANCH  22  30
ATOM     24  C   UNL     1       8.291   2.092   0.980  0.00  0.00    +0.045 C 
ATOM     25  C   UNL     1       8.305   3.454   0.334  0.00  0.00    -0.029 A 
ATOM     26  C   UNL     1       9.493   4.152   0.224  0.00  0.00    +0.006 A 
ATOM     27  C   UNL     1       9.514   5.399  -0.366  0.00  0.00    +0.012 A 
ATOM     28  C   UNL     1       8.332   5.960  -0.854  0.00  0.00    +0.019 A 
ATOM     29  C   UNL     1       7.135   5.253  -0.749  0.00  0.00    +0.035 A 
ATOM     30  C   UNL     1       7.124   4.003  -0.149  0.00  0.00    +0.036 A 
BRANCH  28  31
ATOM     31  C   UNL     1       8.351   7.297  -1.486  0.00  0.00    +0.139 A 
ATOM     32  N   UNL     1       9.464   8.078  -1.643  0.00  0.00    -0.338 N 
ATOM     33  H   UNL     1      10.394   7.851  -1.354  0.00  0.00    +0.167 HD
ATOM     34  C   UNL     1       9.064   9.239  -2.275  0.00  0.00    +0.066 A 
ATOM     35  C   UNL     1       9.724  10.385  -2.695  0.00  0.00    +0.028 A 
ATOM     36  C   UNL     1       9.016  11.396  -3.308  0.00  0.00    +0.002 A 
ATOM     37  C   UNL     1       7.647  11.277  -3.507  0.00  0.00    +0.002 A 
ATOM     38  C   UNL     1       6.980  10.157  -3.101  0.00  0.00    +0.030 A 
ATOM     39  C   UNL     1       7.677   9.117  -2.477  0.00  0.00    +0.089 A 
ATOM     40  N   UNL     1       7.304   7.915  -1.976  0.00  0.00    -0.228 NA
ENDBRANCH  28  31
ENDBRANCH  22  30
ENDBRANCH   1  22
TORSDOF 7
