REMARK  Name = ZINC38733490
REMARK  4 active torsions:
REMARK  status: ('A' for Active; 'I' for Inactive)
REMARK    1  A    between atoms: C_13  and  C_15
REMARK    2  A    between atoms: C_21  and  C_23
REMARK    3  A    between atoms: C_28  and  C_31
REMARK    4  A    between atoms: C_28  and  O_38
REMARK                            x       y       z     vdW  Elec       q    Type
REMARK                         _______ _______ _______ _____ _____    ______ ____
ROOT
ATOM      1  C   UNL     1       0.170  -6.647   1.137  0.00  0.00    +0.091 C 
ATOM      2  C   UNL     1      -0.685  -6.218   2.331  0.00  0.00    +0.040 C 
ATOM      3  C   UNL     1      -1.831  -7.169   2.515  0.00  0.00    -0.030 C 
ATOM      4  C   UNL     1      -1.884  -8.351   1.988  0.00  0.00    -0.030 C 
ATOM      5  C   UNL     1      -0.811  -8.931   1.114  0.00  0.00    +0.040 C 
ATOM      6  C   UNL     1       0.489  -8.141   1.275  0.00  0.00    +0.091 C 
ENDROOT
BRANCH   1  19
ATOM      7  C   UNL     1       2.501   1.089  -1.345  0.00  0.00    +0.005 A 
ATOM      8  C   UNL     1       1.268   1.677  -1.595  0.00  0.00    +0.018 A 
ATOM      9  C   UNL     1       0.129   0.897  -1.566  0.00  0.00    +0.084 A 
ATOM     10  N   UNL     1       0.200  -0.395  -1.305  0.00  0.00    -0.350 N 
ATOM     11  C   UNL     1       1.357  -0.992  -1.062  0.00  0.00    +0.099 A 
ATOM     12  C   UNL     1       2.544  -0.267  -1.074  0.00  0.00    +0.042 A 
ATOM     13  N   UNL     1       1.385  -2.355  -0.791  0.00  0.00    -0.314 N 
ATOM     14  C   UNL     1       2.665  -3.061  -0.640  0.00  0.00    +0.125 C 
ATOM     15  C   UNL     1       2.674  -3.773   0.719  0.00  0.00    +0.126 C 
ATOM     16  N   UNL     1       1.425  -4.533   0.859  0.00  0.00    -0.298 N 
ATOM     17  C   UNL     1       0.145  -3.827   0.708  0.00  0.00    +0.126 C 
ATOM     18  C   UNL     1       0.135  -3.115  -0.645  0.00  0.00    +0.125 C 
ATOM     19  C   UNL     1       1.452  -5.855   1.122  0.00  0.00    +0.220 C 
ATOM     20  O   UNL     1       2.509  -6.407   1.345  0.00  0.00    -0.275 OA
ATOM     21  H   UNL     1      -0.615  -0.920  -1.292  0.00  0.00    +0.166 HD
ENDBRANCH   1  19
BRANCH   6  22
ATOM     22  C   UNL     1       1.470  -8.550   0.207  0.00  0.00    +0.220 C 
ATOM     23  O   UNL     1       1.423  -8.034  -0.889  0.00  0.00    -0.275 OA
ATOM     24  N   UNL     1       2.399  -9.491   0.469  0.00  0.00    -0.301 N 
ATOM     25  C   UNL     1       2.392 -10.212   1.750  0.00  0.00    +0.111 C 
ATOM     26  C   UNL     1       2.387 -11.718   1.467  0.00  0.00    +0.058 C 
ATOM     27  C   UNL     1       3.565 -12.066   0.555  0.00  0.00    +0.094 C 
ATOM     28  C   UNL     1       3.419 -11.325  -0.775  0.00  0.00    +0.058 C 
ATOM     29  C   UNL     1       3.433  -9.819  -0.521  0.00  0.00    +0.111 C 
BRANCH  27  30
ATOM     30  C   UNL     1       3.583 -13.552   0.303  0.00  0.00    -0.016 A 
ATOM     31  C   UNL     1       2.398 -14.265   0.295  0.00  0.00    +0.008 A 
ATOM     32  C   UNL     1       2.414 -15.628   0.064  0.00  0.00    +0.020 A 
ATOM     33  C   UNL     1       3.614 -16.278  -0.160  0.00  0.00    +0.041 A 
ATOM     34  C   UNL     1       4.799 -15.563  -0.152  0.00  0.00    +0.020 A 
ATOM     35  C   UNL     1       4.782 -14.200   0.074  0.00  0.00    +0.008 A 
ATOM     36 CL   UNL     1       3.635 -17.989  -0.450  0.00  0.00    -0.084 Cl
ENDBRANCH  27  30
BRANCH  27  37
ATOM     37  O   UNL     1       4.787 -11.677   1.186  0.00  0.00    -0.384 OA
ATOM     38  H   UNL     1       5.578 -11.868   0.664  0.00  0.00    +0.211 HD
ENDBRANCH  27  37
ENDBRANCH   6  22
TORSDOF 4
