REMARK  Name = ZINC17094979
REMARK  6 active torsions:
REMARK  status: ('A' for Active; 'I' for Inactive)
REMARK    1  A    between atoms: C_1  and  C_2
REMARK    2  A    between atoms: C_7  and  N_8
REMARK    3  A    between atoms: C_9  and  C_11
REMARK    4  A    between atoms: C_15  and  N_16
REMARK    5  A    between atoms: C_17  and  C_19
REMARK    6  A    between atoms: C_25  and  C_27
REMARK                            x       y       z     vdW  Elec       q    Type
REMARK                         _______ _______ _______ _____ _____    ______ ____
ROOT
ATOM      1  C   UNL     1      -2.182   4.044  -1.228  0.00  0.00    +0.069 A 
ATOM      2  C   UNL     1      -1.524   2.868  -0.660  0.00  0.00    -0.023 A 
ATOM      3  C   UNL     1      -1.494   2.824   0.684  0.00  0.00    -0.004 A 
ATOM      4  S   UNL     1      -2.321   4.307   1.204  0.00  0.00    -0.077 S 
ATOM      5  C   UNL     1      -2.700   4.977  -0.346  0.00  0.00    +0.084 A 
ATOM      6  C   UNL     1      -0.798   1.590   1.193  0.00  0.00    +0.043 C 
ATOM      7  C   UNL     1      -0.006   1.061  -0.023  0.00  0.00    +0.010 C 
ATOM      8  C   UNL     1      -0.829   1.618  -1.201  0.00  0.00    +0.037 C 
ENDROOT
BRANCH   1  10
ATOM      9  N   UNL     1      -1.319   4.881  -3.348  0.00  0.00    -0.281 N 
ATOM     10  C   UNL     1      -2.289   4.228  -2.678  0.00  0.00    +0.251 C 
ATOM     11  O   UNL     1      -3.254   3.791  -3.278  0.00  0.00    -0.270 OA
ATOM     12  H   UNL     1      -0.591   5.299  -2.862  0.00  0.00    +0.155 HD
BRANCH   9  19
ATOM     13  C   UNL     1       0.005   7.057  -4.617  0.00  0.00    +0.045 C 
ATOM     14  C   UNL     1      -0.729   6.002  -5.404  0.00  0.00    -0.029 A 
ATOM     15  C   UNL     1      -0.771   6.072  -6.783  0.00  0.00    +0.005 A 
ATOM     16  C   UNL     1      -1.449   5.107  -7.506  0.00  0.00    +0.000 A 
ATOM     17  C   UNL     1      -2.084   4.068  -6.851  0.00  0.00    +0.002 A 
ATOM     18  C   UNL     1      -2.043   3.990  -5.473  0.00  0.00    +0.023 A 
ATOM     19  C   UNL     1      -1.362   4.957  -4.744  0.00  0.00    +0.037 A 
ENDBRANCH   9  19
ENDBRANCH   1  10
BRANCH   5  20
ATOM     20  N   UNL     1      -3.362   6.161  -0.635  0.00  0.00    -0.279 N 
ATOM     21  C   UNL     1      -3.800   6.950   0.366  0.00  0.00    +0.221 C 
ATOM     22  O   UNL     1      -3.615   6.624   1.520  0.00  0.00    -0.275 OA
ATOM     23  H   UNL     1      -3.510   6.421  -1.558  0.00  0.00    +0.155 HD
BRANCH  21  24
ATOM     24  C   UNL     1      -4.519   8.236   0.053  0.00  0.00    +0.089 C 
ATOM     25  C   UNL     1      -3.600   9.149  -0.762  0.00  0.00    +0.013 C 
ATOM     26  C   UNL     1      -4.330  10.455  -1.081  0.00  0.00    +0.001 C 
ATOM     27  C   UNL     1      -4.716  11.155   0.224  0.00  0.00    +0.001 C 
ATOM     28  C   UNL     1      -5.636  10.242   1.039  0.00  0.00    +0.015 C 
ATOM     29  C   UNL     1      -4.906   8.936   1.357  0.00  0.00    +0.114 C 
BRANCH  29  30
ATOM     30  C   UNL     1      -5.811   8.037   2.160  0.00  0.00    +0.360 C 
ATOM     31  O   UNL     1      -6.115   6.949   1.732  0.00  0.00    -0.246 OA
ATOM     32  O   UNL     1      -6.279   8.445   3.349  0.00  0.00    -0.246 OA
ENDBRANCH  29  30
ENDBRANCH  21  24
ENDBRANCH   5  20
TORSDOF 5
