REMARK  Name = ZINC14911495
REMARK  8 active torsions:
REMARK  status: ('A' for Active; 'I' for Inactive)
REMARK    1  A    between atoms: C_1  and  C_2
REMARK    2  A    between atoms: C_8  and  C_10
REMARK    3  A    between atoms: C_10  and  C_12
REMARK    4  A    between atoms: C_10  and  S_13
REMARK    5  A    between atoms: S_13  and  C_14
REMARK    6  A    between atoms: C_14  and  C_15
REMARK    7  A    between atoms: C_20  and  C_24
REMARK    8  A    between atoms: C_21  and  C_23
REMARK                            x       y       z     vdW  Elec       q    Type
REMARK                         _______ _______ _______ _____ _____    ______ ____
ROOT
ATOM      1  C   UNL     1       0.616  -7.876  -1.429  0.00  0.00    +0.229 C 
ATOM      2  O   UNL     1      -0.522  -7.616  -1.758  0.00  0.00    -0.275 OA
ATOM      3  N   UNL     1       1.095  -9.126  -1.589  0.00  0.00    -0.264 N 
ATOM      4  C   UNL     1       0.284 -10.117  -2.130  0.00  0.00    +0.165 A 
ATOM      5  N   UNL     1       0.560 -11.386  -2.366  0.00  0.00    -0.224 NA
ATOM      6  C   UNL     1      -0.343 -12.199  -2.893  0.00  0.00    +0.083 A 
ATOM      7  C   UNL     1      -1.584 -11.716  -3.200  0.00  0.00    +0.016 A 
ATOM      8  S   UNL     1      -1.412 -10.012  -2.686  0.00  0.00    -0.057 S 
ATOM      9  C   UNL     1      -2.772 -12.424  -3.799  0.00  0.00    +0.054 C 
ATOM     10  H   UNL     1       2.005  -9.335  -1.326  0.00  0.00    +0.157 HD
ENDROOT
BRANCH   6  11
ATOM     11  C   UNL     1      -0.010 -13.622  -3.149  0.00  0.00    +0.001 A 
ATOM     12  C   UNL     1      -0.981 -14.608  -2.986  0.00  0.00    +0.011 A 
ATOM     13  C   UNL     1      -0.667 -15.929  -3.230  0.00  0.00    +0.016 A 
ATOM     14  C   UNL     1       0.613 -16.277  -3.626  0.00  0.00    +0.018 A 
ATOM     15  C   UNL     1       1.583 -15.303  -3.784  0.00  0.00    +0.016 A 
ATOM     16  C   UNL     1       1.278 -13.978  -3.547  0.00  0.00    +0.011 A 
ATOM     17 BR   UNL     1       1.038 -18.091  -3.952  0.00  0.00    -0.050 Br
ENDBRANCH   6  11
BRANCH   1  18
ATOM     18  C   UNL     1       1.496  -6.803  -0.842  0.00  0.00    +0.165 C 
BRANCH  18  19
ATOM     19  S   UNL     1       0.572  -5.244  -0.757  0.00  0.00    -0.139 S 
BRANCH  19  20
ATOM     20  C   UNL     1       1.754  -4.071  -0.039  0.00  0.00    +0.130 C 
ATOM     21  C   UNL     1       2.088  -4.496   1.393  0.00  0.00    +0.029 C 
BRANCH  20  29
ATOM     22  C   UNL     1      -1.237   2.232   0.020  0.00  0.00    +0.089 C 
ATOM     23  C   UNL     1      -0.016   1.348   0.009  0.00  0.00    +0.136 A 
ATOM     24  C   UNL     1       0.002  -0.004   0.002  0.00  0.00    +0.091 A 
ATOM     25  C   UNL     1       1.385  -0.328  -0.013  0.00  0.00    +0.168 A 
ATOM     26  N   UNL     1       2.026   0.811  -0.013  0.00  0.00    -0.063 NA
ATOM     27  O   UNL     1       1.263   1.749  -0.001  0.00  0.00    -0.358 OA
ATOM     28  N   UNL     1       1.946  -1.605  -0.026  0.00  0.00    -0.267 N 
ATOM     29  C   UNL     1       1.148  -2.691  -0.025  0.00  0.00    +0.231 C 
ATOM     30  O   UNL     1      -0.057  -2.559  -0.013  0.00  0.00    -0.274 OA
ATOM     31  H   UNL     1       2.910  -1.711  -0.035  0.00  0.00    +0.156 HD
ENDBRANCH  20  29
ENDBRANCH  19  20
ENDBRANCH  18  19
ENDBRANCH   1  18
TORSDOF 5
