REMARK  Name = ZINC44590379
REMARK  8 active torsions:
REMARK  status: ('A' for Active; 'I' for Inactive)
REMARK    1  A    between atoms: C_1  and  C_2
REMARK    2  A    between atoms: C_2  and  C_3
REMARK    3  A    between atoms: C_6  and  C_9
REMARK    4  A    between atoms: N_11  and  C_31
REMARK    5  A    between atoms: N_16  and  C_22
REMARK    6  A    between atoms: C_17  and  C_19
REMARK    7  A    between atoms: C_19  and  C_21
REMARK    8  A    between atoms: C_26  and  N_28
REMARK                            x       y       z     vdW  Elec       q    Type
REMARK                         _______ _______ _______ _____ _____    ______ ____
ROOT
ATOM      1  C   UNL     1      -5.649  -1.329   0.451  0.00  0.00    +0.067 C 
ATOM      2  N   UNL     1      -6.360  -1.468   1.516  0.00  0.00    -0.181 NA
ATOM      3  N   UNL     1      -7.587  -2.154   1.496  0.00  0.00    -0.193 N 
ATOM      4  C   UNL     1      -8.159  -2.518   0.212  0.00  0.00    +0.171 C 
ATOM      5  C   UNL     1      -7.084  -2.969  -0.760  0.00  0.00    +0.063 C 
ATOM      6  C   UNL     1      -6.047  -1.847  -0.900  0.00  0.00    +0.062 C 
ATOM      7  N   UNL     1      -9.251  -3.509   0.339  0.00  0.00    -0.205 NA
ATOM      8  N   UNL     1     -10.440  -2.966   0.722  0.00  0.00    -0.244 N 
ATOM      9  C   UNL     1     -10.724  -1.579   0.286  0.00  0.00    +0.217 C 
ATOM     10  S   UNL     1      -9.114  -1.111  -0.492  0.00  0.00    -0.085 S 
ATOM     11  H   UNL     1      -9.354  -4.043  -0.510  0.00  0.00    +0.148 HD
ENDROOT
BRANCH   1  15
ATOM     12  C   UNL     1      -1.955   0.735   0.781  0.00  0.00    -0.048 A 
ATOM     13  C   UNL     1      -2.748   0.560   1.901  0.00  0.00    +0.004 A 
ATOM     14  C   UNL     1      -3.950  -0.110   1.802  0.00  0.00    +0.010 A 
ATOM     15  C   UNL     1      -4.365  -0.612   0.566  0.00  0.00    -0.002 A 
ATOM     16  C   UNL     1      -3.560  -0.430  -0.561  0.00  0.00    +0.010 A 
ATOM     17  C   UNL     1      -2.363   0.246  -0.447  0.00  0.00    +0.004 A 
BRANCH  12  19
ATOM     18  C   UNL     1      -0.871   2.963   0.665  0.00  0.00    +0.009 C 
ATOM     19  C   UNL     1      -0.643   1.468   0.898  0.00  0.00    +0.032 C 
ENDBRANCH  12  19
ENDBRANCH   1  15
BRANCH   8  20
ATOM     20  C   UNL     1     -11.353  -3.688   1.494  0.00  0.00    +0.048 A 
ATOM     21  C   UNL     1     -12.464  -3.051   2.033  0.00  0.00    +0.024 A 
ATOM     22  C   UNL     1     -13.366  -3.768   2.796  0.00  0.00    +0.004 A 
ATOM     23  C   UNL     1     -13.163  -5.117   3.024  0.00  0.00    +0.033 A 
ATOM     24  C   UNL     1     -12.058  -5.753   2.489  0.00  0.00    +0.128 A 
ATOM     25  C   UNL     1     -11.155  -5.043   1.721  0.00  0.00    +0.057 A 
BRANCH  24  26
ATOM     26  N   UNL     1     -11.844  -7.196   2.737  0.00  0.00    +0.056 N 
ATOM     27  O   UNL     1     -12.636  -7.819   3.405  0.00  0.00    -0.126 OA
ATOM     28  O   UNL     1     -10.878  -7.753   2.270  0.00  0.00    -0.126 OA
ENDBRANCH  24  26
ENDBRANCH   8  20
BRANCH   3  29
ATOM     29  C   UNL     1      -8.241  -2.479   2.685  0.00  0.00    +0.055 A 
ATOM     30  C   UNL     1      -8.592  -3.797   2.950  0.00  0.00    +0.025 A 
ATOM     31  C   UNL     1      -9.239  -4.115   4.128  0.00  0.00    +0.002 A 
ATOM     32  C   UNL     1      -9.539  -3.122   5.043  0.00  0.00    +0.000 A 
ATOM     33  C   UNL     1      -9.191  -1.809   4.783  0.00  0.00    +0.002 A 
ATOM     34  C   UNL     1      -8.538  -1.485   3.611  0.00  0.00    +0.025 A 
ENDBRANCH   3  29
BRANCH   9  35
ATOM     35  C   UNL     1     -11.843  -1.546  -0.722  0.00  0.00    +0.162 C 
ATOM     36  O   UNL     1     -12.713  -2.383  -0.686  0.00  0.00    -0.295 OA
ATOM     37  C   UNL     1     -11.878  -0.468  -1.774  0.00  0.00    +0.089 C 
ENDBRANCH   9  35
TORSDOF 6
