REMARK  Name = ZINC13362272
REMARK  8 active torsions:
REMARK  status: ('A' for Active; 'I' for Inactive)
REMARK    1  A    between atoms: C_3  and  C_29
REMARK    2  A    between atoms: C_6  and  C_7
REMARK    3  A    between atoms: C_8  and  C_9
REMARK    4  A    between atoms: C_9  and  C_11
REMARK    5  A    between atoms: C_14  and  S_17
REMARK    6  A    between atoms: S_17  and  N_20
REMARK    7  A    between atoms: N_20  and  C_21
REMARK    8  A    between atoms: C_24  and  C_27
REMARK                            x       y       z     vdW  Elec       q    Type
REMARK                         _______ _______ _______ _____ _____    ______ ____
ROOT
ATOM      1  C   UNL     1       2.552  -1.040   3.736  0.00  0.00    +0.022 A 
ATOM      2  C   UNL     1       1.158  -1.014   3.816  0.00  0.00    +0.013 A 
ATOM      3  C   UNL     1       0.412  -0.697   2.700  0.00  0.00    +0.029 A 
ATOM      4  C   UNL     1       1.042  -0.404   1.503  0.00  0.00    +0.109 A 
ATOM      5  C   UNL     1       2.423  -0.433   1.415  0.00  0.00    +0.029 A 
ATOM      6  C   UNL     1       3.181  -0.744   2.525  0.00  0.00    +0.013 A 
ENDROOT
BRANCH   4   7
ATOM      7  S   UNL     1       0.081  -0.000   0.082  0.00  0.00    +0.072 S 
ATOM      8  O   UNL     1      -1.237  -0.465   0.337  0.00  0.00    -0.150 OA
ATOM      9  O   UNL     1       0.832  -0.421  -1.049  0.00  0.00    -0.150 OA
BRANCH   7  10
ATOM     10  N   UNL     1      -0.006   1.652   0.004  0.00  0.00    -0.216 N 
ATOM     11  H   UNL     1       0.380   2.123  -0.751  0.00  0.00    +0.174 HD
BRANCH  10  12
ATOM     12  C   UNL     1      -0.629   2.364   1.022  0.00  0.00    +0.048 A 
ATOM     13  C   UNL     1      -1.858   1.937   1.517  0.00  0.00    +0.025 A 
ATOM     14  C   UNL     1      -2.473   2.634   2.526  0.00  0.00    +0.017 A 
ATOM     15  C   UNL     1      -1.868   3.781   3.049  0.00  0.00    +0.063 A 
ATOM     16  C   UNL     1      -0.635   4.210   2.546  0.00  0.00    +0.017 A 
ATOM     17  C   UNL     1      -0.024   3.505   1.542  0.00  0.00    +0.025 A 
BRANCH  15  18
ATOM     18  C   UNL     1      -2.528   4.536   4.130  0.00  0.00    +0.387 C 
ATOM     19  O   UNL     1      -2.001   5.532   4.584  0.00  0.00    -0.241 OA
ATOM     20  O   UNL     1      -3.715   4.122   4.613  0.00  0.00    -0.241 OA
ENDBRANCH  15  18
ENDBRANCH  10  12
ENDBRANCH   7  10
ENDBRANCH   4   7
BRANCH   1  21
ATOM     21  C   UNL     1       3.358  -1.379   4.928  0.00  0.00    +0.186 C 
ATOM     22  O   UNL     1       2.807  -1.637   5.982  0.00  0.00    -0.287 OA
BRANCH  21  24
ATOM     23  C   UNL     1       5.554  -1.716   5.930  0.00  0.00    +0.012 C 
ATOM     24  C   UNL     1       4.817  -1.405   4.841  0.00  0.00    +0.052 C 
BRANCH  23  30
ATOM     25  C   UNL     1       7.659  -1.452   4.631  0.00  0.00    +0.008 A 
ATOM     26  C   UNL     1       9.036  -1.474   4.558  0.00  0.00    +0.013 A 
ATOM     27  C   UNL     1       9.787  -1.792   5.676  0.00  0.00    +0.055 A 
ATOM     28  C   UNL     1       9.164  -2.085   6.877  0.00  0.00    +0.013 A 
ATOM     29  C   UNL     1       7.788  -2.062   6.968  0.00  0.00    +0.008 A 
ATOM     30  C   UNL     1       7.022  -1.742   5.842  0.00  0.00    -0.025 A 
BRANCH  27  31
ATOM     31  C   UNL     1      11.291  -1.819   5.586  0.00  0.00    +0.417 C 
ATOM     32  F   UNL     1      11.714  -3.102   5.224  0.00  0.00    -0.166 F 
ATOM     33  F   UNL     1      11.717  -0.898   4.622  0.00  0.00    -0.166 F 
ATOM     34  F   UNL     1      11.839  -1.480   6.828  0.00  0.00    -0.166 F 
ENDBRANCH  27  31
ENDBRANCH  23  30
ENDBRANCH  21  24
ENDBRANCH   1  21
TORSDOF 8
