REMARK  Name = ZINC11592558
REMARK  7 active torsions:
REMARK  status: ('A' for Active; 'I' for Inactive)
REMARK    1  A    between atoms: C_1  and  C_2
REMARK    2  A    between atoms: C_15  and  O_30
REMARK    3  A    between atoms: C_18  and  C_29
REMARK    4  A    between atoms: C_23  and  C_24
REMARK    5  A    between atoms: C_23  and  O_28
REMARK    6  A    between atoms: C_24  and  C_26
REMARK    7  A    between atoms: C_26  and  O_27
REMARK                            x       y       z     vdW  Elec       q    Type
REMARK                         _______ _______ _______ _____ _____    ______ ____
ROOT
ATOM      1  C   UNL     1       1.479   3.034   1.236  0.00  0.00    +0.016 C 
ATOM      2  C   UNL     1       1.429   1.721   0.453  0.00  0.00    -0.005 C 
ATOM      3  C   UNL     1       1.996   1.937  -0.952  0.00  0.00    +0.019 C 
ATOM      4  C   UNL     1       3.454   2.392  -0.834  0.00  0.00    +0.080 C 
ATOM      5  C   UNL     1       4.226   1.359  -0.052  0.00  0.00    +0.156 C 
ATOM      6  O   UNL     1       5.418   1.222  -0.239  0.00  0.00    -0.293 OA
ATOM      7  C   UNL     1       3.539   0.524   0.931  0.00  0.00    +0.046 C 
ATOM      8  C   UNL     1       2.241   0.675   1.171  0.00  0.00    -0.060 C 
ATOM      9  C   UNL     1       1.537  -0.201   2.178  0.00  0.00    +0.032 C 
ATOM     10  C   UNL     1       0.434  -0.983   1.477  0.00  0.00    +0.008 C 
ATOM     11  C   UNL     1      -0.061  -0.283   0.216  0.00  0.00    -0.001 C 
ATOM     12  C   UNL     1      -0.024   1.240   0.350  0.00  0.00    +0.031 C 
ATOM     13  C   UNL     1      -0.667   1.947  -0.842  0.00  0.00    +0.119 C 
ATOM     14  C   UNL     1      -2.074   1.418  -1.148  0.00  0.00    +0.041 C 
ATOM     15  C   UNL     1      -1.939  -0.074  -1.390  0.00  0.00    +0.009 C 
ATOM     16  C   UNL     1      -1.500  -0.701  -0.041  0.00  0.00    +0.002 C 
ATOM     17  C   UNL     1      -1.718  -2.195  -0.304  0.00  0.00    +0.008 C 
ATOM     18  C   UNL     1      -3.069  -2.219  -1.071  0.00  0.00    +0.043 C 
ATOM     19  C   UNL     1      -3.227  -0.823  -1.722  0.00  0.00    +0.131 C 
ATOM     20  C   UNL     1      -0.883  -0.350  -2.463  0.00  0.00    +0.015 C 
ENDROOT
BRANCH  19  21
ATOM     21  C   UNL     1      -4.415  -0.105  -1.137  0.00  0.00    +0.190 C 
ATOM     22  O   UNL     1      -4.740  -0.309   0.009  0.00  0.00    -0.292 OA
BRANCH  21  23
ATOM     23  C   UNL     1      -5.199   0.868  -1.980  0.00  0.00    +0.233 C 
BRANCH  23  24
ATOM     24  O   UNL     1      -6.269   1.414  -1.207  0.00  0.00    -0.387 OA
ATOM     25  H   UNL     1      -6.817   2.050  -1.688  0.00  0.00    +0.210 HD
ENDBRANCH  23  24
ENDBRANCH  21  23
ENDBRANCH  19  21
BRANCH  19  26
ATOM     26  O   UNL     1      -3.374  -0.951  -3.138  0.00  0.00    -0.380 OA
ATOM     27  H   UNL     1      -4.155  -1.453  -3.408  0.00  0.00    +0.211 HD
ENDBRANCH  19  26
BRANCH  13  28
ATOM     28  O   UNL     1      -0.750   3.346  -0.559  0.00  0.00    -0.391 OA
ATOM     29  H   UNL     1      -1.148   3.868  -1.269  0.00  0.00    +0.210 HD
ENDBRANCH  13  28
TORSDOF 5
