REMARK  Name = ZINC13027651
REMARK  7 active torsions:
REMARK  status: ('A' for Active; 'I' for Inactive)
REMARK    1  A    between atoms: C_4  and  N_9
REMARK    2  A    between atoms: C_5  and  C_7
REMARK    3  A    between atoms: N_9  and  S_10
REMARK    4  A    between atoms: S_10  and  C_13
REMARK    5  A    between atoms: C_17  and  N_19
REMARK    6  A    between atoms: N_19  and  S_20
REMARK    7  A    between atoms: S_20  and  C_23
REMARK                            x       y       z     vdW  Elec       q    Type
REMARK                         _______ _______ _______ _____ _____    ______ ____
ROOT
ATOM      1  C   UNL     1      -0.104   1.668  -0.059  0.00  0.00    +0.110 A 
ATOM      2  C   UNL     1       1.074   2.389  -0.144  0.00  0.00    +0.029 A 
ATOM      3  C   UNL     1       2.272   1.736  -0.367  0.00  0.00    +0.004 A 
ATOM      4  C   UNL     1       2.297   0.362  -0.507  0.00  0.00    +0.024 A 
ATOM      5  C   UNL     1       1.116  -0.364  -0.423  0.00  0.00    +0.050 A 
ATOM      6  C   UNL     1      -0.086   0.295  -0.198  0.00  0.00    +0.053 A 
ENDROOT
BRANCH   1   7
ATOM      7  S   UNL     1      -1.629   2.506   0.218  0.00  0.00    +0.072 S 
ATOM      8  O   UNL     1      -1.447   3.842  -0.230  0.00  0.00    -0.150 OA
ATOM      9  O   UNL     1      -2.654   1.664  -0.293  0.00  0.00    -0.150 OA
BRANCH   7  10
ATOM     10  N   UNL     1      -1.854   2.583   1.857  0.00  0.00    -0.215 N 
ATOM     11  H   UNL     1      -2.631   2.166   2.260  0.00  0.00    +0.174 HD
BRANCH  10  15
ATOM     12  C   UNL     1       0.920   4.571   4.247  0.00  0.00    +0.001 A 
ATOM     13  C   UNL     1       0.619   5.047   2.980  0.00  0.00    +0.002 A 
ATOM     14  C   UNL     1      -0.295   4.388   2.185  0.00  0.00    +0.025 A 
ATOM     15  C   UNL     1      -0.930   3.245   2.654  0.00  0.00    +0.062 A 
ATOM     16  C   UNL     1      -0.628   2.760   3.937  0.00  0.00    +0.085 A 
ATOM     17  C   UNL     1       0.305   3.437   4.728  0.00  0.00    +0.017 A 
BRANCH  16  18
ATOM     18  C   UNL     1      -1.290   1.546   4.444  0.00  0.00    +0.388 C 
ATOM     19  O   UNL     1      -2.099   0.961   3.753  0.00  0.00    -0.241 OA
ATOM     20  O   UNL     1      -0.996   1.084   5.676  0.00  0.00    -0.241 OA
ENDBRANCH  16  18
ENDBRANCH  10  15
ENDBRANCH   7  10
ENDBRANCH   1   7
BRANCH   5  21
ATOM     21  N   UNL     1       1.137  -1.753  -0.564  0.00  0.00    -0.216 N 
ATOM     22  H   UNL     1       0.647  -2.312   0.059  0.00  0.00    +0.174 HD
BRANCH  21  23
ATOM     23  S   UNL     1       2.000  -2.447  -1.796  0.00  0.00    +0.073 S 
ATOM     24  O   UNL     1       3.314  -1.912  -1.723  0.00  0.00    -0.150 OA
ATOM     25  O   UNL     1       1.741  -3.843  -1.736  0.00  0.00    -0.150 OA
BRANCH  23  26
ATOM     26  C   UNL     1       1.304  -1.871  -3.308  0.00  0.00    +0.114 A 
ATOM     27  C   UNL     1       0.210  -2.515  -3.855  0.00  0.00    +0.067 A 
ATOM     28  C   UNL     1      -0.341  -2.059  -5.041  0.00  0.00    +0.128 A 
ATOM     29  C   UNL     1       0.210  -0.965  -5.684  0.00  0.00    +0.076 A 
ATOM     30  C   UNL     1       1.309  -0.324  -5.139  0.00  0.00    +0.128 A 
ATOM     31  C   UNL     1       1.855  -0.778  -3.950  0.00  0.00    +0.067 A 
ATOM     32  F   UNL     1       1.849   0.744  -5.766  0.00  0.00    -0.205 F 
ATOM     33  F   UNL     1      -1.414  -2.686  -5.572  0.00  0.00    -0.205 F 
ENDBRANCH  23  26
ENDBRANCH  21  23
ENDBRANCH   5  21
TORSDOF 7
