REMARK  Name = ZINC20602324
REMARK  6 active torsions:
REMARK  status: ('A' for Active; 'I' for Inactive)
REMARK    1  A    between atoms: C_6  and  C_7
REMARK    2  A    between atoms: C_10  and  C_29
REMARK    3  A    between atoms: C_15  and  C_17
REMARK    4  A    between atoms: N_19  and  N_20
REMARK    5  A    between atoms: C_21  and  C_22
REMARK    6  A    between atoms: C_29  and  C_30
REMARK                            x       y       z     vdW  Elec       q    Type
REMARK                         _______ _______ _______ _____ _____    ______ ____
ROOT
ATOM      1  C   UNL     1      -0.025   5.494   0.088  0.00  0.00    +0.104 C 
ATOM      2  C   UNL     1      -0.298   6.005   1.507  0.00  0.00    +0.060 C 
ATOM      3  C   UNL     1      -1.669   5.514   1.984  0.00  0.00    +0.189 C 
ATOM      4  N   UNL     1      -2.666   5.815   0.952  0.00  0.00    -0.241 N 
ATOM      5  C   UNL     1      -2.352   6.074  -0.352  0.00  0.00    +0.119 A 
ATOM      6  C   UNL     1      -3.497   6.313  -1.020  0.00  0.00    +0.078 A 
ATOM      7  C   UNL     1      -4.562   6.195  -0.098  0.00  0.00    +0.151 A 
ATOM      8  N   UNL     1      -4.051   5.895   1.083  0.00  0.00    -0.164 NA
ATOM      9  N   UNL     1      -1.035   6.070  -0.821  0.00  0.00    -0.322 N 
ATOM     10  H   UNL     1      -0.731   6.463  -1.802  0.00  0.00    +0.148 HD
ENDROOT
BRANCH   1  16
ATOM     11  C   UNL     1       1.030   3.224   0.080  0.00  0.00    +0.008 A 
ATOM     12  C   UNL     1       0.942   1.845   0.059  0.00  0.00    +0.038 A 
ATOM     13  C   UNL     1      -0.298   1.231   0.022  0.00  0.00    +0.123 A 
ATOM     14  C   UNL     1      -1.450   2.000   0.001  0.00  0.00    +0.038 A 
ATOM     15  C   UNL     1      -1.360   3.378   0.028  0.00  0.00    +0.008 A 
ATOM     16  C   UNL     1      -0.121   3.990   0.065  0.00  0.00    -0.027 A 
ATOM     17  F   UNL     1      -0.385  -0.117   0.000  0.00  0.00    -0.205 F 
ENDBRANCH   1  16
BRANCH   7  18
ATOM     18  C   UNL     1      -5.996   6.376  -0.402  0.00  0.00    +0.283 C 
ATOM     19  O   UNL     1      -6.347   6.652  -1.533  0.00  0.00    -0.267 OA
ATOM     20  N   UNL     1      -6.914   6.235   0.574  0.00  0.00    -0.202 N 
ATOM     21  H   UNL     1      -6.596   5.985   1.597  0.00  0.00    +0.178 HD
BRANCH  20  22
ATOM     22  N   UNL     1      -8.274   6.407   0.285  0.00  0.00    -0.187 NA
ATOM     23  C   UNL     1      -9.159   6.271   1.225  0.00  0.00    +0.138 C 
BRANCH  23  24
ATOM     24  C   UNL     1     -10.591   6.452   0.922  0.00  0.00    -0.003 A 
ATOM     25  C   UNL     1     -11.018   6.776  -0.373  0.00  0.00    +0.029 A 
ATOM     26  C   UNL     1     -12.367   6.931  -0.613  0.00  0.00    +0.111 A 
ATOM     27  N   UNL     1     -13.248   6.788   0.359  0.00  0.00    -0.263 NA
ATOM     28  C   UNL     1     -12.890   6.488   1.593  0.00  0.00    +0.111 A 
ATOM     29  C   UNL     1     -11.563   6.310   1.921  0.00  0.00    +0.029 A 
ENDBRANCH  23  24
ENDBRANCH  20  22
ENDBRANCH   7  18
BRANCH   3  30
ATOM     30  C   UNL     1      -2.046   6.228   3.283  0.00  0.00    +0.363 C 
ATOM     31  F   UNL     1      -1.962   7.612   3.096  0.00  0.00    -0.193 F 
ATOM     32  F   UNL     1      -3.353   5.885   3.642  0.00  0.00    -0.193 F 
BRANCH  30  33
ATOM     33  C   UNL     1      -1.084   5.804   4.395  0.00  0.00    +0.456 C 
ATOM     34  F   UNL     1       0.203   6.266   4.099  0.00  0.00    -0.165 F 
ATOM     35  F   UNL     1      -1.507   6.351   5.612  0.00  0.00    -0.165 F 
ATOM     36  F   UNL     1      -1.068   4.409   4.491  0.00  0.00    -0.165 F 
ENDBRANCH  30  33
ENDBRANCH   3  30
TORSDOF 6
