REMARK  Name = ZINC40719026
REMARK  9 active torsions:
REMARK  status: ('A' for Active; 'I' for Inactive)
REMARK    1  A    between atoms: C_1  and  C_2
REMARK    2  A    between atoms: N_17  and  C_18
REMARK    3  A    between atoms: C_26  and  C_41
REMARK    4  A    between atoms: C_29  and  O_40
REMARK    5  A    between atoms: C_32  and  C_39
REMARK    6  A    between atoms: C_33  and  C_34
REMARK    7  A    between atoms: C_33  and  O_38
REMARK    8  A    between atoms: C_34  and  C_36
REMARK    9  A    between atoms: C_36  and  O_37
REMARK                            x       y       z     vdW  Elec       q    Type
REMARK                         _______ _______ _______ _____ _____    ______ ____
ROOT
ATOM      1  C   UNL     1      -0.432   1.556   0.010  0.00  0.00    +0.011 C 
ATOM      2  C   UNL     1      -0.341   0.029  -0.052  0.00  0.00    +0.026 C 
ATOM      3  C   UNL     1      -1.731  -0.596   0.151  0.00  0.00    +0.011 C 
ATOM      4  C   UNL     1      -1.692  -1.331   1.515  0.00  0.00    +0.002 C 
ATOM      5  C   UNL     1      -2.342  -0.403   2.553  0.00  0.00    -0.001 C 
ATOM      6  C   UNL     1      -3.838  -0.425   2.225  0.00  0.00    +0.008 C 
ATOM      7  C   UNL     1      -4.719  -0.511   3.459  0.00  0.00    +0.031 C 
ATOM      8  C   UNL     1      -4.112   0.346   4.544  0.00  0.00    -0.061 C 
ATOM      9  C   UNL     1      -4.802   1.379   5.021  0.00  0.00    +0.028 C 
ATOM     10  C   UNL     1      -4.156   2.213   6.045  0.00  0.00    +0.071 A 
ATOM     11  C   UNL     1      -2.785   2.115   6.260  0.00  0.00    -0.001 A 
ATOM     12  C   UNL     1      -2.458   2.990   7.277  0.00  0.00    +0.139 A 
ATOM     13  N   UNL     1      -3.551   3.614   7.659  0.00  0.00    -0.174 NA
ATOM     14  N   UNL     1      -4.630   3.156   6.883  0.00  0.00    -0.231 N 
ATOM     15  C   UNL     1      -1.924   1.191   5.435  0.00  0.00    +0.050 C 
ATOM     16  C   UNL     1      -2.739  -0.035   5.035  0.00  0.00    -0.001 C 
ATOM     17  C   UNL     1      -2.049  -0.878   3.962  0.00  0.00    +0.031 C 
ATOM     18  C   UNL     1      -0.549  -0.954   4.217  0.00  0.00    +0.119 C 
ATOM     19  C   UNL     1       0.149  -1.851   3.207  0.00  0.00    +0.041 C 
ATOM     20  C   UNL     1      -0.214  -1.610   1.767  0.00  0.00    +0.009 C 
ATOM     21  C   UNL     1       0.569  -0.489   1.080  0.00  0.00    +0.134 C 
ATOM     22  C   UNL     1       0.130  -2.917   1.007  0.00  0.00    +0.015 C 
ATOM     23  C   UNL     1      -2.925  -0.913   6.285  0.00  0.00    +0.016 C 
ENDROOT
BRANCH  14  24
ATOM     24  C   UNL     1      -5.955   3.606   6.967  0.00  0.00    +0.084 A 
ATOM     25  C   UNL     1      -6.499   3.976   8.195  0.00  0.00    +0.032 A 
ATOM     26  C   UNL     1      -7.812   4.414   8.227  0.00  0.00    +0.042 A 
ATOM     27  C   UNL     1      -8.535   4.470   7.048  0.00  0.00    +0.129 A 
ATOM     28  N   UNL     1      -7.989   4.112   5.902  0.00  0.00    -0.241 NA
ATOM     29  C   UNL     1      -6.741   3.696   5.827  0.00  0.00    +0.140 A 
ATOM     30 CL   UNL     1     -10.182   5.019   7.079  0.00  0.00    -0.062 Cl
ENDBRANCH  14  24
BRANCH  21  31
ATOM     31  C   UNL     1       1.845  -1.043   0.488  0.00  0.00    +0.190 C 
ATOM     32  O   UNL     1       1.859  -1.440  -0.652  0.00  0.00    -0.292 OA
BRANCH  31  33
ATOM     33  C   UNL     1       3.100  -1.098   1.320  0.00  0.00    +0.233 C 
BRANCH  33  34
ATOM     34  O   UNL     1       4.162  -1.657   0.544  0.00  0.00    -0.387 OA
ATOM     35  H   UNL     1       5.003  -1.723   1.018  0.00  0.00    +0.210 HD
ENDBRANCH  33  34
ENDBRANCH  31  33
ENDBRANCH  21  31
BRANCH  21  36
ATOM     36  O   UNL     1       0.883   0.579   1.969  0.00  0.00    -0.380 OA
ATOM     37  H   UNL     1       1.365   1.308   1.553  0.00  0.00    +0.211 HD
ENDBRANCH  21  36
BRANCH  18  38
ATOM     38  O   UNL     1       0.071   0.328   4.227  0.00  0.00    -0.391 OA
ATOM     39  H   UNL     1       1.024   0.303   4.387  0.00  0.00    +0.210 HD
ENDBRANCH  18  38
TORSDOF 6
