REMARK  Name = ZINC35455805
REMARK  8 active torsions:
REMARK  status: ('A' for Active; 'I' for Inactive)
REMARK    1  A    between atoms: C_1  and  C_2
REMARK    2  A    between atoms: C_2  and  C_3
REMARK    3  A    between atoms: C_2  and  C_4
REMARK    4  A    between atoms: C_2  and  C_6
REMARK    5  A    between atoms: C_16  and  C_26
REMARK    6  A    between atoms: C_26  and  C_27
REMARK    7  A    between atoms: C_26  and  C_28
REMARK    8  A    between atoms: C_26  and  C_29
REMARK                            x       y       z     vdW  Elec       q    Type
REMARK                         _______ _______ _______ _____ _____    ______ ____
ROOT
ATOM      1  C   UNL     1      -0.502  -1.063  -1.901  0.00  0.00    +0.043 C 
ATOM      2  C   UNL     1       0.125  -0.271  -2.987  0.00  0.00    +0.048 C 
ATOM      3  CA  UNL     1       1.120  -1.259  -3.554  0.00  0.00    +0.165 C 
ATOM      4  C   UNL     1       2.357  -0.898  -4.222  0.00  0.00    +0.238 C 
ATOM      5  O   UNL     1       2.411   0.078  -4.940  0.00  0.00    -0.273 OA
ATOM      6  N   UNL     1       3.449  -1.673  -4.026  0.00  0.00    -0.269 N 
ATOM      7  CA  UNL     1       3.634  -2.581  -2.861  0.00  0.00    +0.165 C 
ATOM      8  C   UNL     1       4.531  -3.748  -3.339  0.00  0.00    +0.048 C 
ATOM      9  C   UNL     1       4.656  -3.477  -4.834  0.00  0.00    +0.043 C 
ATOM     10  C   UNL     1       4.623  -1.890  -4.789  0.00  0.00    +0.173 C 
ATOM     11  N   UNL     1       4.983  -1.609  -6.144  0.00  0.00    -0.325 N 
ATOM     12  C   UNL     1       6.061  -2.491  -6.380  0.00  0.00    +0.032 A 
ATOM     13  C   UNL     1       5.935  -3.642  -5.562  0.00  0.00    -0.016 A 
ATOM     14  C   UNL     1       6.893  -4.630  -5.568  0.00  0.00    +0.006 A 
ATOM     15  C   UNL     1       7.967  -4.473  -6.438  0.00  0.00    +0.000 A 
ATOM     16  C   UNL     1       8.074  -3.375  -7.263  0.00  0.00    +0.002 A 
ATOM     17  C   UNL     1       7.130  -2.359  -7.254  0.00  0.00    +0.023 A 
ATOM     18  C   UNL     1       2.321  -3.088  -2.353  0.00  0.00    +0.238 C 
ATOM     19  O   UNL     1       2.280  -4.076  -1.651  0.00  0.00    -0.273 OA
ATOM     20  N   UNL     1       1.214  -2.415  -2.650  0.00  0.00    -0.269 N 
ATOM     21  C   UNL     1      -0.180  -2.580  -2.247  0.00  0.00    +0.173 C 
ATOM     22  N   UNL     1      -0.506  -3.088  -0.898  0.00  0.00    -0.325 N 
ATOM     23  C   UNL     1      -1.731  -2.445  -0.612  0.00  0.00    +0.032 A 
ATOM     24  C   UNL     1      -1.777  -1.167  -1.245  0.00  0.00    -0.016 A 
ATOM     25  C   UNL     1      -2.901  -0.375  -1.130  0.00  0.00    +0.006 A 
ATOM     26  C   UNL     1      -3.959  -0.851  -0.368  0.00  0.00    +0.000 A 
ATOM     27  C   UNL     1      -3.908  -2.079   0.258  0.00  0.00    +0.002 A 
ATOM     28  C   UNL     1      -2.794  -2.900   0.151  0.00  0.00    +0.023 A 
ATOM     29  H   UNL     1       4.584  -0.968  -6.754  0.00  0.00    +0.148 HD
ATOM     30  H   UNL     1      -0.004  -3.708  -0.347  0.00  0.00    +0.148 HD
ENDROOT
BRANCH   1  32
ATOM     31  C   UNL     1       1.303   0.344  -0.900  0.00  0.00    +0.016 C 
ATOM     32  C   UNL     1       0.490  -0.942  -0.742  0.00  0.00    -0.004 C 
ATOM     33  C   UNL     1       1.434  -2.146  -0.751  0.00  0.00    +0.016 C 
BRANCH  32  34
ATOM     34  C   UNL     1      -0.263  -0.904   0.562  0.00  0.00    -0.027 C 
ATOM     35  C   UNL     1      -1.169   0.019   0.769  0.00  0.00    +0.004 C 
ENDBRANCH  32  34
ENDBRANCH   1  32
BRANCH   9  36
ATOM     36  C   UNL     1       3.485  -4.079  -5.613  0.00  0.00    -0.004 C 
ATOM     37  C   UNL     1       3.739  -3.926  -7.114  0.00  0.00    +0.016 C 
ATOM     38  C   UNL     1       3.351  -5.563  -5.267  0.00  0.00    +0.016 C 
BRANCH  36  39
ATOM     39  C   UNL     1       2.213  -3.360  -5.243  0.00  0.00    -0.027 C 
ATOM     40  C   UNL     1       1.412  -2.920  -6.182  0.00  0.00    +0.004 C 
ENDBRANCH  36  39
ENDBRANCH   9  36
TORSDOF 4
