REMARK  Name = ZINC13121528
REMARK  6 active torsions:
REMARK  status: ('A' for Active; 'I' for Inactive)
REMARK    1  A    between atoms: C_1  and  C_2
REMARK    2  A    between atoms: C_2  and  C_4
REMARK    3  A    between atoms: C_2  and  N_19
REMARK    4  A    between atoms: N_6  and  C_7
REMARK    5  A    between atoms: N_22  and  S_25
REMARK    6  A    between atoms: S_25  and  C_28
REMARK                            x       y       z     vdW  Elec       q    Type
REMARK                         _______ _______ _______ _____ _____    ______ ____
ROOT
ATOM      1  N   UNL     1       0.711  -0.492   1.192  0.00  0.00    -0.289 NA
ATOM      2  C   UNL     1       2.045   0.114   1.289  0.00  0.00    +0.102 C 
ATOM      3  C   UNL     1       2.821  -0.546   2.433  0.00  0.00    +0.125 C 
ATOM      4  N   UNL     1       2.010  -0.463   3.657  0.00  0.00    -0.174 NA
ATOM      5  C   UNL     1       0.615  -0.926   3.600  0.00  0.00    +0.125 C 
ATOM      6  C   UNL     1      -0.074  -0.250   2.410  0.00  0.00    +0.102 C 
ENDROOT
BRANCH   4   7
ATOM      7  S   UNL     1       2.650   0.136   5.062  0.00  0.00    +0.061 S 
ATOM      8  O   UNL     1       1.881  -0.411   6.125  0.00  0.00    -0.153 OA
ATOM      9  O   UNL     1       4.058  -0.037   4.973  0.00  0.00    -0.153 OA
BRANCH   7  10
ATOM     10  C   UNL     1       2.356   1.873   5.070  0.00  0.00    +0.106 A 
ATOM     11  C   UNL     1       3.282   2.737   4.515  0.00  0.00    +0.029 A 
ATOM     12  C   UNL     1       3.046   4.095   4.527  0.00  0.00    +0.006 A 
ATOM     13  C   UNL     1       1.883   4.605   5.092  0.00  0.00    -0.044 A 
ATOM     14  C   UNL     1       0.958   3.745   5.640  0.00  0.00    -0.042 A 
ATOM     15  C   UNL     1       1.197   2.377   5.624  0.00  0.00    +0.032 A 
ATOM     16  C   UNL     1      -0.331   4.225   6.254  0.00  0.00    +0.035 C 
ATOM     17  C   UNL     1      -0.251   5.716   6.574  0.00  0.00    +0.005 C 
ATOM     18  C   UNL     1       0.227   6.456   5.318  0.00  0.00    +0.005 C 
ATOM     19  C   UNL     1       1.693   6.099   5.078  0.00  0.00    +0.035 C 
ENDBRANCH   7  10
ENDBRANCH   4   7
BRANCH   1  21
ATOM     20  C   UNL     1      -0.034   1.520   0.013  0.00  0.00    +0.034 C 
ATOM     21  C   UNL     1      -0.002  -0.009   0.002  0.00  0.00    +0.140 C 
BRANCH  21  22
ATOM     22  C   UNL     1       0.709  -0.488  -1.238  0.00  0.00    +0.234 C 
ATOM     23  O   UNL     1       1.710  -1.165  -1.139  0.00  0.00    -0.274 OA
ATOM     24  N   UNL     1       0.231  -0.164  -2.456  0.00  0.00    -0.284 N 
ATOM     25  H   UNL     1      -0.606   0.320  -2.535  0.00  0.00    +0.155 HD
BRANCH  24  26
ATOM     26  C   UNL     1       0.943  -0.526  -3.606  0.00  0.00    +0.036 A 
ATOM     27  C   UNL     1       0.953   0.318  -4.711  0.00  0.00    +0.025 A 
ATOM     28  C   UNL     1       1.653  -0.033  -5.848  0.00  0.00    +0.029 A 
ATOM     29  C   UNL     1       2.348  -1.232  -5.889  0.00  0.00    +0.067 A 
ATOM     30  C   UNL     1       2.341  -2.082  -4.782  0.00  0.00    +0.069 A 
ATOM     31  C   UNL     1       1.642  -1.724  -3.640  0.00  0.00    +0.051 A 
ATOM     32  N   UNL     1       3.116  -3.190  -5.118  0.00  0.00    -0.306 N 
ATOM     33  H   UNL     1       3.295  -3.952  -4.546  0.00  0.00    +0.170 HD
ATOM     34  C   UNL     1       3.574  -3.022  -6.373  0.00  0.00    +0.325 A 
ATOM     35  O   UNL     1       4.283  -3.809  -6.971  0.00  0.00    -0.247 OA
ATOM     36  N   UNL     1       3.129  -1.850  -6.866  0.00  0.00    -0.306 N 
ATOM     37  H   UNL     1       3.319  -1.497  -7.749  0.00  0.00    +0.170 HD
ENDBRANCH  24  26
ENDBRANCH  21  22
ENDBRANCH   1  21
TORSDOF 5
