REMARK  Name = ZINC39676553
REMARK  13 active torsions:
REMARK  status: ('A' for Active; 'I' for Inactive)
REMARK    1  A    between atoms: C_1  and  C_2
REMARK    2  A    between atoms: C_2  and  C_3
REMARK    3  A    between atoms: C_3  and  C_4
REMARK    4  A    between atoms: C_4  and  C_6
REMARK    5  A    between atoms: C_4  and  C_7
REMARK    6  A    between atoms: C_11  and  C_20
REMARK    7  A    between atoms: N_22  and  C_23
REMARK    8  A    between atoms: C_23  and  C_24
REMARK    9  A    between atoms: C_23  and  C_32
REMARK   10  A    between atoms: C_27  and  O_30
REMARK   11  A    between atoms: O_30  and  C_31
REMARK   12  A    between atoms: C_35  and  O_38
REMARK   13  A    between atoms: O_38  and  C_39
REMARK                            x       y       z     vdW  Elec       q    Type
REMARK                         _______ _______ _______ _____ _____    ______ ____
ROOT
ATOM      1  C   UNL     1       0.835  -7.402  -2.395  0.00  0.00    +0.219 C 
ATOM      2  O   UNL     1       1.916  -7.599  -1.883  0.00  0.00    -0.275 OA
ATOM      3  N   UNL     1      -0.033  -8.421  -2.552  0.00  0.00    -0.304 N 
ATOM      4  H   UNL     1      -0.897  -8.263  -2.962  0.00  0.00    +0.150 HD
ENDROOT
BRANCH   1   9
ATOM      5  C   UNL     1       1.432  -2.532  -2.692  0.00  0.00    +0.218 C 
ATOM      6  O   UNL     1       1.761  -1.758  -3.567  0.00  0.00    -0.275 OA
ATOM      7  N   UNL     1       1.505  -3.861  -2.905  0.00  0.00    -0.300 N 
ATOM      8  C   UNL     1       1.145  -4.952  -1.970  0.00  0.00    +0.121 C 
ATOM      9  C   UNL     1       0.461  -6.017  -2.857  0.00  0.00    +0.100 C 
ATOM     10  C   UNL     1       1.005  -5.756  -4.272  0.00  0.00    -0.004 C 
ATOM     11  C   UNL     1       1.958  -4.561  -4.131  0.00  0.00    +0.115 C 
ATOM     12  C   UNL     1       1.761  -6.979  -4.781  0.00  0.00    -0.010 C 
ATOM     13  C   UNL     1       2.241  -6.718  -6.211  0.00  0.00    -0.082 C 
ATOM     14  N   UNL     1       1.087  -6.437  -7.074  0.00  0.00    +0.379 N 
ATOM     15  C   UNL     1       0.420  -5.206  -6.632  0.00  0.00    -0.082 C 
ATOM     16  C   UNL     1      -0.138  -5.404  -5.220  0.00  0.00    -0.010 C 
ATOM     17  H   UNL     1       1.400  -6.325  -8.026  0.00  0.00    -0.086 HD
ATOM     18  H   UNL     1       0.437  -7.207  -7.024  0.00  0.00    -0.086 HD
BRANCH   5  19
ATOM     19  C   UNL     1       0.941  -2.007  -1.368  0.00  0.00    +0.072 C 
ATOM     20  C   UNL     1       1.855  -2.511  -0.249  0.00  0.00    +0.017 C 
BRANCH  19  21
ATOM     21  C   UNL     1       0.956  -0.477  -1.388  0.00  0.00    +0.012 C 
BRANCH  21  23
ATOM     22  C   UNL     1       0.356   1.586  -0.113  0.00  0.00    +0.004 C 
ATOM     23  C   UNL     1       0.342   0.056  -0.092  0.00  0.00    -0.003 C 
ENDBRANCH  21  23
ENDBRANCH  19  21
ENDBRANCH   5  19
ENDBRANCH   1   9
BRANCH   3  24
ATOM     24  C   UNL     1       0.331  -9.768  -2.104  0.00  0.00    +0.134 C 
BRANCH  24  25
ATOM     25  C   UNL     1       0.012  -9.912  -0.638  0.00  0.00    -0.023 A 
ATOM     26  C   UNL     1      -1.153  -9.369  -0.128  0.00  0.00    +0.009 A 
ATOM     27  C   UNL     1      -1.448  -9.500   1.215  0.00  0.00    +0.046 A 
ATOM     28  C   UNL     1      -0.574 -10.177   2.053  0.00  0.00    +0.120 A 
ATOM     29  C   UNL     1       0.595 -10.721   1.539  0.00  0.00    +0.046 A 
ATOM     30  C   UNL     1       0.882 -10.592   0.194  0.00  0.00    +0.009 A 
BRANCH  28  31
ATOM     31  O   UNL     1      -0.861 -10.306   3.375  0.00  0.00    -0.495 OA
ATOM     32  C   UNL     1       0.085 -11.015   4.178  0.00  0.00    +0.277 C 
ENDBRANCH  28  31
ENDBRANCH  24  25
BRANCH  24  33
ATOM     33  C   UNL     1      -0.452 -10.787  -2.891  0.00  0.00    -0.023 A 
ATOM     34  C   UNL     1      -1.779 -10.553  -3.197  0.00  0.00    +0.009 A 
ATOM     35  C   UNL     1      -2.499 -11.486  -3.918  0.00  0.00    +0.046 A 
ATOM     36  C   UNL     1      -1.888 -12.659  -4.335  0.00  0.00    +0.120 A 
ATOM     37  C   UNL     1      -0.555 -12.892  -4.027  0.00  0.00    +0.046 A 
ATOM     38  C   UNL     1       0.161 -11.954  -3.311  0.00  0.00    +0.009 A 
BRANCH  36  39
ATOM     39  O   UNL     1      -2.593 -13.579  -5.044  0.00  0.00    -0.495 OA
ATOM     40  C   UNL     1      -1.900 -14.764  -5.441  0.00  0.00    +0.277 C 
ENDBRANCH  36  39
ENDBRANCH  24  33
ENDBRANCH   3  24
TORSDOF 9
