REMARK  Name = ZINC39684666
REMARK  10 active torsions:
REMARK  status: ('A' for Active; 'I' for Inactive)
REMARK    1  A    between atoms: C_1  and  C_2
REMARK    2  A    between atoms: C_2  and  C_4
REMARK    3  A    between atoms: C_2  and  N_8
REMARK    4  A    between atoms: C_4  and  C_5
REMARK    5  A    between atoms: C_4  and  C_6
REMARK    6  A    between atoms: C_4  and  C_7
REMARK    7  A    between atoms: C_9  and  C_11
REMARK    8  A    between atoms: C_22  and  C_24
REMARK    9  A    between atoms: C_27  and  O_31
REMARK   10  A    between atoms: O_31  and  C_32
REMARK                            x       y       z     vdW  Elec       q    Type
REMARK                         _______ _______ _______ _____ _____    ______ ____
ROOT
ATOM      1  C   UNL     1       1.232  -1.301  -3.992  0.00  0.00    +0.100 C 
ATOM      2  C   UNL     1       1.628  -2.701  -3.473  0.00  0.00    +0.121 C 
ATOM      3  N   UNL     1       0.553  -3.598  -3.958  0.00  0.00    -0.296 N 
ATOM      4  C   UNL     1       0.251  -3.106  -5.323  0.00  0.00    +0.115 C 
ATOM      5  C   UNL     1       0.330  -1.571  -5.208  0.00  0.00    -0.004 C 
ATOM      6  C   UNL     1      -1.060  -0.987  -4.976  0.00  0.00    -0.010 C 
ATOM      7  C   UNL     1      -1.920  -1.219  -6.221  0.00  0.00    -0.082 C 
ATOM      8  N   UNL     1      -1.287  -0.580  -7.381  0.00  0.00    +0.379 N 
ATOM      9  C   UNL     1       0.010  -1.211  -7.654  0.00  0.00    -0.082 C 
ATOM     10  C   UNL     1       0.952  -0.979  -6.469  0.00  0.00    -0.010 C 
ATOM     11  C   UNL     1      -0.019  -4.629  -3.305  0.00  0.00    +0.247 C 
ATOM     12  O   UNL     1       0.249  -4.833  -2.137  0.00  0.00    -0.270 OA
ATOM     13  H   UNL     1      -1.885  -0.682  -8.188  0.00  0.00    -0.086 HD
ATOM     14  H   UNL     1      -1.149   0.401  -7.190  0.00  0.00    -0.086 HD
ENDROOT
BRANCH  11  15
ATOM     15  C   UNL     1      -0.973  -5.509  -4.008  0.00  0.00    +0.040 A 
ATOM     16  C   UNL     1      -0.965  -5.577  -5.404  0.00  0.00    +0.036 A 
ATOM     17  C   UNL     1      -1.857  -6.400  -6.057  0.00  0.00    +0.085 A 
ATOM     18  C   UNL     1      -2.764  -7.162  -5.329  0.00  0.00    +0.157 A 
ATOM     19  C   UNL     1      -2.775  -7.097  -3.940  0.00  0.00    +0.085 A 
ATOM     20  C   UNL     1      -1.882  -6.281  -3.280  0.00  0.00    +0.036 A 
ATOM     21 CL   UNL     1      -3.910  -8.050  -3.036  0.00  0.00    -0.080 Cl
ATOM     22 CL   UNL     1      -1.848  -6.486  -7.791  0.00  0.00    -0.080 Cl
BRANCH  18  23
ATOM     23  O   UNL     1      -3.642  -7.971  -5.975  0.00  0.00    -0.492 OA
ATOM     24  C   UNL     1      -3.220  -9.312  -6.234  0.00  0.00    +0.277 C 
ENDBRANCH  18  23
ENDBRANCH  11  15
BRANCH   1  26
ATOM     25  N   UNL     1       0.444   0.803  -2.956  0.00  0.00    -0.312 N 
ATOM     26  C   UNL     1       0.471  -0.544  -2.933  0.00  0.00    +0.218 C 
ATOM     27  O   UNL     1      -0.116  -1.148  -2.061  0.00  0.00    -0.275 OA
ATOM     28  H   UNL     1       0.914   1.286  -3.654  0.00  0.00    +0.149 HD
BRANCH  25  30
ATOM     29  C   UNL     1      -1.766   1.647  -2.335  0.00  0.00    +0.028 C 
ATOM     30  C   UNL     1      -0.295   1.538  -1.927  0.00  0.00    +0.075 C 
BRANCH  30  31
ATOM     31  C   UNL     1       0.298   2.940  -1.776  0.00  0.00    -0.020 C 
ATOM     32  C   UNL     1      -0.474   3.708  -0.702  0.00  0.00    +0.012 C 
ATOM     33  C   UNL     1       1.768   2.831  -1.368  0.00  0.00    +0.012 C 
ATOM     34  C   UNL     1       0.193   3.684  -3.109  0.00  0.00    +0.012 C 
ENDBRANCH  30  31
ENDBRANCH  25  30
ENDBRANCH   1  26
TORSDOF 5
