REMARK  Name = ZINC39939031
REMARK  9 active torsions:
REMARK  status: ('A' for Active; 'I' for Inactive)
REMARK    1  A    between atoms: C_1  and  C_2
REMARK    2  A    between atoms: C_2  and  O_3
REMARK    3  A    between atoms: O_3  and  C_4
REMARK    4  A    between atoms: C_4  and  C_6
REMARK    5  A    between atoms: C_7  and  N_36
REMARK    6  A    between atoms: C_21  and  C_35
REMARK    7  A    between atoms: C_28  and  C_33
REMARK    8  A    between atoms: C_28  and  C_34
REMARK    9  A    between atoms: C_30  and  C_32
REMARK                            x       y       z     vdW  Elec       q    Type
REMARK                         _______ _______ _______ _____ _____    ______ ____
ROOT
ATOM      1  C   UNL     1       1.464  -2.349   2.422  0.00  0.00    +0.114 C 
ATOM      2  C   UNL     1       1.478  -3.693   2.590  0.00  0.00    +0.197 C 
ATOM      3  O   UNL     1       2.118  -4.289   3.619  0.00  0.00    -0.429 OA
ATOM      4  C   UNL     1       2.556  -3.487   4.616  0.00  0.00    +0.203 C 
ATOM      5  N   UNL     1       2.452  -3.849   5.855  0.00  0.00    -0.159 NA
ATOM      6  C   UNL     1       2.852  -3.060   6.864  0.00  0.00    +0.183 C 
ATOM      7  S   UNL     1       2.722  -3.631   8.473  0.00  0.00    -0.015 S 
ATOM      8  N   UNL     1       3.352  -1.835   6.643  0.00  0.00    -0.156 NA
ATOM      9  C   UNL     1       3.518  -1.365   5.444  0.00  0.00    +0.252 C 
ATOM     10  O   UNL     1       4.018  -0.127   5.292  0.00  0.00    -0.273 OA
ATOM     11  C   UNL     1       3.167  -2.163   4.222  0.00  0.00    +0.184 C 
ATOM     12  C   UNL     1       2.143  -1.409   3.375  0.00  0.00    +0.130 C 
ATOM     13  C   UNL     1       2.781  -0.269   2.651  0.00  0.00    -0.005 A 
ATOM     14  C   UNL     1       3.769  -0.161   1.697  0.00  0.00    +0.010 A 
ATOM     15  C   UNL     1       4.091   1.123   1.261  0.00  0.00    -0.050 A 
ATOM     16  C   UNL     1       3.459   2.256   1.751  0.00  0.00    +0.009 A 
ATOM     17  C   UNL     1       2.473   2.154   2.703  0.00  0.00    -0.022 A 
ATOM     18  C   UNL     1       2.150   0.868   3.138  0.00  0.00    +0.045 A 
ATOM     19  N   UNL     1       1.178   0.565   4.087  0.00  0.00    -0.264 N 
ATOM     20  C   UNL     1       1.113  -0.761   4.286  0.00  0.00    +0.237 C 
ATOM     21  O   UNL     1       0.369  -1.337   5.051  0.00  0.00    -0.274 OA
ATOM     22  C   UNL     1       0.392   1.641   4.715  0.00  0.00    +0.037 C 
ATOM     23  C   UNL     1       0.322   2.821   3.738  0.00  0.00    +0.033 C 
ATOM     24  C   UNL     1       1.716   3.295   3.316  0.00  0.00    +0.020 C 
ATOM     25  C   UNL     1       1.581   4.425   2.293  0.00  0.00    +0.012 C 
ATOM     26  C   UNL     1       1.070   2.085   6.012  0.00  0.00    +0.032 C 
ATOM     27  C   UNL     1      -1.021   1.138   5.018  0.00  0.00    +0.032 C 
ATOM     28  C   UNL     1       5.166   1.286   0.218  0.00  0.00    +0.044 C 
ENDROOT
BRANCH   2  29
ATOM     29  N   UNL     1       0.818  -4.478   1.683  0.00  0.00    -0.329 N 
ATOM     30  H   UNL     1       0.416  -4.077   0.896  0.00  0.00    +0.145 HD
ATOM     31  H   UNL     1       0.751  -5.435   1.827  0.00  0.00    +0.145 HD
ENDBRANCH   2  29
BRANCH   1  32
ATOM     32  C   UNL     1       0.793  -1.815   1.310  0.00  0.00    +0.341 C 
ATOM     33  O   UNL     1      -0.318  -1.334   1.443  0.00  0.00    -0.245 OA
BRANCH  32  34
ATOM     34  O   UNL     1       1.380  -1.835   0.094  0.00  0.00    -0.462 OA
BRANCH  34  36
ATOM     35  C   UNL     1       1.460  -1.387  -2.280  0.00  0.00    +0.048 C 
ATOM     36  C   UNL     1       0.640  -1.274  -0.993  0.00  0.00    +0.229 C 
ENDBRANCH  34  36
ENDBRANCH  32  34
ENDBRANCH   1  32
TORSDOF 4
