REMARK  Name = ZINC36214563
REMARK  8 active torsions:
REMARK  status: ('A' for Active; 'I' for Inactive)
REMARK    1  A    between atoms: C_6  and  N_7
REMARK    2  A    between atoms: N_7  and  C_8
REMARK    3  A    between atoms: C_8  and  N_10
REMARK    4  A    between atoms: C_13  and  C_16
REMARK    5  A    between atoms: C_16  and  C_18
REMARK    6  A    between atoms: C_16  and  N_24
REMARK    7  A    between atoms: N_20  and  C_21
REMARK    8  A    between atoms: C_25  and  C_27
REMARK                            x       y       z     vdW  Elec       q    Type
REMARK                         _______ _______ _______ _____ _____    ______ ____
ROOT
ATOM      1  C   UNL     1      -5.019  -4.894   2.089  0.00  0.00    +0.162 C 
ENDROOT
BRANCH   1   5
ATOM      2  N   UNL     1      -4.245  -2.452  -1.308  0.00  0.00    -0.312 N 
ATOM      3  C   UNL     1      -4.517  -3.869  -1.588  0.00  0.00    +0.107 C 
ATOM      4  C   UNL     1      -5.207  -4.489  -0.369  0.00  0.00    +0.025 C 
ATOM      5  C   UNL     1      -4.350  -4.247   0.875  0.00  0.00    +0.021 C 
ATOM      6  C   UNL     1      -4.208  -2.742   1.114  0.00  0.00    +0.025 C 
ATOM      7  C   UNL     1      -3.501  -2.102  -0.091  0.00  0.00    +0.107 C 
BRANCH   2   8
ATOM      8  C   UNL     1      -4.667  -1.492  -2.155  0.00  0.00    +0.137 C 
ATOM      9  S   UNL     1      -4.217   0.139  -1.893  0.00  0.00    -0.018 S 
BRANCH   8  10
ATOM     10  N   UNL     1      -5.441  -1.816  -3.209  0.00  0.00    -0.297 N 
ATOM     11  H   UNL     1      -5.768  -2.724  -3.311  0.00  0.00    +0.154 HD
BRANCH  10  17
ATOM     12  C   UNL     1      -4.826   0.084  -4.568  0.00  0.00    +0.026 A 
ATOM     13  C   UNL     1      -5.157   1.044  -5.504  0.00  0.00    +0.040 A 
ATOM     14  C   UNL     1      -6.436   1.083  -6.034  0.00  0.00    +0.124 A 
ATOM     15  C   UNL     1      -7.385   0.161  -5.626  0.00  0.00    +0.040 A 
ATOM     16  C   UNL     1      -7.058  -0.800  -4.690  0.00  0.00    +0.026 A 
ATOM     17  C   UNL     1      -5.776  -0.842  -4.158  0.00  0.00    +0.033 A 
ATOM     18  F   UNL     1      -6.759   2.023  -6.949  0.00  0.00    -0.205 F 
ENDBRANCH  10  17
ENDBRANCH   8  10
ENDBRANCH   2   8
ENDBRANCH   1   5
BRANCH   1  19
ATOM     19  C   UNL     1      -5.129  -6.381   1.868  0.00  0.00    +0.234 C 
ATOM     20  O   UNL     1      -6.214  -6.886   1.669  0.00  0.00    -0.274 OA
ATOM     21  N   UNL     1      -4.022  -7.150   1.892  0.00  0.00    -0.311 N 
ATOM     22  H   UNL     1      -3.166  -6.759   2.125  0.00  0.00    +0.149 HD
BRANCH  21  23
ATOM     23  C   UNL     1      -4.113  -8.575   1.567  0.00  0.00    +0.073 C 
ATOM     24  C   UNL     1      -3.346  -9.553   2.459  0.00  0.00    +0.024 C 
ATOM     25  C   UNL     1      -2.851  -9.261   1.041  0.00  0.00    +0.024 C 
ENDBRANCH  21  23
ENDBRANCH   1  19
BRANCH   1  26
ATOM     26  N   UNL     1      -6.358  -4.327   2.269  0.00  0.00    -0.300 N 
ATOM     27  C   UNL     1      -6.935  -4.335   3.487  0.00  0.00    +0.245 C 
ATOM     28  O   UNL     1      -6.345  -4.813   4.436  0.00  0.00    -0.270 OA
ATOM     29  H   UNL     1      -6.829  -3.946   1.512  0.00  0.00    +0.150 HD
BRANCH  27  30
ATOM     30  C   UNL     1      -8.284  -3.764   3.668  0.00  0.00    +0.040 A 
ATOM     31  C   UNL     1      -8.966  -3.219   2.578  0.00  0.00    +0.017 A 
ATOM     32  C   UNL     1     -10.225  -2.687   2.748  0.00  0.00    +0.050 A 
ATOM     33  C   UNL     1     -10.820  -2.689   4.003  0.00  0.00    +0.166 A 
ATOM     34  C   UNL     1     -10.144  -3.231   5.097  0.00  0.00    +0.167 A 
ATOM     35  C   UNL     1      -8.884  -3.771   4.930  0.00  0.00    +0.062 A 
ATOM     36  O   UNL     1     -10.937  -3.111   6.202  0.00  0.00    -0.453 OA
ATOM     37  C   UNL     1     -11.930  -2.127   5.857  0.00  0.00    +0.466 C 
ATOM     38  O   UNL     1     -12.034  -2.233   4.425  0.00  0.00    -0.453 OA
ENDBRANCH  27  30
ENDBRANCH   1  26
TORSDOF 8
