REMARK  Name = ZINC00285972
REMARK  8 active torsions:
REMARK  status: ('A' for Active; 'I' for Inactive)
REMARK    1  A    between atoms: C_1  and  O_2
REMARK    2  A    between atoms: O_2  and  C_3
REMARK    3  A    between atoms: C_6  and  C_11
REMARK    4  A    between atoms: C_7  and  O_9
REMARK    5  A    between atoms: O_9  and  C_10
REMARK    6  A    between atoms: C_13  and  C_23
REMARK    7  A    between atoms: C_18  and  N_22
REMARK    8  A    between atoms: C_19  and  C_20
REMARK                            x       y       z     vdW  Elec       q    Type
REMARK                         _______ _______ _______ _____ _____    ______ ____
ROOT
ATOM      1  C   UNL     1       2.593  -2.541   4.316  0.00  0.00    +0.089 C 
ATOM      2  C   UNL     1       1.859  -2.182   5.602  0.00  0.00    +0.159 C 
ATOM      3  C   UNL     1       2.635  -2.742   6.782  0.00  0.00    +0.089 C 
ATOM      4  N   UNL     1       2.140  -3.645   7.564  0.00  0.00    -0.296 NA
ATOM      5  S   UNL     1       4.263  -2.079   7.018  0.00  0.00    -0.058 S 
ATOM      6  C   UNL     1       4.843  -1.947   5.355  0.00  0.00    +0.079 C 
ATOM      7  C   UNL     1       4.025  -2.143   4.307  0.00  0.00    +0.066 C 
ATOM      8  H   UNL     1       1.246  -3.986   7.406  0.00  0.00    +0.187 HD
ENDROOT
BRANCH   1  12
ATOM      9  C   UNL     1       0.626  -0.618   1.042  0.00  0.00    +0.124 A 
ATOM     10  C   UNL     1       1.202   0.139   2.051  0.00  0.00    +0.046 A 
ATOM     11  C   UNL     1       1.837  -0.484   3.108  0.00  0.00    +0.011 A 
ATOM     12  C   UNL     1       1.899  -1.864   3.163  0.00  0.00    +0.004 A 
ATOM     13  C   UNL     1       1.324  -2.626   2.156  0.00  0.00    +0.127 A 
ATOM     14  C   UNL     1       0.682  -2.002   1.097  0.00  0.00    +0.091 A 
BRANCH   9  16
ATOM     15  C   UNL     1      -0.017   1.425   0.010  0.00  0.00    +0.277 C 
ATOM     16  O   UNL     1       0.002  -0.004   0.002  0.00  0.00    -0.495 OA
ENDBRANCH   9  16
BRANCH  13  17
ATOM     17  O   UNL     1       1.386  -3.982   2.210  0.00  0.00    -0.495 OA
ATOM     18  C   UNL     1       0.773  -4.703   1.139  0.00  0.00    +0.277 C 
ENDBRANCH  13  17
ENDBRANCH   1  12
BRANCH   6  19
ATOM     19  N   UNL     1       6.162  -1.633   5.128  0.00  0.00    -0.352 N 
ATOM     20  H   UNL     1       6.761  -1.487   5.877  0.00  0.00    +0.143 HD
ATOM     21  H   UNL     1       6.493  -1.557   4.220  0.00  0.00    +0.143 HD
ENDBRANCH   6  19
BRANCH   7  22
ATOM     22  C   UNL     1       4.611  -1.947   3.016  0.00  0.00    +0.098 C 
ATOM     23  N   UNL     1       5.075  -1.791   1.991  0.00  0.00    -0.191 NA
ENDBRANCH   7  22
BRANCH   2  24
ATOM     24  C   UNL     1       1.761  -0.718   5.721  0.00  0.00    +0.074 C 
ATOM     25  N   UNL     1       1.686   0.411   5.814  0.00  0.00    -0.196 NA
ENDBRANCH   2  24
TORSDOF 6
