REMARK  Name = ZINC39688581
REMARK  7 active torsions:
REMARK  status: ('A' for Active; 'I' for Inactive)
REMARK    1  A    between atoms: C_1  and  C_2
REMARK    2  A    between atoms: C_4  and  C_9
REMARK    3  A    between atoms: C_13  and  C_22
REMARK    4  A    between atoms: N_24  and  C_25
REMARK    5  A    between atoms: C_25  and  C_27
REMARK    6  A    between atoms: C_25  and  C_28
REMARK    7  A    between atoms: C_28  and  C_29
REMARK                            x       y       z     vdW  Elec       q    Type
REMARK                         _______ _______ _______ _____ _____    ______ ____
ROOT
ATOM      1  C   UNL     1      -0.005  -2.833  -2.582  0.00  0.00    +0.247 C 
ATOM      2  O   UNL     1      -0.138  -2.260  -3.646  0.00  0.00    -0.270 OA
ATOM      3  N   UNL     1       0.127  -4.174  -2.551  0.00  0.00    -0.296 N 
ATOM      4  C   UNL     1       0.168  -5.055  -1.360  0.00  0.00    +0.121 C 
ATOM      5  C   UNL     1      -0.645  -6.304  -1.770  0.00  0.00    +0.100 C 
ATOM      6  C   UNL     1      -0.576  -6.329  -3.306  0.00  0.00    -0.004 C 
ATOM      7  C   UNL     1       0.258  -5.101  -3.700  0.00  0.00    +0.115 C 
ATOM      8  C   UNL     1       0.106  -7.608  -3.784  0.00  0.00    -0.010 C 
ATOM      9  C   UNL     1       0.110  -7.638  -5.315  0.00  0.00    -0.082 C 
ATOM     10  N   UNL     1      -1.270  -7.581  -5.811  0.00  0.00    +0.379 N 
ATOM     11  C   UNL     1      -1.888  -6.306  -5.426  0.00  0.00    -0.082 C 
ATOM     12  C   UNL     1      -1.978  -6.221  -3.900  0.00  0.00    -0.010 C 
ATOM     13  H   UNL     1      -1.268  -7.662  -6.817  0.00  0.00    -0.086 HD
ATOM     14  H   UNL     1      -1.800  -8.343  -5.416  0.00  0.00    -0.086 HD
ENDROOT
BRANCH   1  18
ATOM     15  C   UNL     1      -1.139   1.312  -0.048  0.00  0.00    +0.045 C 
ATOM     16  C   UNL     1      -0.532  -0.066  -0.099  0.00  0.00    -0.036 A 
ATOM     17  C   UNL     1      -0.551  -0.783  -1.277  0.00  0.00    +0.017 A 
ATOM     18  C   UNL     1       0.013  -2.059  -1.323  0.00  0.00    +0.037 A 
ATOM     19  C   UNL     1       0.592  -2.602  -0.175  0.00  0.00    +0.014 A 
ATOM     20  C   UNL     1       0.605  -1.875   0.997  0.00  0.00    +0.016 A 
ATOM     21  C   UNL     1       0.050  -0.607   1.035  0.00  0.00    +0.021 A 
ATOM     22 BR   UNL     1       0.078   0.386   2.644  0.00  0.00    -0.050 Br
ENDBRANCH   1  18
BRANCH   5  23
ATOM     23  C   UNL     1      -2.074  -6.175  -1.309  0.00  0.00    +0.218 C 
ATOM     24  O   UNL     1      -2.604  -5.084  -1.274  0.00  0.00    -0.275 OA
ATOM     25  N   UNL     1      -2.763  -7.271  -0.935  0.00  0.00    -0.312 N 
ATOM     26  H   UNL     1      -2.339  -8.143  -0.962  0.00  0.00    +0.149 HD
BRANCH  25  27
ATOM     27  C   UNL     1      -4.152  -7.146  -0.486  0.00  0.00    +0.074 C 
ATOM     28  C   UNL     1      -4.177  -6.801   1.004  0.00  0.00    +0.028 C 
BRANCH  27  29
ATOM     29  C   UNL     1      -4.883  -8.470  -0.716  0.00  0.00    +0.057 C 
BRANCH  29  30
ATOM     30  C   UNL     1      -4.965  -8.748  -2.194  0.00  0.00    -0.045 A 
ATOM     31  C   UNL     1      -6.043  -8.286  -2.925  0.00  0.00    +0.006 A 
ATOM     32  C   UNL     1      -6.120  -8.540  -4.282  0.00  0.00    +0.038 A 
ATOM     33  C   UNL     1      -5.116  -9.259  -4.908  0.00  0.00    +0.123 A 
ATOM     34  C   UNL     1      -4.036  -9.722  -4.175  0.00  0.00    +0.038 A 
ATOM     35  C   UNL     1      -3.960  -9.462  -2.820  0.00  0.00    +0.006 A 
ATOM     36  F   UNL     1      -5.189  -9.509  -6.234  0.00  0.00    -0.205 F 
ENDBRANCH  29  30
ENDBRANCH  27  29
ENDBRANCH  25  27
ENDBRANCH   5  23
TORSDOF 5
