REMARK  Name = ZINC33058266
REMARK  8 active torsions:
REMARK  status: ('A' for Active; 'I' for Inactive)
REMARK    1  A    between atoms: C_1  and  C_2
REMARK    2  A    between atoms: C_5  and  C_8
REMARK    3  A    between atoms: C_8  and  C_10
REMARK    4  A    between atoms: C_11  and  N_32
REMARK    5  A    between atoms: C_12  and  S_23
REMARK    6  A    between atoms: C_13  and  N_15
REMARK    7  A    between atoms: N_15  and  C_16
REMARK    8  A    between atoms: S_23  and  C_26
REMARK                            x       y       z     vdW  Elec       q    Type
REMARK                         _______ _______ _______ _____ _____    ______ ____
ROOT
ATOM      1  C   UNL     1       3.513   0.129  -0.488  0.00  0.00    +0.084 A 
ATOM      2  C   UNL     1       2.342  -0.638  -0.438  0.00  0.00    +0.070 A 
ATOM      3  C   UNL     1       1.137   0.018  -0.463  0.00  0.00    +0.143 A 
ATOM      4  C   UNL     1       1.129   1.397  -0.537  0.00  0.00    +0.098 A 
ATOM      5  S   UNL     1       2.869   1.791  -0.572  0.00  0.00    -0.066 S 
ENDROOT
BRANCH   3   6
ATOM      6  S   UNL     1      -0.376  -0.885  -0.403  0.00  0.00    +0.029 S 
ATOM      7  O   UNL     1      -0.095  -2.102   0.275  0.00  0.00    -0.164 OA
ATOM      8  O   UNL     1      -1.373   0.023   0.043  0.00  0.00    -0.164 OA
BRANCH   6   9
ATOM      9  C   UNL     1      -0.792  -1.316  -2.060  0.00  0.00    +0.094 A 
ATOM     10  C   UNL     1      -1.574  -0.466  -2.819  0.00  0.00    +0.027 A 
ATOM     11  C   UNL     1      -1.897  -0.802  -4.121  0.00  0.00    +0.002 A 
ATOM     12  C   UNL     1      -1.446  -1.992  -4.660  0.00  0.00    +0.000 A 
ATOM     13  C   UNL     1      -0.668  -2.845  -3.898  0.00  0.00    +0.002 A 
ATOM     14  C   UNL     1      -0.341  -2.506  -2.599  0.00  0.00    +0.027 A 
ENDBRANCH   6   9
ENDBRANCH   3   6
BRANCH   2  15
ATOM     15  N   UNL     1       2.399  -2.025  -0.365  0.00  0.00    -0.355 N 
ATOM     16  H   UNL     1       1.469  -2.613  -0.327  0.00  0.00    +0.142 HD
ATOM     17  H   UNL     1       3.373  -2.536  -0.346  0.00  0.00    +0.142 HD
ENDBRANCH   2  15
BRANCH   1  18
ATOM     18  C   UNL     1       4.852  -0.301  -0.477  0.00  0.00    +0.202 C 
ATOM     19  O   UNL     1       5.112  -1.480  -0.305  0.00  0.00    -0.286 OA
BRANCH  18  24
ATOM     20  C   UNL     1       9.102   3.505  -1.238  0.00  0.00    +0.044 C 
ATOM     21  C   UNL     1       7.989   2.509  -1.039  0.00  0.00    -0.050 A 
ATOM     22  C   UNL     1       6.719   2.792  -1.509  0.00  0.00    +0.004 A 
ATOM     23  C   UNL     1       5.696   1.883  -1.329  0.00  0.00    +0.012 A 
ATOM     24  C   UNL     1       5.945   0.678  -0.673  0.00  0.00    +0.023 A 
ATOM     25  C   UNL     1       7.227   0.401  -0.196  0.00  0.00    +0.012 A 
ATOM     26  C   UNL     1       8.242   1.315  -0.387  0.00  0.00    +0.004 A 
ENDBRANCH  18  24
ENDBRANCH   1  18
BRANCH   4  27
ATOM     27  N   UNL     1       0.045   2.256  -0.579  0.00  0.00    -0.307 N 
ATOM     28  H   UNL     1      -0.976   1.851  -0.649  0.00  0.00    +0.153 HD
BRANCH  27  29
ATOM     29  C   UNL     1       0.246   3.638  -0.532  0.00  0.00    +0.033 A 
ATOM     30  C   UNL     1       1.280   4.165   0.233  0.00  0.00    +0.023 A 
ATOM     31  C   UNL     1       1.481   5.530   0.273  0.00  0.00    +0.003 A 
ATOM     32  C   UNL     1       0.647   6.375  -0.438  0.00  0.00    +0.020 A 
ATOM     33  C   UNL     1      -0.388   5.854  -1.195  0.00  0.00    +0.043 A 
ATOM     34  C   UNL     1      -0.590   4.487  -1.244  0.00  0.00    +0.043 A 
ATOM     35 CL   UNL     1      -1.432   6.918  -2.085  0.00  0.00    -0.083 Cl
ENDBRANCH  27  29
ENDBRANCH   4  27
TORSDOF 7
