REMARK  Name = ZINC35729422
REMARK  8 active torsions:
REMARK  status: ('A' for Active; 'I' for Inactive)
REMARK    1  A    between atoms: C_1  and  C_2
REMARK    2  A    between atoms: C_6  and  C_38
REMARK    3  A    between atoms: C_7  and  N_8
REMARK    4  A    between atoms: N_11  and  C_12
REMARK    5  A    between atoms: C_12  and  C_14
REMARK    6  A    between atoms: C_12  and  C_21
REMARK    7  A    between atoms: C_14  and  C_15
REMARK    8  A    between atoms: C_27  and  C_29
REMARK                            x       y       z     vdW  Elec       q    Type
REMARK                         _______ _______ _______ _____ _____    ______ ____
ROOT
ATOM      1  C   UNL     1      -0.465  -0.597   5.931  0.00  0.00    +0.165 C 
ENDROOT
BRANCH   1   2
ATOM      2  C   UNL     1      -1.278   0.197   6.921  0.00  0.00    +0.239 C 
ATOM      3  O   UNL     1      -1.627   1.327   6.651  0.00  0.00    -0.273 OA
ATOM      4  N   UNL     1      -1.616  -0.348   8.106  0.00  0.00    -0.262 N 
ATOM      5  C   UNL     1      -2.366   0.384   9.019  0.00  0.00    +0.188 A 
ATOM      6  N   UNL     1      -2.852   1.615   8.930  0.00  0.00    -0.125 NA
ATOM      7  N   UNL     1      -3.521   2.136   9.863  0.00  0.00    -0.140 NA
ATOM      8  C   UNL     1      -3.779   1.484  10.991  0.00  0.00    +0.134 A 
ATOM      9  S   UNL     1      -2.957  -0.069  10.648  0.00  0.00    -0.030 S 
ATOM     10  H   UNL     1      -1.337  -1.252   8.321  0.00  0.00    +0.157 HD
BRANCH   8  11
ATOM     11  C   UNL     1      -4.535   1.915  12.186  0.00  0.00    +0.013 A 
ATOM     12  C   UNL     1      -4.675   1.051  13.273  0.00  0.00    +0.014 A 
ATOM     13  C   UNL     1      -5.380   1.455  14.388  0.00  0.00    +0.050 A 
ATOM     14  C   UNL     1      -5.951   2.719  14.433  0.00  0.00    +0.166 A 
ATOM     15  C   UNL     1      -5.814   3.586  13.350  0.00  0.00    +0.167 A 
ATOM     16  C   UNL     1      -5.104   3.188  12.232  0.00  0.00    +0.060 A 
ATOM     17  O   UNL     1      -6.460   4.753  13.641  0.00  0.00    -0.453 OA
ATOM     18  C   UNL     1      -7.338   4.442  14.740  0.00  0.00    +0.466 C 
ATOM     19  O   UNL     1      -6.682   3.344  15.401  0.00  0.00    -0.453 OA
ENDBRANCH   8  11
ENDBRANCH   1   2
BRANCH   1  23
ATOM     20  N   UNL     1      -0.159   0.398   2.405  0.00  0.00    -0.269 N 
ATOM     21  C   UNL     1      -0.280  -0.361   3.512  0.00  0.00    +0.304 C 
ATOM     22  O   UNL     1      -0.434  -1.563   3.411  0.00  0.00    -0.252 OA
ATOM     23  N   UNL     1      -0.231   0.212   4.731  0.00  0.00    -0.288 N 
ATOM     24  H   UNL     1       0.015   1.349   2.486  0.00  0.00    +0.156 HD
ATOM     25  H   UNL     1      -0.042   1.159   4.814  0.00  0.00    +0.151 HD
BRANCH  20  32
ATOM     26  C   UNL     1       1.775   1.060   0.425  0.00  0.00    +0.045 C 
ATOM     27  C   UNL     1       0.639   0.110   0.144  0.00  0.00    -0.029 A 
ATOM     28  C   UNL     1       0.517  -0.473  -1.103  0.00  0.00    +0.005 A 
ATOM     29  C   UNL     1      -0.525  -1.344  -1.361  0.00  0.00    +0.001 A 
ATOM     30  C   UNL     1      -1.448  -1.636  -0.374  0.00  0.00    +0.005 A 
ATOM     31  C   UNL     1      -1.332  -1.057   0.874  0.00  0.00    -0.029 A 
ATOM     32  C   UNL     1      -0.283  -0.186   1.139  0.00  0.00    +0.041 A 
ATOM     33  C   UNL     1      -2.339  -1.374   1.950  0.00  0.00    +0.045 C 
ENDBRANCH  20  32
ENDBRANCH   1  23
BRANCH   1  34
ATOM     34  C   UNL     1       0.877  -0.976   6.560  0.00  0.00    +0.067 C 
BRANCH  34  35
ATOM     35  C   UNL     1       1.627  -1.893   5.629  0.00  0.00    -0.045 A 
ATOM     36  C   UNL     1       1.362  -3.250   5.634  0.00  0.00    +0.004 A 
ATOM     37  C   UNL     1       2.049  -4.092   4.780  0.00  0.00    +0.000 A 
ATOM     38  C   UNL     1       3.002  -3.577   3.921  0.00  0.00    +0.000 A 
ATOM     39  C   UNL     1       3.267  -2.221   3.915  0.00  0.00    +0.000 A 
ATOM     40  C   UNL     1       2.576  -1.378   4.766  0.00  0.00    +0.004 A 
ENDBRANCH  34  35
ENDBRANCH   1  34
TORSDOF 6
