REMARK  Name = ZINC14544862
REMARK  5 active torsions:
REMARK  status: ('A' for Active; 'I' for Inactive)
REMARK    1  A    between atoms: C_4  and  C_7
REMARK    2  A    between atoms: C_7  and  N_8
REMARK    3  A    between atoms: N_8  and  S_9
REMARK    4  A    between atoms: S_9  and  C_12
REMARK    5  A    between atoms: C_25  and  C_28
REMARK                            x       y       z     vdW  Elec       q    Type
REMARK                         _______ _______ _______ _____ _____    ______ ____
ROOT
ATOM      1  C   UNL     1      -3.174   9.408  -1.484  0.00  0.00    +0.106 A 
ATOM      2  C   UNL     1      -3.076   9.586  -0.116  0.00  0.00    +0.030 A 
ATOM      3  C   UNL     1      -2.047   8.985   0.581  0.00  0.00    +0.025 A 
ATOM      4  C   UNL     1      -1.114   8.206  -0.093  0.00  0.00    +0.031 A 
ATOM      5  C   UNL     1      -1.205   8.030  -1.462  0.00  0.00    -0.018 A 
ATOM      6  C   UNL     1      -2.246   8.636  -2.153  0.00  0.00    +0.034 A 
ATOM      7  C   UNL     1      -0.222   7.204  -2.248  0.00  0.00    +0.049 C 
ATOM      8  C   UNL     1       0.425   8.121  -3.277  0.00  0.00    -0.023 C 
ATOM      9  C   UNL     1       1.573   8.569  -2.833  0.00  0.00    -0.030 C 
ATOM     10  C   UNL     1       1.859   8.015  -1.448  0.00  0.00    +0.033 C 
ATOM     11  C   UNL     1       0.975   6.747  -1.394  0.00  0.00    +0.029 C 
ATOM     12  C   UNL     1       0.571   6.426   0.033  0.00  0.00    +0.107 C 
ATOM     13  N   UNL     1      -0.084   7.596   0.631  0.00  0.00    -0.336 N 
ATOM     14  H   UNL     1       0.188   7.934   1.499  0.00  0.00    +0.147 HD
ENDROOT
BRANCH  12  15
ATOM     15  C   UNL     1      -0.384   5.261   0.035  0.00  0.00    -0.002 A 
ATOM     16  C   UNL     1      -1.724   5.326   0.048  0.00  0.00    +0.089 A 
ATOM     17  N   UNL     1      -2.254   4.064   0.045  0.00  0.00    -0.360 N 
ATOM     18  H   UNL     1      -3.201   3.858   0.053  0.00  0.00    +0.165 HD
ATOM     19  C   UNL     1      -1.240   3.132   0.031  0.00  0.00    +0.047 A 
ATOM     20  C   UNL     1      -0.025   3.840   0.023  0.00  0.00    +0.005 A 
ATOM     21  C   UNL     1       1.186   3.146   0.008  0.00  0.00    +0.010 A 
ATOM     22  C   UNL     1       1.184   1.779   0.000  0.00  0.00    +0.001 A 
ATOM     23  C   UNL     1      -0.013   1.076   0.008  0.00  0.00    +0.002 A 
ATOM     24  C   UNL     1      -1.219   1.742   0.017  0.00  0.00    +0.026 A 
ENDBRANCH  12  15
BRANCH   1  25
ATOM     25  S   UNL     1      -4.488  10.170  -2.376  0.00  0.00    +0.059 S 
ATOM     26  O   UNL     1      -4.910  11.286  -1.603  0.00  0.00    -0.153 OA
ATOM     27  O   UNL     1      -4.046  10.298  -3.720  0.00  0.00    -0.153 OA
BRANCH  25  28
ATOM     28  N   UNL     1      -5.753   9.101  -2.394  0.00  0.00    -0.186 NA
ATOM     29  H   UNL     1      -6.052   8.718  -3.233  0.00  0.00    +0.148 HD
BRANCH  28  30
ATOM     30  C   UNL     1      -6.419   8.734  -1.142  0.00  0.00    +0.141 C 
BRANCH  30  34
ATOM     31  C   UNL     1     -10.143   6.832  -2.015  0.00  0.00    +0.000 A 
ATOM     32  C   UNL     1      -8.992   6.075  -1.894  0.00  0.00    +0.000 A 
ATOM     33  C   UNL     1      -7.787   6.691  -1.611  0.00  0.00    +0.005 A 
ATOM     34  C   UNL     1      -7.733   8.063  -1.450  0.00  0.00    -0.032 A 
ATOM     35  C   UNL     1      -8.885   8.819  -1.566  0.00  0.00    +0.005 A 
ATOM     36  C   UNL     1     -10.089   8.203  -1.853  0.00  0.00    +0.000 A 
ENDBRANCH  30  34
ENDBRANCH  28  30
ENDBRANCH  25  28
ENDBRANCH   1  25
TORSDOF 5
