REMARK  Name = ZINC01145028
REMARK  10 active torsions:
REMARK  status: ('A' for Active; 'I' for Inactive)
REMARK    1  A    between atoms: C_1  and  C_2
REMARK    2  A    between atoms: C_3  and  C_23
REMARK    3  A    between atoms: C_4  and  C_16
REMARK    4  A    between atoms: C_6  and  C_14
REMARK    5  A    between atoms: C_7  and  S_9
REMARK    6  A    between atoms: S_9  and  C_10
REMARK    7  A    between atoms: C_10  and  C_11
REMARK    8  A    between atoms: C_23  and  O_25
REMARK    9  A    between atoms: O_25  and  C_26
REMARK   10  A    between atoms: C_26  and  C_27
REMARK                            x       y       z     vdW  Elec       q    Type
REMARK                         _______ _______ _______ _____ _____    ______ ____
ROOT
ATOM      1  C   UNL     1      -0.018   1.503   0.010  0.00  0.00    +0.061 C 
ATOM      2  C   UNL     1       0.002  -0.004   0.002  0.00  0.00    +0.016 C 
ATOM      3  C   UNL     1      -1.159  -0.681   0.004  0.00  0.00    +0.066 C 
ATOM      4  C   UNL     1      -1.197  -2.183   0.005  0.00  0.00    +0.100 C 
ATOM      5  C   UNL     1       0.137  -2.751  -0.388  0.00  0.00    +0.069 C 
ATOM      6  C   UNL     1       1.262  -1.987  -0.375  0.00  0.00    +0.080 C 
ATOM      7  N   UNL     1       1.201  -0.661  -0.013  0.00  0.00    -0.312 N 
ATOM      8  H   UNL     1       2.013  -0.192   0.236  0.00  0.00    +0.152 HD
ENDROOT
BRANCH   4   9
ATOM      9  C   UNL     1      -1.554  -2.668   1.387  0.00  0.00    -0.035 A 
ATOM     10  C   UNL     1      -0.748  -2.345   2.462  0.00  0.00    +0.006 A 
ATOM     11  C   UNL     1      -1.075  -2.790   3.729  0.00  0.00    +0.020 A 
ATOM     12  C   UNL     1      -2.209  -3.559   3.921  0.00  0.00    +0.041 A 
ATOM     13  C   UNL     1      -3.015  -3.882   2.844  0.00  0.00    +0.020 A 
ATOM     14  C   UNL     1      -2.690  -3.432   1.578  0.00  0.00    +0.006 A 
ATOM     15 CL   UNL     1      -2.620  -4.119   5.512  0.00  0.00    -0.084 Cl
ENDBRANCH   4   9
BRANCH   5  16
ATOM     16  C   UNL     1       0.226  -4.125  -0.783  0.00  0.00    +0.098 C 
ATOM     17  N   UNL     1       0.297  -5.215  -1.097  0.00  0.00    -0.191 NA
ENDBRANCH   5  16
BRANCH   3  18
ATOM     18  C   UNL     1      -2.375   0.038   0.005  0.00  0.00    +0.338 C 
ATOM     19  O   UNL     1      -2.363   1.255   0.004  0.00  0.00    -0.245 OA
BRANCH  18  20
ATOM     20  O   UNL     1      -3.551  -0.625   0.007  0.00  0.00    -0.457 OA
BRANCH  20  21
ATOM     21  C   UNL     1      -4.741   0.166   0.008  0.00  0.00    +0.268 C 
BRANCH  21  22
ATOM     22  C   UNL     1      -5.946  -0.740   0.010  0.00  0.00    -0.010 A 
ATOM     23  C   UNL     1      -6.496  -1.160  -1.186  0.00  0.00    +0.007 A 
ATOM     24  C   UNL     1      -7.601  -1.991  -1.184  0.00  0.00    +0.000 A 
ATOM     25  C   UNL     1      -8.155  -2.401   0.014  0.00  0.00    +0.000 A 
ATOM     26  C   UNL     1      -7.604  -1.982   1.210  0.00  0.00    +0.000 A 
ATOM     27  C   UNL     1      -6.497  -1.154   1.208  0.00  0.00    +0.007 A 
ENDBRANCH  21  22
ENDBRANCH  20  21
ENDBRANCH  18  20
ENDBRANCH   3  18
BRANCH   6  28
ATOM     28  S   UNL     1       2.808  -2.697  -0.833  0.00  0.00    -0.100 S 
BRANCH  28  29
ATOM     29  C   UNL     1       3.986  -1.329  -0.667  0.00  0.00    +0.171 C 
BRANCH  29  30
ATOM     30  C   UNL     1       5.367  -1.808  -1.034  0.00  0.00    +0.221 C 
ATOM     31  O   UNL     1       5.540  -2.959  -1.374  0.00  0.00    -0.275 OA
ATOM     32  N   UNL     1       6.411  -0.956  -0.984  0.00  0.00    -0.329 N 
ATOM     33  H   UNL     1       6.274  -0.036  -0.711  0.00  0.00    +0.145 HD
ATOM     34  H   UNL     1       7.300  -1.265  -1.220  0.00  0.00    +0.145 HD
ENDBRANCH  29  30
ENDBRANCH  28  29
ENDBRANCH   6  28
TORSDOF 9
