REMARK  Name = ZINC35897646
REMARK  5 active torsions:
REMARK  status: ('A' for Active; 'I' for Inactive)
REMARK    1  A    between atoms: C_4  and  N_7
REMARK    2  A    between atoms: C_8  and  C_10
REMARK    3  A    between atoms: C_14  and  N_15
REMARK    4  A    between atoms: C_16  and  C_18
REMARK    5  A    between atoms: C_27  and  C_29
REMARK                            x       y       z     vdW  Elec       q    Type
REMARK                         _______ _______ _______ _____ _____    ______ ____
ROOT
ATOM      1  C   UNL     1       3.774  -1.333  -3.968  0.00  0.00    +0.069 A 
ATOM      2  C   UNL     1       5.186  -1.039  -4.138  0.00  0.00    -0.023 A 
ATOM      3  C   UNL     1       5.787  -1.757  -5.111  0.00  0.00    -0.004 A 
ATOM      4  S   UNL     1       4.504  -2.783  -5.768  0.00  0.00    -0.077 S 
ATOM      5  C   UNL     1       3.222  -2.295  -4.799  0.00  0.00    +0.084 A 
ATOM      6  C   UNL     1       7.223  -1.684  -5.527  0.00  0.00    +0.043 C 
ATOM      7  C   UNL     1       7.831  -0.402  -4.939  0.00  0.00    +0.005 C 
ATOM      8  C   UNL     1       7.457  -0.311  -3.457  0.00  0.00    +0.005 C 
ATOM      9  C   UNL     1       5.961  -0.021  -3.314  0.00  0.00    +0.037 C 
ENDROOT
BRANCH   1  11
ATOM     10  N   UNL     1       2.326   0.499  -3.268  0.00  0.00    -0.308 N 
ATOM     11  C   UNL     1       2.967  -0.644  -2.955  0.00  0.00    +0.247 C 
ATOM     12  O   UNL     1       2.877  -1.106  -1.833  0.00  0.00    -0.270 OA
ATOM     13  H   UNL     1       2.399   0.867  -4.162  0.00  0.00    +0.149 HD
BRANCH  10  17
ATOM     14  C   UNL     1      -0.820   2.786  -1.515  0.00  0.00    +0.000 C 
ATOM     15  C   UNL     1       0.584   3.393  -1.547  0.00  0.00    +0.002 C 
ATOM     16  C   UNL     1       1.426   2.674  -2.604  0.00  0.00    +0.022 C 
ATOM     17  C   UNL     1       1.520   1.187  -2.256  0.00  0.00    +0.073 C 
ATOM     18  C   UNL     1       0.116   0.581  -2.224  0.00  0.00    +0.022 C 
ATOM     19  C   UNL     1      -0.726   1.299  -1.168  0.00  0.00    +0.002 C 
ENDBRANCH  10  17
ENDBRANCH   1  11
BRANCH   5  20
ATOM     20  N   UNL     1       1.912  -2.748  -4.825  0.00  0.00    -0.279 N 
ATOM     21  C   UNL     1       1.546  -3.699  -5.708  0.00  0.00    +0.222 C 
ATOM     22  O   UNL     1       2.362  -4.157  -6.479  0.00  0.00    -0.275 OA
ATOM     23  H   UNL     1       1.260  -2.382  -4.209  0.00  0.00    +0.155 HD
BRANCH  21  24
ATOM     24  C   UNL     1       0.122  -4.192  -5.737  0.00  0.00    +0.092 C 
ATOM     25  C   UNL     1       0.041  -5.651  -5.193  0.00  0.00    +0.002 C 
ATOM     26  C   UNL     1       1.183  -6.409  -5.937  0.00  0.00    +0.004 C 
ATOM     27  C   UNL     1       0.696  -6.510  -7.401  0.00  0.00    +0.004 C 
ATOM     28  C   UNL     1      -0.694  -5.803  -7.403  0.00  0.00    +0.004 C 
ATOM     29  C   UNL     1      -1.227  -6.174  -5.955  0.00  0.00    +0.008 C 
ATOM     30  C   UNL     1      -0.385  -4.287  -7.194  0.00  0.00    +0.117 C 
BRANCH  30  31
ATOM     31  C   UNL     1       0.693  -3.858  -8.156  0.00  0.00    +0.360 C 
ATOM     32  O   UNL     1       0.971  -4.560  -9.113  0.00  0.00    -0.246 OA
ATOM     33  O   UNL     1       1.288  -2.809  -7.976  0.00  0.00    -0.246 OA
ENDBRANCH  30  31
ENDBRANCH  21  24
ENDBRANCH   5  20
TORSDOF 5
