REMARK  Name = ZINC38678739
REMARK  9 active torsions:
REMARK  status: ('A' for Active; 'I' for Inactive)
REMARK    1  A    between atoms: C_1  and  C_2
REMARK    2  A    between atoms: C_2  and  C_4
REMARK    3  A    between atoms: C_2  and  O_28
REMARK    4  A    between atoms: C_4  and  O_6
REMARK    5  A    between atoms: O_6  and  C_7
REMARK    6  A    between atoms: C_14  and  N_27
REMARK    7  A    between atoms: C_15  and  C_25
REMARK    8  A    between atoms: C_16  and  C_18
REMARK    9  A    between atoms: O_28  and  C_29
REMARK                            x       y       z     vdW  Elec       q    Type
REMARK                         _______ _______ _______ _____ _____    ______ ____
ROOT
ATOM      1  C   UNL     1       2.604  -0.502   2.740  0.00  0.00    +0.135 A 
ATOM      2  C   UNL     1       1.884  -1.344   3.576  0.00  0.00    +0.047 A 
ATOM      3  C   UNL     1       2.457  -1.812   4.742  0.00  0.00    +0.012 A 
ATOM      4  C   UNL     1       3.746  -1.444   5.083  0.00  0.00    +0.008 A 
ATOM      5  C   UNL     1       4.469  -0.603   4.251  0.00  0.00    +0.138 A 
ATOM      6  C   UNL     1       3.897  -0.136   3.075  0.00  0.00    +0.093 A 
ATOM      7  O   UNL     1       5.734  -0.231   4.568  0.00  0.00    -0.441 OA
ATOM      8  C   UNL     1       6.168  -0.341   5.834  0.00  0.00    +0.199 C 
ATOM      9  C   UNL     1       5.556  -1.147   6.734  0.00  0.00    +0.098 C 
ATOM     10  C   UNL     1       4.353  -1.965   6.359  0.00  0.00    +0.099 C 
ENDROOT
BRANCH  10  11
ATOM     11  C   UNL     1       4.766  -3.401   6.165  0.00  0.00    -0.021 A 
ATOM     12  C   UNL     1       5.698  -3.728   5.199  0.00  0.00    +0.005 A 
ATOM     13  C   UNL     1       6.077  -5.045   5.021  0.00  0.00    +0.000 A 
ATOM     14  C   UNL     1       5.524  -6.037   5.811  0.00  0.00    +0.001 A 
ATOM     15  C   UNL     1       4.592  -5.710   6.778  0.00  0.00    +0.015 A 
ATOM     16  C   UNL     1       4.216  -4.391   6.959  0.00  0.00    +0.022 A 
ATOM     17 BR   UNL     1       2.946  -3.944   8.287  0.00  0.00    -0.050 Br
ENDBRANCH  10  11
BRANCH   8  18
ATOM     18  N   UNL     1       7.265   0.384   6.228  0.00  0.00    -0.328 N 
ATOM     19  H   UNL     1       7.715   0.966   5.595  0.00  0.00    +0.145 HD
ATOM     20  H   UNL     1       7.591   0.316   7.139  0.00  0.00    +0.145 HD
ENDBRANCH   8  18
BRANCH   9  21
ATOM     21  C   UNL     1       6.066  -1.221   8.070  0.00  0.00    +0.101 C 
ATOM     22  N   UNL     1       6.471  -1.280   9.130  0.00  0.00    -0.191 NA
ENDBRANCH   9  21
BRANCH   1  23
ATOM     23  O   UNL     1       2.042  -0.041   1.591  0.00  0.00    -0.423 OA
BRANCH  23  24
ATOM     24  C   UNL     1       1.124   0.934   1.686  0.00  0.00    +0.353 C 
ATOM     25  O   UNL     1       0.887   1.440   2.758  0.00  0.00    -0.246 OA
BRANCH  24  27
ATOM     26  C   UNL     1       1.377   2.048  -0.515  0.00  0.00    +0.064 C 
ATOM     27  C   UNL     1       0.388   1.399   0.456  0.00  0.00    +0.279 C 
BRANCH  27  28
ATOM     28  O   UNL     1      -0.609   2.352   0.829  0.00  0.00    -0.475 OA
BRANCH  28  29
ATOM     29  C   UNL     1      -1.677   2.486  -0.003  0.00  0.00    +0.157 A 
ATOM     30  C   UNL     1      -1.708   1.802  -1.209  0.00  0.00    +0.048 A 
ATOM     31  C   UNL     1      -2.794   1.939  -2.052  0.00  0.00    +0.004 A 
ATOM     32  C   UNL     1      -3.849   2.759  -1.696  0.00  0.00    +0.003 A 
ATOM     33  C   UNL     1      -3.821   3.443  -0.496  0.00  0.00    +0.042 A 
ATOM     34  C   UNL     1      -2.740   3.304   0.356  0.00  0.00    +0.165 A 
ATOM     35  F   UNL     1      -2.716   3.968   1.532  0.00  0.00    -0.202 F 
ENDBRANCH  28  29
ENDBRANCH  27  28
ENDBRANCH  24  27
ENDBRANCH  23  24
ENDBRANCH   1  23
TORSDOF 8
