REMARK  Name = ZINC35664859
REMARK  5 active torsions:
REMARK  status: ('A' for Active; 'I' for Inactive)
REMARK    1  A    between atoms: C_3  and  C_6
REMARK    2  A    between atoms: N_8  and  C_9
REMARK    3  A    between atoms: C_12  and  N_23
REMARK    4  A    between atoms: C_13  and  C_15
REMARK    5  A    between atoms: N_31  and  C_32
REMARK                            x       y       z     vdW  Elec       q    Type
REMARK                         _______ _______ _______ _____ _____    ______ ____
ROOT
ATOM      1  C   UNL     1       5.812   1.147  -0.074  0.00  0.00    +0.035 A 
ATOM      2  C   UNL     1       6.387   2.389   0.176  0.00  0.00    +0.025 A 
ATOM      3  C   UNL     1       7.759   2.525   0.219  0.00  0.00    +0.026 A 
ATOM      4  C   UNL     1       8.577   1.421   0.011  0.00  0.00    +0.042 A 
ATOM      5  C   UNL     1       8.003   0.166  -0.242  0.00  0.00    +0.060 A 
ATOM      6  C   UNL     1       6.612   0.037  -0.278  0.00  0.00    +0.038 A 
ENDROOT
BRANCH   4   7
ATOM      7  N   UNL     1       9.960   1.560   0.053  0.00  0.00    -0.326 N 
ATOM      8  C   UNL     1      10.717   1.885  -1.164  0.00  0.00    +0.124 C 
ATOM      9  C   UNL     1      11.550   3.146  -0.902  0.00  0.00    +0.128 C 
ATOM     10  N   UNL     1      12.281   2.971   0.361  0.00  0.00    -0.283 N 
ATOM     11  C   UNL     1      11.524   2.647   1.579  0.00  0.00    +0.128 C 
ATOM     12  C   UNL     1      10.690   1.392   1.317  0.00  0.00    +0.124 C 
ATOM     13  C   UNL     1      13.621   3.106   0.402  0.00  0.00    +0.303 C 
ATOM     14  O   UNL     1      14.226   3.473  -0.587  0.00  0.00    -0.253 OA
ATOM     15  N   UNL     1      14.291   2.834   1.539  0.00  0.00    -0.296 N 
ATOM     16  H   UNL     1      13.820   2.467   2.304  0.00  0.00    +0.151 HD
BRANCH  15  17
ATOM     17  C   UNL     1      15.731   3.091   1.621  0.00  0.00    +0.074 C 
ATOM     18  C   UNL     1      16.497   1.893   1.056  0.00  0.00    +0.022 C 
ATOM     19  C   UNL     1      18.000   2.163   1.141  0.00  0.00    +0.002 C 
ATOM     20  C   UNL     1      18.398   2.379   2.603  0.00  0.00    +0.000 C 
ATOM     21  C   UNL     1      17.632   3.577   3.167  0.00  0.00    +0.002 C 
ATOM     22  C   UNL     1      16.129   3.308   3.082  0.00  0.00    +0.022 C 
ENDBRANCH  15  17
ENDBRANCH   4   7
BRANCH   5  23
ATOM     23  C   UNL     1       8.863  -1.010  -0.464  0.00  0.00    +0.248 C 
ATOM     24  O   UNL     1       9.718  -1.301   0.351  0.00  0.00    -0.270 OA
ATOM     25  N   UNL     1       8.702  -1.764  -1.569  0.00  0.00    -0.297 N 
ATOM     26  C   UNL     1       7.624  -1.473  -2.523  0.00  0.00    +0.108 C 
ATOM     27  C   UNL     1       8.230  -1.323  -3.922  0.00  0.00    +0.019 C 
ATOM     28  C   UNL     1       9.044  -2.575  -4.257  0.00  0.00    +0.003 C 
ATOM     29  C   UNL     1      10.186  -2.728  -3.250  0.00  0.00    +0.019 C 
ATOM     30  C   UNL     1       9.605  -2.889  -1.846  0.00  0.00    +0.108 C 
ENDBRANCH   5  23
BRANCH   1  33
ATOM     31  C   UNL     1       3.664   2.011  -0.629  0.00  0.00    +0.255 C 
ATOM     32  O   UNL     1       4.189   3.049  -0.990  0.00  0.00    -0.269 OA
ATOM     33  N   UNL     1       4.417   1.019  -0.115  0.00  0.00    -0.281 N 
ATOM     34  H   UNL     1       3.994   0.216   0.226  0.00  0.00    +0.155 HD
BRANCH  31  37
ATOM     35  C   UNL     1      -0.031   2.283  -1.238  0.00  0.00    +0.008 A 
ATOM     36  C   UNL     1       1.269   2.728  -1.248  0.00  0.00    +0.021 A 
ATOM     37  C   UNL     1       2.214   1.842  -0.753  0.00  0.00    +0.074 A 
ATOM     38  S   UNL     1       1.204   0.442  -0.307  0.00  0.00    -0.092 S 
ATOM     39  C   UNL     1      -0.299   1.043  -0.759  0.00  0.00    +0.046 A 
ENDBRANCH  31  37
ENDBRANCH   1  33
TORSDOF 5
