REMARK  Name = ZINC08897905
REMARK  8 active torsions:
REMARK  status: ('A' for Active; 'I' for Inactive)
REMARK    1  A    between atoms: C_1  and  C_2
REMARK    2  A    between atoms: C_9  and  N_18
REMARK    3  A    between atoms: C_10  and  C_11
REMARK    4  A    between atoms: C_14  and  O_16
REMARK    5  A    between atoms: O_16  and  C_17
REMARK    6  A    between atoms: C_19  and  C_21
REMARK    7  A    between atoms: N_26  and  S_27
REMARK    8  A    between atoms: S_27  and  C_30
REMARK                            x       y       z     vdW  Elec       q    Type
REMARK                         _______ _______ _______ _____ _____    ______ ____
ROOT
ATOM      1  N   UNL     1      -1.893   1.781  -1.675  0.00  0.00    -0.278 N 
ATOM      2  C   UNL     1      -0.617   2.001  -1.302  0.00  0.00    +0.236 C 
ATOM      3  O   UNL     1       0.069   2.786  -1.922  0.00  0.00    -0.274 OA
ATOM      4  H   UNL     1      -2.442   1.153  -1.180  0.00  0.00    +0.155 HD
ENDROOT
BRANCH   1  12
ATOM      5  C   UNL     1      -4.520   5.834  -7.828  0.00  0.00    +0.008 C 
ATOM      6  C   UNL     1      -4.471   5.136  -6.468  0.00  0.00    -0.009 C 
ATOM      7  C   UNL     1      -5.186   3.784  -6.559  0.00  0.00    +0.008 C 
ATOM      8  C   UNL     1      -5.359   3.192  -5.159  0.00  0.00    +0.037 C 
ATOM      9  C   UNL     1      -4.005   3.181  -4.460  0.00  0.00    -0.023 A 
ATOM     10  C   UNL     1      -2.989   3.955  -4.900  0.00  0.00    -0.004 A 
ATOM     11  S   UNL     1      -1.649   3.614  -3.794  0.00  0.00    -0.077 S 
ATOM     12  C   UNL     1      -2.422   2.452  -2.767  0.00  0.00    +0.084 A 
ATOM     13  C   UNL     1      -3.701   2.361  -3.300  0.00  0.00    +0.069 A 
ATOM     14  C   UNL     1      -3.009   4.896  -6.065  0.00  0.00    +0.046 C 
BRANCH  13  15
ATOM     15  C   UNL     1      -4.707   1.472  -2.713  0.00  0.00    +0.255 C 
ATOM     16  O   UNL     1      -5.443   1.882  -1.836  0.00  0.00    -0.270 OA
ATOM     17  N   UNL     1      -4.816   0.200  -3.145  0.00  0.00    -0.217 N 
ATOM     18  C   UNL     1      -5.741  -0.618  -2.605  0.00  0.00    +0.407 C 
ATOM     19  O   UNL     1      -6.476  -0.209  -1.729  0.00  0.00    -0.226 OA
ATOM     20  H   UNL     1      -4.229  -0.127  -3.845  0.00  0.00    +0.161 HD
BRANCH  18  21
ATOM     21  O   UNL     1      -5.850  -1.888  -3.037  0.00  0.00    -0.453 OA
ATOM     22  C   UNL     1      -6.869  -2.712  -2.410  0.00  0.00    +0.282 C 
ENDBRANCH  18  21
ENDBRANCH  13  15
ENDBRANCH   1  12
BRANCH   2  23
ATOM     23  C   UNL     1      -0.042   1.272  -0.116  0.00  0.00    +0.166 C 
ATOM     24  C   UNL     1      -0.310   2.072   1.177  0.00  0.00    +0.031 C 
ATOM     25  C   UNL     1       0.997   1.872   1.987  0.00  0.00    +0.019 C 
ATOM     26  C   UNL     1       2.062   1.858   0.861  0.00  0.00    +0.110 C 
ATOM     27  N   UNL     1       1.416   1.152  -0.260  0.00  0.00    -0.165 NA
BRANCH  27  28
ATOM     28  S   UNL     1       2.203   0.357  -1.481  0.00  0.00    +0.062 S 
ATOM     29  O   UNL     1       1.263   0.201  -2.536  0.00  0.00    -0.153 OA
ATOM     30  O   UNL     1       3.447   1.018  -1.661  0.00  0.00    -0.153 OA
BRANCH  28  31
ATOM     31  C   UNL     1       2.573  -1.263  -0.894  0.00  0.00    +0.106 A 
ATOM     32  C   UNL     1       3.723  -1.485  -0.160  0.00  0.00    +0.031 A 
ATOM     33  C   UNL     1       4.011  -2.754   0.306  0.00  0.00    +0.040 A 
ATOM     34  C   UNL     1       3.154  -3.805   0.028  0.00  0.00    +0.124 A 
ATOM     35  C   UNL     1       2.005  -3.582  -0.713  0.00  0.00    +0.040 A 
ATOM     36  C   UNL     1       1.716  -2.311  -1.172  0.00  0.00    +0.031 A 
ATOM     37  F   UNL     1       3.438  -5.047   0.477  0.00  0.00    -0.205 F 
ENDBRANCH  28  31
ENDBRANCH  27  28
ENDBRANCH   2  23
TORSDOF 6
