REMARK  Name = ZINC63374663
REMARK  8 active torsions:
REMARK  status: ('A' for Active; 'I' for Inactive)
REMARK    1  A    between atoms: C_1  and  C_2
REMARK    2  A    between atoms: C_2  and  C_3
REMARK    3  A    between atoms: C_2  and  C_4
REMARK    4  A    between atoms: C_4  and  C_5
REMARK    5  A    between atoms: C_5  and  C_7
REMARK    6  A    between atoms: C_5  and  N_21
REMARK    7  A    between atoms: N_9  and  C_10
REMARK    8  A    between atoms: C_24  and  C_40
REMARK                            x       y       z     vdW  Elec       q    Type
REMARK                         _______ _______ _______ _____ _____    ______ ____
ROOT
ATOM      1  N   UNL     1      -0.876  -2.426  -1.433  0.00  0.00    -0.212 N 
ATOM      2  C   UNL     1       0.225  -3.184  -1.613  0.00  0.00    +0.249 C 
ATOM      3  O   UNL     1       0.944  -3.646  -0.753  0.00  0.00    -0.273 OA
ATOM      4  C   UNL     1       0.377  -3.338  -3.111  0.00  0.00    +0.136 C 
ATOM      5  C   UNL     1       1.702  -2.720  -3.572  0.00  0.00    +0.139 C 
ATOM      6  C   UNL     1       1.543  -2.417  -5.057  0.00  0.00    -0.034 C 
ATOM      7  C   UNL     1       2.520  -3.071  -5.679  0.00  0.00    -0.001 A 
ATOM      8  C   UNL     1       2.916  -3.119  -7.095  0.00  0.00    +0.010 A 
ATOM      9  C   UNL     1       3.977  -3.914  -7.393  0.00  0.00    +0.001 A 
ATOM     10  C   UNL     1       4.675  -4.657  -6.436  0.00  0.00    +0.002 A 
ATOM     11  C   UNL     1       4.382  -4.669  -5.111  0.00  0.00    +0.026 A 
ATOM     12  C   UNL     1       3.287  -3.868  -4.674  0.00  0.00    +0.043 A 
ATOM     13  N   UNL     1       2.804  -3.681  -3.469  0.00  0.00    -0.375 N 
ATOM     14  C   UNL     1       0.418  -1.580  -5.615  0.00  0.00    +0.052 C 
ATOM     15  C   UNL     1      -0.899  -2.166  -5.067  0.00  0.00    +0.115 C 
ATOM     16  N   UNL     1      -0.705  -2.483  -3.650  0.00  0.00    -0.269 N 
ATOM     17  C   UNL     1      -1.420  -2.058  -2.600  0.00  0.00    +0.313 C 
ATOM     18  O   UNL     1      -2.442  -1.408  -2.696  0.00  0.00    -0.252 OA
ATOM     19  C   UNL     1       0.231  -4.795  -3.553  0.00  0.00    +0.044 C 
ATOM     20  H   UNL     1       3.113  -4.102  -2.651  0.00  0.00    +0.160 HD
ENDROOT
BRANCH   1  21
ATOM     21  C   UNL     1      -1.416  -2.058  -0.121  0.00  0.00    +0.171 C 
BRANCH  21  22
ATOM     22  C   UNL     1      -2.819  -2.590   0.013  0.00  0.00    +0.235 C 
ATOM     23  O   UNL     1      -3.320  -3.216  -0.898  0.00  0.00    -0.274 OA
ATOM     24  N   UNL     1      -3.518  -2.371   1.144  0.00  0.00    -0.307 N 
ATOM     25  H   UNL     1      -3.118  -1.870   1.872  0.00  0.00    +0.149 HD
BRANCH  24  26
ATOM     26  C   UNL     1      -4.882  -2.888   1.274  0.00  0.00    +0.103 C 
ATOM     27  C   UNL     1      -5.654  -2.028   2.273  0.00  0.00    +0.027 C 
ATOM     28  C   UNL     1      -6.998  -2.708   2.559  0.00  0.00    +0.007 C 
ATOM     29  C   UNL     1      -6.733  -3.977   3.367  0.00  0.00    +0.035 C 
ATOM     30  C   UNL     1      -5.681  -4.821   2.696  0.00  0.00    -0.042 A 
ATOM     31  C   UNL     1      -4.828  -4.320   1.739  0.00  0.00    -0.024 A 
ATOM     32  C   UNL     1      -3.875  -5.151   1.165  0.00  0.00    +0.006 A 
ATOM     33  C   UNL     1      -3.778  -6.474   1.545  0.00  0.00    +0.000 A 
ATOM     34  C   UNL     1      -4.636  -6.977   2.504  0.00  0.00    +0.000 A 
ATOM     35  C   UNL     1      -5.583  -6.154   3.075  0.00  0.00    +0.004 A 
ENDBRANCH  24  26
ENDBRANCH  21  22
BRANCH  21  36
ATOM     36  C   UNL     1      -1.433  -0.534   0.013  0.00  0.00    +0.035 C 
BRANCH  36  38
ATOM     37  C   UNL     1      -0.019   1.526   0.010  0.00  0.00    +0.007 C 
ATOM     38  C   UNL     1       0.002  -0.004   0.002  0.00  0.00    -0.015 C 
ATOM     39  C   UNL     1       0.742  -0.511   1.242  0.00  0.00    +0.007 C 
ENDBRANCH  36  38
ENDBRANCH  21  36
ENDBRANCH   1  21
TORSDOF 5
