REMARK  Name = ZINC39995188
REMARK  7 active torsions:
REMARK  status: ('A' for Active; 'I' for Inactive)
REMARK    1  A    between atoms: C_1  and  C_2
REMARK    2  A    between atoms: C_2  and  C_4
REMARK    3  A    between atoms: C_2  and  S_15
REMARK    4  A    between atoms: N_6  and  C_7
REMARK    5  A    between atoms: S_15  and  C_16
REMARK    6  A    between atoms: C_20  and  C_25
REMARK    7  A    between atoms: N_21  and  C_22
REMARK                            x       y       z     vdW  Elec       q    Type
REMARK                         _______ _______ _______ _____ _____    ______ ____
ROOT
ATOM      1  C   UNL     1      -1.698  -0.912   2.268  0.00  0.00    +0.238 C 
ATOM      2  N   UNL     1      -0.607  -0.875   3.256  0.00  0.00    -0.237 N 
ATOM      3  N   UNL     1      -0.545   0.440   3.732  0.00  0.00    -0.169 NA
ATOM      4  C   UNL     1      -1.449   1.193   3.163  0.00  0.00    +0.147 C 
ATOM      5  N   UNL     1      -2.217   0.466   2.245  0.00  0.00    -0.282 N 
ATOM      6  H   UNL     1      -0.043  -1.617   3.525  0.00  0.00    +0.171 HD
ENDROOT
BRANCH   4   7
ATOM      7  C   UNL     1      -1.630   2.557   3.439  0.00  0.00    +0.022 C 
ATOM      8  C   UNL     1      -0.850   3.360   4.272  0.00  0.00    +0.006 A 
ATOM      9  C   UNL     1       0.292   3.092   5.057  0.00  0.00    +0.010 A 
ATOM     10  C   UNL     1       0.857   4.089   5.786  0.00  0.00    +0.001 A 
ATOM     11  C   UNL     1       0.335   5.384   5.782  0.00  0.00    +0.002 A 
ATOM     12  C   UNL     1      -0.759   5.712   5.051  0.00  0.00    +0.026 A 
ATOM     13  C   UNL     1      -1.404   4.723   4.264  0.00  0.00    +0.043 A 
ATOM     14  N   UNL     1      -2.463   4.786   3.481  0.00  0.00    -0.380 N 
ATOM     15  C   UNL     1      -2.706   3.467   2.889  0.00  0.00    +0.152 C 
ATOM     16  H   UNL     1      -2.994   5.581   3.318  0.00  0.00    +0.160 HD
ENDBRANCH   4   7
BRANCH   5  17
ATOM     17  C   UNL     1      -3.319   0.973   1.424  0.00  0.00    +0.078 C 
ATOM     18  C   UNL     1      -4.716   0.410   1.691  0.00  0.00    +0.024 C 
ATOM     19  C   UNL     1      -3.958   0.007   0.425  0.00  0.00    +0.024 C 
ENDBRANCH   5  17
BRANCH   1  20
ATOM     20  S   UNL     1      -1.059  -1.376   0.634  0.00  0.00    -0.106 S 
BRANCH  20  22
ATOM     21  C   UNL     1      -0.430   1.245   0.169  0.00  0.00    +0.029 C 
ATOM     22  C   UNL     1       0.219  -0.134   0.294  0.00  0.00    +0.133 C 
BRANCH  22  23
ATOM     23  C   UNL     1       0.923  -0.478  -0.993  0.00  0.00    +0.230 C 
ATOM     24  O   UNL     1       0.356  -1.141  -1.836  0.00  0.00    -0.274 OA
ATOM     25  N   UNL     1       2.182  -0.048  -1.209  0.00  0.00    -0.280 N 
ATOM     26  H   UNL     1       2.607   0.547  -0.571  0.00  0.00    +0.155 HD
BRANCH  25  27
ATOM     27  C   UNL     1       2.877  -0.459  -2.354  0.00  0.00    +0.105 A 
ATOM     28  C   UNL     1       4.185  -0.916  -2.249  0.00  0.00    +0.147 A 
ATOM     29  C   UNL     1       4.868  -1.321  -3.382  0.00  0.00    +0.040 A 
ATOM     30  C   UNL     1       4.250  -1.272  -4.618  0.00  0.00    +0.006 A 
ATOM     31  C   UNL     1       2.948  -0.818  -4.727  0.00  0.00    +0.040 A 
ATOM     32  C   UNL     1       2.257  -0.417  -3.598  0.00  0.00    +0.147 A 
ATOM     33  F   UNL     1       0.983   0.021  -3.704  0.00  0.00    -0.203 F 
ATOM     34  F   UNL     1       4.790  -0.963  -1.042  0.00  0.00    -0.203 F 
ENDBRANCH  25  27
ENDBRANCH  22  23
ENDBRANCH  20  22
ENDBRANCH   1  20
TORSDOF 6
