REMARK  Name = ZINC12521509
REMARK  7 active torsions:
REMARK  status: ('A' for Active; 'I' for Inactive)
REMARK    1  A    between atoms: C_1  and  C_2
REMARK    2  A    between atoms: C_11  and  N_33
REMARK    3  A    between atoms: C_13  and  S_15
REMARK    4  A    between atoms: S_15  and  C_16
REMARK    5  A    between atoms: C_16  and  C_17
REMARK    6  A    between atoms: C_17  and  C_18
REMARK    7  A    between atoms: N_23  and  C_26
REMARK                            x       y       z     vdW  Elec       q    Type
REMARK                         _______ _______ _______ _____ _____    ______ ____
ROOT
ATOM      1  S   UNL     1       7.318   4.729   0.197  0.00  0.00    -0.085 S 
ENDROOT
BRANCH   1  13
ATOM      2  C   UNL     1      -1.243  -0.754  -0.606  0.00  0.00    +0.008 C 
ATOM      3  C   UNL     1       0.165  -0.165  -0.721  0.00  0.00    -0.009 C 
ATOM      4  C   UNL     1       1.021  -0.638   0.458  0.00  0.00    +0.008 C 
ATOM      5  C   UNL     1       2.484  -0.262   0.219  0.00  0.00    +0.037 C 
ATOM      6  C   UNL     1       2.567   1.230  -0.094  0.00  0.00    -0.025 A 
ATOM      7  C   UNL     1       1.469   1.910  -0.494  0.00  0.00    -0.004 A 
ATOM      8  S   UNL     1       2.018   3.580  -0.741  0.00  0.00    -0.073 S 
ATOM      9  C   UNL     1       3.715   3.367  -0.311  0.00  0.00    +0.115 A 
ATOM     10  C   UNL     1       3.802   1.990   0.015  0.00  0.00    +0.051 A 
ATOM     11  C   UNL     1       5.080   1.499   0.412  0.00  0.00    +0.129 A 
ATOM     12  N   UNL     1       6.065   2.393   0.436  0.00  0.00    -0.207 NA
ATOM     13  C   UNL     1       5.913   3.670   0.117  0.00  0.00    +0.191 A 
ATOM     14  N   UNL     1       4.743   4.190  -0.262  0.00  0.00    -0.215 NA
ATOM     15  C   UNL     1       0.086   1.367  -0.687  0.00  0.00    +0.046 C 
BRANCH  11  16
ATOM     16  N   UNL     1       5.283   0.174   0.753  0.00  0.00    -0.343 N 
ATOM     17  H   UNL     1       4.629  -0.497   0.502  0.00  0.00    +0.144 HD
ATOM     18  H   UNL     1       6.079  -0.084   1.244  0.00  0.00    +0.144 HD
ENDBRANCH  11  16
ENDBRANCH   1  13
BRANCH   1  19
ATOM     19  C   UNL     1       8.574   3.546   0.743  0.00  0.00    +0.086 C 
BRANCH  19  20
ATOM     20  C   UNL     1       9.919   4.260   0.887  0.00  0.00    +0.107 C 
BRANCH  20  21
ATOM     21  C   UNL     1      10.965   3.275   1.342  0.00  0.00    +0.216 C 
ATOM     22  O   UNL     1      10.663   2.115   1.532  0.00  0.00    -0.276 OA
ATOM     23  N   UNL     1      12.235   3.681   1.537  0.00  0.00    -0.298 N 
ATOM     24  C   UNL     1      12.623   5.081   1.307  0.00  0.00    +0.126 C 
ATOM     25  C   UNL     1      13.363   5.588   2.555  0.00  0.00    +0.124 C 
ATOM     26  N   UNL     1      14.475   4.678   2.861  0.00  0.00    -0.327 N 
ATOM     27  C   UNL     1      13.987   3.334   3.197  0.00  0.00    +0.124 C 
ATOM     28  C   UNL     1      13.270   2.736   1.981  0.00  0.00    +0.126 C 
BRANCH  26  29
ATOM     29  C   UNL     1      15.274   5.192   3.887  0.00  0.00    +0.030 A 
ATOM     30  C   UNL     1      15.503   4.440   5.033  0.00  0.00    +0.026 A 
ATOM     31  C   UNL     1      16.296   4.948   6.043  0.00  0.00    +0.040 A 
ATOM     32  C   UNL     1      16.855   6.208   5.919  0.00  0.00    +0.124 A 
ATOM     33  C   UNL     1      16.625   6.961   4.780  0.00  0.00    +0.040 A 
ATOM     34  C   UNL     1      15.836   6.456   3.765  0.00  0.00    +0.026 A 
ATOM     35  F   UNL     1      17.628   6.704   6.910  0.00  0.00    -0.205 F 
ENDBRANCH  26  29
ENDBRANCH  20  21
ENDBRANCH  19  20
ENDBRANCH   1  19
TORSDOF 6
