REMARK  Name = ZINC13397748
REMARK  6 active torsions:
REMARK  status: ('A' for Active; 'I' for Inactive)
REMARK    1  A    between atoms: C_3  and  S_20
REMARK    2  A    between atoms: C_6  and  N_7
REMARK    3  A    between atoms: C_8  and  C_10
REMARK    4  A    between atoms: C_10  and  C_11
REMARK    5  A    between atoms: S_20  and  N_23
REMARK    6  A    between atoms: C_27  and  C_30
REMARK                            x       y       z     vdW  Elec       q    Type
REMARK                         _______ _______ _______ _____ _____    ______ ____
ROOT
ATOM      1  C   UNL     1      -5.215   0.370  -1.888  0.00  0.00    +0.025 A 
ATOM      2  C   UNL     1      -3.943   0.793  -2.220  0.00  0.00    +0.030 A 
ATOM      3  C   UNL     1      -2.850   0.002  -1.919  0.00  0.00    +0.106 A 
ATOM      4  C   UNL     1      -3.026  -1.217  -1.291  0.00  0.00    +0.030 A 
ATOM      5  C   UNL     1      -4.295  -1.643  -0.952  0.00  0.00    +0.025 A 
ATOM      6  C   UNL     1      -5.396  -0.851  -1.252  0.00  0.00    +0.034 A 
ENDROOT
BRANCH   6   7
ATOM      7  N   UNL     1      -6.683  -1.283  -0.915  0.00  0.00    -0.285 N 
ATOM      8  C   UNL     1      -7.729  -0.963  -1.702  0.00  0.00    +0.222 C 
ATOM      9  O   UNL     1      -7.543  -0.383  -2.752  0.00  0.00    -0.275 OA
ATOM     10  H   UNL     1      -6.823  -1.813  -0.115  0.00  0.00    +0.155 HD
BRANCH   8  11
ATOM     11  C   UNL     1      -9.130  -1.324  -1.279  0.00  0.00    +0.131 C 
BRANCH  11  12
ATOM     12  C   UNL     1     -10.107  -0.858  -2.327  0.00  0.00    -0.038 A 
ATOM     13  C   UNL     1     -10.454  -1.695  -3.371  0.00  0.00    +0.004 A 
ATOM     14  C   UNL     1     -11.351  -1.266  -4.330  0.00  0.00    +0.004 A 
ATOM     15  C   UNL     1     -11.903   0.001  -4.250  0.00  0.00    -0.044 A 
ATOM     16  C   UNL     1     -11.556   0.839  -3.206  0.00  0.00    -0.044 A 
ATOM     17  C   UNL     1     -10.662   0.404  -2.243  0.00  0.00    +0.008 A 
ATOM     18  C   UNL     1     -12.289   2.156  -3.342  0.00  0.00    +0.036 C 
ATOM     19  C   UNL     1     -13.444   1.876  -4.326  0.00  0.00    +0.009 C 
ATOM     20  C   UNL     1     -12.893   0.699  -5.158  0.00  0.00    +0.036 C 
ENDBRANCH  11  12
ENDBRANCH   8  11
ENDBRANCH   6   7
BRANCH   3  21
ATOM     21  S   UNL     1      -1.228   0.545  -2.345  0.00  0.00    +0.061 S 
ATOM     22  O   UNL     1      -1.377   1.465  -3.418  0.00  0.00    -0.153 OA
ATOM     23  O   UNL     1      -0.423  -0.621  -2.447  0.00  0.00    -0.153 OA
BRANCH  21  24
ATOM     24  N   UNL     1      -0.648   1.409  -1.057  0.00  0.00    -0.176 NA
ATOM     25  C   UNL     1      -0.870   2.859  -0.968  0.00  0.00    +0.109 C 
ATOM     26  C   UNL     1      -1.515   3.177   0.385  0.00  0.00    +0.018 C 
ATOM     27  C   UNL     1      -0.647   2.603   1.507  0.00  0.00    +0.017 C 
ATOM     28  C   UNL     1      -0.555   1.082   1.361  0.00  0.00    +0.118 C 
ATOM     29  C   UNL     1       0.098   0.742   0.018  0.00  0.00    +0.124 C 
BRANCH  28  30
ATOM     30  C   UNL     1       0.277   0.516   2.483  0.00  0.00    +0.360 C 
ATOM     31  O   UNL     1       1.288  -0.098   2.235  0.00  0.00    -0.246 OA
ATOM     32  O   UNL     1      -0.105   0.693   3.757  0.00  0.00    -0.246 OA
ENDBRANCH  28  30
ENDBRANCH  21  24
ENDBRANCH   3  21
TORSDOF 6
