REMARK  Name = ZINC13348958
REMARK  8 active torsions:
REMARK  status: ('A' for Active; 'I' for Inactive)
REMARK    1  A    between atoms: C_2  and  C_3
REMARK    2  A    between atoms: C_3  and  N_4
REMARK    3  A    between atoms: C_5  and  C_24
REMARK    4  A    between atoms: C_8  and  S_9
REMARK    5  A    between atoms: S_9  and  C_10
REMARK    6  A    between atoms: C_10  and  C_11
REMARK    7  A    between atoms: N_13  and  C_14
REMARK    8  A    between atoms: C_15  and  C_22
REMARK                            x       y       z     vdW  Elec       q    Type
REMARK                         _______ _______ _______ _____ _____    ______ ____
ROOT
ATOM      1  S   UNL     1       4.399  -5.101  -0.130  0.00  0.00    -0.077 S 
ENDROOT
BRANCH   1   6
ATOM      2  N   UNL     1       4.696  -7.738  -1.014  0.00  0.00    -0.298 N 
ATOM      3  C   UNL     1       3.906  -8.864  -1.059  0.00  0.00    +0.165 A 
ATOM      4  N   UNL     1       2.741  -8.538  -0.550  0.00  0.00    -0.128 NA
ATOM      5  N   UNL     1       2.749  -7.304  -0.191  0.00  0.00    -0.122 NA
ATOM      6  C   UNL     1       3.920  -6.766  -0.448  0.00  0.00    +0.193 A 
BRANCH   3   7
ATOM      7  C   UNL     1       4.295 -10.189  -1.586  0.00  0.00    +0.019 A 
ATOM      8  C   UNL     1       3.315 -11.125  -1.921  0.00  0.00    +0.014 A 
ATOM      9  C   UNL     1       3.683 -12.358  -2.417  0.00  0.00    +0.039 A 
ATOM     10  C   UNL     1       5.024 -12.673  -2.574  0.00  0.00    +0.123 A 
ATOM     11  C   UNL     1       6.001 -11.749  -2.238  0.00  0.00    +0.039 A 
ATOM     12  C   UNL     1       5.644 -10.511  -1.746  0.00  0.00    +0.014 A 
ATOM     13  F   UNL     1       5.379 -13.884  -3.054  0.00  0.00    -0.205 F 
ENDBRANCH   3   7
BRANCH   2  14
ATOM     14  C   UNL     1       6.080  -7.609  -1.476  0.00  0.00    +0.152 C 
BRANCH  14  16
ATOM     15  C   UNL     1       7.978  -8.680  -0.374  0.00  0.00    +0.005 C 
ATOM     16  C   UNL     1       7.017  -7.792  -0.309  0.00  0.00    -0.013 C 
ENDBRANCH  14  16
ENDBRANCH   2  14
ENDBRANCH   1   6
BRANCH   1  17
ATOM     17  C   UNL     1       2.868  -4.468   0.599  0.00  0.00    +0.173 C 
BRANCH  17  18
ATOM     18  C   UNL     1       3.046  -3.016   0.962  0.00  0.00    +0.228 C 
ATOM     19  O   UNL     1       4.104  -2.464   0.748  0.00  0.00    -0.275 OA
ATOM     20  N   UNL     1       2.030  -2.332   1.523  0.00  0.00    -0.283 N 
ATOM     21  H   UNL     1       1.209  -2.791   1.761  0.00  0.00    +0.155 HD
BRANCH  20  22
ATOM     22  C   UNL     1       2.158  -0.965   1.761  0.00  0.00    +0.066 A 
ATOM     23  C   UNL     1       1.155  -0.079   1.339  0.00  0.00    +0.087 A 
ATOM     24  C   UNL     1       1.296   1.290   1.583  0.00  0.00    +0.037 A 
ATOM     25  C   UNL     1       2.416   1.761   2.236  0.00  0.00    +0.043 A 
ATOM     26  C   UNL     1       3.404   0.883   2.652  0.00  0.00    +0.042 A 
ATOM     27  C   UNL     1       3.279  -0.473   2.417  0.00  0.00    +0.064 A 
ATOM     28 CL   UNL     1       4.524  -1.562   2.942  0.00  0.00    -0.082 Cl
ATOM     29 CL   UNL     1       2.588   3.462   2.538  0.00  0.00    -0.083 Cl
BRANCH  23  30
ATOM     30  C   UNL     1      -0.039  -0.589   0.642  0.00  0.00    +0.388 C 
ATOM     31  O   UNL     1      -0.110  -1.763   0.336  0.00  0.00    -0.241 OA
ATOM     32  O   UNL     1      -1.053   0.247   0.343  0.00  0.00    -0.241 OA
ENDBRANCH  23  30
ENDBRANCH  20  22
ENDBRANCH  17  18
ENDBRANCH   1  17
TORSDOF 8
