REMARK  Name = ZINC39769015
REMARK  5 active torsions:
REMARK  status: ('A' for Active; 'I' for Inactive)
REMARK    1  A    between atoms: C_4  and  C_7
REMARK    2  A    between atoms: C_17  and  S_19
REMARK    3  A    between atoms: S_19  and  C_20
REMARK    4  A    between atoms: C_23  and  C_26
REMARK    5  A    between atoms: N_24  and  N_25
REMARK                            x       y       z     vdW  Elec       q    Type
REMARK                         _______ _______ _______ _____ _____    ______ ____
ROOT
ATOM      1  C   UNL     1       3.604  -0.642  -0.035  0.00  0.00    -0.009 C 
ATOM      2  C   UNL     1       4.804   0.074  -0.083  0.00  0.00    +0.001 A 
ATOM      3  C   UNL     1       4.800   1.481  -0.187  0.00  0.00    +0.010 A 
ATOM      4  C   UNL     1       5.982   2.153  -0.231  0.00  0.00    +0.001 A 
ATOM      5  C   UNL     1       7.200   1.480  -0.176  0.00  0.00    +0.002 A 
ATOM      6  C   UNL     1       7.268   0.123  -0.074  0.00  0.00    +0.024 A 
ATOM      7  C   UNL     1       6.086  -0.637  -0.024  0.00  0.00    +0.041 A 
ATOM      8  N   UNL     1       6.154  -1.968   0.076  0.00  0.00    -0.284 N 
ATOM      9  C   UNL     1       5.094  -2.750   0.128  0.00  0.00    +0.235 C 
ATOM     10  O   UNL     1       5.232  -3.956   0.218  0.00  0.00    -0.274 OA
ATOM     11  C   UNL     1       3.707  -2.151   0.084  0.00  0.00    +0.171 C 
ATOM     12  H   UNL     1       7.031  -2.381   0.111  0.00  0.00    +0.155 HD
ENDROOT
BRANCH   1  16
ATOM     13  C   UNL     1      -0.108   1.293  -0.194  0.00  0.00    +0.000 A 
ATOM     14  C   UNL     1       0.265   0.436  -1.216  0.00  0.00    +0.001 A 
ATOM     15  C   UNL     1       1.484  -0.205  -1.174  0.00  0.00    +0.008 A 
ATOM     16  C   UNL     1       2.348   0.013  -0.089  0.00  0.00    -0.020 A 
ATOM     17  C   UNL     1       1.960   0.884   0.943  0.00  0.00    +0.008 A 
ATOM     18  C   UNL     1       0.737   1.514   0.881  0.00  0.00    +0.001 A 
ENDBRANCH   1  16
BRANCH  11  19
ATOM     19  S   UNL     1       2.829  -2.651   1.591  0.00  0.00    -0.067 S 
BRANCH  19  20
ATOM     20  C   UNL     1       2.884  -4.412   1.550  0.00  0.00    +0.210 A 
ATOM     21  N   UNL     1       3.449  -5.153   0.624  0.00  0.00    -0.121 NA
ATOM     22  N   UNL     1       3.303  -6.399   0.906  0.00  0.00    -0.127 NA
ATOM     23  C   UNL     1       2.636  -6.529   2.029  0.00  0.00    +0.184 A 
ATOM     24  N   UNL     1       2.352  -5.261   2.479  0.00  0.00    -0.224 N 
BRANCH  23  25
ATOM     25  C   UNL     1       2.265  -7.799   2.688  0.00  0.00    +0.056 A 
ATOM     26  C   UNL     1       0.965  -7.992   3.156  0.00  0.00    +0.014 A 
ATOM     27  C   UNL     1       0.625  -9.180   3.770  0.00  0.00    +0.001 A 
ATOM     28  C   UNL     1       1.569 -10.180   3.924  0.00  0.00    +0.003 A 
ATOM     29  C   UNL     1       2.861  -9.997   3.463  0.00  0.00    +0.039 A 
ATOM     30  C   UNL     1       3.214  -8.814   2.840  0.00  0.00    +0.134 A 
ATOM     31  F   UNL     1       4.474  -8.638   2.385  0.00  0.00    -0.205 F 
ENDBRANCH  23  25
BRANCH  24  32
ATOM     32  N   UNL     1       1.675  -4.921   3.616  0.00  0.00    -0.295 N 
ATOM     33  H   UNL     1       0.679  -4.929   3.461  0.00  0.00    +0.163 HD
ATOM     34  H   UNL     1       1.927  -5.528   4.382  0.00  0.00    +0.163 HD
ENDBRANCH  24  32
ENDBRANCH  19  20
ENDBRANCH  11  19
TORSDOF 5
