REMARK  Name = ZINC04260364
REMARK  4 active torsions:
REMARK  status: ('A' for Active; 'I' for Inactive)
REMARK    1  A    between atoms: C_6  and  C_7
REMARK    2  A    between atoms: C_7  and  N_63
REMARK    3  A    between atoms: C_18  and  N_23
REMARK    4  A    between atoms: N_26  and  C_27
REMARK                            x       y       z     vdW  Elec       q    Type
REMARK                         _______ _______ _______ _____ _____    ______ ____
ROOT
ATOM      1  C   UNL     1     -10.314   1.404  -7.070  0.00  0.00    -0.073 C 
ATOM      2  C   UNL     1      -9.294   0.581  -7.843  0.00  0.00    -0.007 C 
ATOM      3  C   UNL     1      -9.452  -0.910  -7.532  0.00  0.00    +0.011 C 
ATOM      4  C   UNL     1      -9.310  -1.085  -6.015  0.00  0.00    +0.020 C 
ATOM      5  C   UNL     1     -10.434  -0.284  -5.337  0.00  0.00    -0.069 C 
ATOM      6  C   UNL     1      -7.993  -0.490  -5.569  0.00  0.00    +0.023 A 
ATOM      7  C   UNL     1      -7.416  -1.011  -4.455  0.00  0.00    +0.023 A 
ATOM      8  C   UNL     1      -6.261  -0.432  -3.916  0.00  0.00    +0.030 A 
ATOM      9  C   UNL     1      -5.740   0.683  -4.513  0.00  0.00    +0.100 A 
ATOM     10  C   UNL     1      -6.362   1.193  -5.669  0.00  0.00    +0.273 A 
ATOM     11  O   UNL     1      -5.940   2.217  -6.182  0.00  0.00    -0.266 OA
ATOM     12  N   UNL     1      -7.425   0.555  -6.217  0.00  0.00    -0.310 N 
ATOM     13  C   UNL     1      -7.870   1.015  -7.534  0.00  0.00    +0.127 C 
ATOM     14  N   UNL     1     -10.194   1.149  -5.620  0.00  0.00    +0.383 N 
ATOM     15  H   UNL     1      -9.244   1.394  -5.316  0.00  0.00    -0.081 HD
ENDROOT
BRANCH   9  16
ATOM     16  N   UNL     1      -4.601   1.306  -3.985  0.00  0.00    -0.265 N 
ATOM     17  C   UNL     1      -3.498   1.452  -4.746  0.00  0.00    +0.304 C 
ATOM     18  O   UNL     1      -3.458   0.961  -5.858  0.00  0.00    -0.252 OA
ATOM     19  N   UNL     1      -2.440   2.140  -4.274  0.00  0.00    -0.296 N 
ATOM     20  H   UNL     1      -4.606   1.633  -3.071  0.00  0.00    +0.157 HD
ATOM     21  H   UNL     1      -2.472   2.532  -3.387  0.00  0.00    +0.151 HD
BRANCH  19  22
ATOM     22  C   UNL     1      -1.241   2.298  -5.102  0.00  0.00    +0.074 C 
ATOM     23  C   UNL     1      -0.486   3.557  -4.670  0.00  0.00    +0.022 C 
ATOM     24  C   UNL     1       0.766   3.722  -5.534  0.00  0.00    +0.002 C 
ATOM     25  C   UNL     1       1.670   2.500  -5.361  0.00  0.00    +0.000 C 
ATOM     26  C   UNL     1       0.915   1.241  -5.792  0.00  0.00    +0.002 C 
ATOM     27  C   UNL     1      -0.337   1.076  -4.928  0.00  0.00    +0.022 C 
ENDBRANCH  19  22
ENDBRANCH   9  16
BRANCH  14  28
ATOM     28  C   UNL     1     -11.164   1.980  -4.880  0.00  0.00    -0.043 C 
BRANCH  28  34
ATOM     29  C   UNL     1     -13.089   2.471  -6.402  0.00  0.00    +0.004 A 
ATOM     30  C   UNL     1     -14.373   2.229  -6.853  0.00  0.00    +0.038 A 
ATOM     31  C   UNL     1     -15.139   1.241  -6.259  0.00  0.00    +0.123 A 
ATOM     32  C   UNL     1     -14.617   0.492  -5.219  0.00  0.00    +0.038 A 
ATOM     33  C   UNL     1     -13.331   0.732  -4.773  0.00  0.00    +0.004 A 
ATOM     34  C   UNL     1     -12.566   1.719  -5.367  0.00  0.00    -0.064 A 
ATOM     35  F   UNL     1     -16.396   1.007  -6.696  0.00  0.00    -0.205 F 
ENDBRANCH  28  34
ENDBRANCH  14  28
TORSDOF 4
