REMARK  Name = ZINC13243360
REMARK  9 active torsions:
REMARK  status: ('A' for Active; 'I' for Inactive)
REMARK    1  A    between atoms: C_1  and  C_2
REMARK    2  A    between atoms: C_5  and  N_8
REMARK    3  A    between atoms: C_9  and  C_27
REMARK    4  A    between atoms: C_12  and  S_13
REMARK    5  A    between atoms: S_13  and  C_14
REMARK    6  A    between atoms: C_14  and  C_15
REMARK    7  A    between atoms: N_17  and  C_18
REMARK    8  A    between atoms: C_19  and  C_26
REMARK    9  A    between atoms: C_23  and  C_24
REMARK                            x       y       z     vdW  Elec       q    Type
REMARK                         _______ _______ _______ _____ _____    ______ ____
ROOT
ATOM      1  N   UNL     1      -3.422   0.182  -1.802  0.00  0.00    -0.270 N 
ATOM      2  C   UNL     1      -2.236  -0.314  -1.308  0.00  0.00    +0.169 A 
ATOM      3  N   UNL     1      -2.542  -1.202  -0.391  0.00  0.00    -0.128 NA
ATOM      4  N   UNL     1      -3.818  -1.299  -0.281  0.00  0.00    -0.122 NA
ATOM      5  C   UNL     1      -4.409  -0.479  -1.122  0.00  0.00    +0.197 A 
ENDROOT
BRANCH   1  10
ATOM      6  C   UNL     1      -4.081   4.133  -5.824  0.00  0.00    +0.044 C 
ATOM      7  C   UNL     1      -3.906   3.084  -4.756  0.00  0.00    -0.050 A 
ATOM      8  C   UNL     1      -4.288   1.778  -5.002  0.00  0.00    +0.005 A 
ATOM      9  C   UNL     1      -4.129   0.814  -4.025  0.00  0.00    +0.026 A 
ATOM     10  C   UNL     1      -3.585   1.158  -2.795  0.00  0.00    +0.051 A 
ATOM     11  C   UNL     1      -3.208   2.471  -2.549  0.00  0.00    +0.026 A 
ATOM     12  C   UNL     1      -3.365   3.429  -3.531  0.00  0.00    +0.005 A 
ENDBRANCH   1  10
BRANCH   2  13
ATOM     13  C   UNL     1      -0.875   0.083  -1.727  0.00  0.00    +0.020 A 
ATOM     14  C   UNL     1      -0.681   0.747  -2.940  0.00  0.00    +0.013 A 
ATOM     15  C   UNL     1       0.591   1.119  -3.323  0.00  0.00    +0.021 A 
ATOM     16  C   UNL     1       1.674   0.833  -2.510  0.00  0.00    +0.041 A 
ATOM     17  C   UNL     1       1.488   0.170  -1.308  0.00  0.00    +0.021 A 
ATOM     18  C   UNL     1       0.222  -0.208  -0.914  0.00  0.00    +0.013 A 
ATOM     19 CL   UNL     1       3.271   1.306  -2.998  0.00  0.00    -0.084 Cl
ENDBRANCH   2  13
BRANCH   5  20
ATOM     20  S   UNL     1      -6.145  -0.266  -1.330  0.00  0.00    -0.076 S 
BRANCH  20  21
ATOM     21  C   UNL     1      -6.756  -1.450  -0.104  0.00  0.00    +0.173 C 
BRANCH  21  22
ATOM     22  C   UNL     1      -8.263  -1.440  -0.104  0.00  0.00    +0.228 C 
ATOM     23  O   UNL     1      -8.865  -0.705  -0.858  0.00  0.00    -0.275 OA
ATOM     24  N   UNL     1      -8.942  -2.248   0.734  0.00  0.00    -0.284 N 
ATOM     25  H   UNL     1      -8.463  -2.777   1.391  0.00  0.00    +0.155 HD
BRANCH  24  26
ATOM     26  C   UNL     1     -10.330  -2.324   0.656  0.00  0.00    +0.051 A 
ATOM     27  C   UNL     1     -11.100  -1.176   0.785  0.00  0.00    -0.028 A 
ATOM     28  C   UNL     1     -12.476  -1.253   0.702  0.00  0.00    +0.005 A 
ATOM     29  C   UNL     1     -13.099  -2.474   0.501  0.00  0.00    +0.001 A 
ATOM     30  C   UNL     1     -12.352  -3.625   0.376  0.00  0.00    +0.017 A 
ATOM     31  C   UNL     1     -10.958  -3.562   0.452  0.00  0.00    +0.085 A 
ATOM     32  C   UNL     1     -10.433   0.157   1.009  0.00  0.00    +0.046 C 
BRANCH  31  33
ATOM     33  C   UNL     1     -10.153  -4.789   0.319  0.00  0.00    +0.388 C 
ATOM     34  O   UNL     1      -8.949  -4.746   0.478  0.00  0.00    -0.241 OA
ATOM     35  O   UNL     1     -10.752  -5.959   0.020  0.00  0.00    -0.241 OA
ENDBRANCH  31  33
ENDBRANCH  24  26
ENDBRANCH  21  22
ENDBRANCH  20  21
ENDBRANCH   5  20
TORSDOF 7
