REMARK  Name = ZINC01326480
REMARK  6 active torsions:
REMARK  status: ('A' for Active; 'I' for Inactive)
REMARK    1  A    between atoms: C_4  and  O_7
REMARK    2  A    between atoms: O_7  and  C_8
REMARK    3  A    between atoms: C_11  and  N_14
REMARK    4  A    between atoms: C_15  and  C_17
REMARK    5  A    between atoms: C_21  and  C_32
REMARK    6  A    between atoms: C_24  and  C_28
REMARK                            x       y       z     vdW  Elec       q    Type
REMARK                         _______ _______ _______ _____ _____    ______ ____
ROOT
ATOM      1  C   UNL     1       3.993  -8.379   0.304  0.00  0.00    +0.110 C 
ATOM      2  C   UNL     1       2.816  -9.052   0.273  0.00  0.00    +0.072 C 
ATOM      3  C   UNL     1       3.124 -10.472   0.433  0.00  0.00    +0.114 C 
ATOM      4  N   UNL     1       2.326 -11.501   0.477  0.00  0.00    -0.362 N 
ATOM      5  C   UNL     1       2.896 -12.837   0.686  0.00  0.00    +0.149 C 
ATOM      6  C   UNL     1       4.289 -12.931   0.063  0.00  0.00    +0.065 C 
ATOM      7  C   UNL     1       5.202 -11.853   0.668  0.00  0.00    +0.202 C 
ATOM      8  N   UNL     1       4.507 -10.569   0.533  0.00  0.00    -0.226 N 
ATOM      9  N   UNL     1       5.030  -9.283   0.468  0.00  0.00    -0.258 N 
ATOM     10  H   UNL     1       5.971  -9.054   0.530  0.00  0.00    +0.170 HD
ATOM     11  H   UNL     1       1.369 -11.385   0.372  0.00  0.00    +0.162 HD
ENDROOT
BRANCH   5  12
ATOM     12  C   UNL     1       1.998 -13.866   0.050  0.00  0.00    +0.127 A 
ATOM     13  C   UNL     1       1.684 -15.066   0.571  0.00  0.00    +0.047 A 
ATOM     14  C   UNL     1       0.822 -15.700  -0.352  0.00  0.00    +0.041 A 
ATOM     15  C   UNL     1       0.659 -14.850  -1.382  0.00  0.00    +0.195 A 
ATOM     16  O   UNL     1       1.369 -13.738  -1.130  0.00  0.00    -0.466 OA
ENDBRANCH   5  12
BRANCH   1  18
ATOM     17  N   UNL     1       3.057  -6.134   0.021  0.00  0.00    -0.280 N 
ATOM     18  C   UNL     1       4.145  -6.913   0.177  0.00  0.00    +0.264 C 
ATOM     19  O   UNL     1       5.252  -6.412   0.213  0.00  0.00    -0.268 OA
ATOM     20  H   UNL     1       2.180  -6.538  -0.071  0.00  0.00    +0.155 HD
BRANCH  17  24
ATOM     21  C   UNL     1       3.460  -1.986  -0.064  0.00  0.00    +0.129 A 
ATOM     22  C   UNL     1       4.447  -2.790  -0.617  0.00  0.00    +0.048 A 
ATOM     23  C   UNL     1       4.314  -4.164  -0.589  0.00  0.00    +0.027 A 
ATOM     24  C   UNL     1       3.192  -4.741  -0.007  0.00  0.00    +0.034 A 
ATOM     25  C   UNL     1       2.205  -3.936   0.546  0.00  0.00    +0.027 A 
ATOM     26  C   UNL     1       2.342  -2.562   0.522  0.00  0.00    +0.048 A 
BRANCH  21  27
ATOM     27  O   UNL     1       3.591  -0.633  -0.092  0.00  0.00    -0.456 OA
BRANCH  27  31
ATOM     28  C   UNL     1       2.897   1.307  -3.667  0.00  0.00    +0.000 A 
ATOM     29  C   UNL     1       2.874  -0.075  -3.615  0.00  0.00    +0.004 A 
ATOM     30  C   UNL     1       3.106  -0.727  -2.420  0.00  0.00    +0.046 A 
ATOM     31  C   UNL     1       3.363   0.006  -1.270  0.00  0.00    +0.128 A 
ATOM     32  C   UNL     1       3.386   1.392  -1.324  0.00  0.00    +0.046 A 
ATOM     33  C   UNL     1       3.153   2.039  -2.522  0.00  0.00    +0.004 A 
ENDBRANCH  27  31
ENDBRANCH  21  27
ENDBRANCH  17  24
ENDBRANCH   1  18
BRANCH   7  34
ATOM     34  C   UNL     1       6.531 -11.810  -0.089  0.00  0.00    +0.410 C 
ATOM     35  F   UNL     1       6.292 -11.509  -1.434  0.00  0.00    -0.169 F 
ATOM     36  F   UNL     1       7.355 -10.827   0.470  0.00  0.00    -0.169 F 
ATOM     37  F   UNL     1       7.162 -13.056   0.006  0.00  0.00    -0.169 F 
ENDBRANCH   7  34
TORSDOF 6
