REMARK  Name = ZINC39687193
REMARK  6 active torsions:
REMARK  status: ('A' for Active; 'I' for Inactive)
REMARK    1  A    between atoms: C_1  and  C_2
REMARK    2  A    between atoms: C_2  and  C_4
REMARK    3  A    between atoms: C_2  and  N_12
REMARK    4  A    between atoms: C_4  and  C_5
REMARK    5  A    between atoms: C_13  and  C_15
REMARK    6  A    between atoms: C_26  and  C_28
REMARK                            x       y       z     vdW  Elec       q    Type
REMARK                         _______ _______ _______ _____ _____    ______ ____
ROOT
ATOM      1  C   UNL     1       0.764  -1.087  -3.545  0.00  0.00    +0.100 C 
ATOM      2  C   UNL     1       0.979  -2.615  -3.461  0.00  0.00    +0.121 C 
ATOM      3  N   UNL     1      -0.085  -3.191  -4.316  0.00  0.00    -0.295 N 
ATOM      4  C   UNL     1      -0.163  -2.272  -5.477  0.00  0.00    +0.115 C 
ATOM      5  C   UNL     1       0.017  -0.866  -4.871  0.00  0.00    -0.004 C 
ATOM      6  C   UNL     1      -1.343  -0.227  -4.611  0.00  0.00    -0.010 C 
ATOM      7  C   UNL     1      -2.043   0.035  -5.948  0.00  0.00    -0.082 C 
ATOM      8  N   UNL     1      -1.212   0.922  -6.771  0.00  0.00    +0.379 N 
ATOM      9  C   UNL     1       0.059   0.262  -7.094  0.00  0.00    -0.082 C 
ATOM     10  C   UNL     1       0.847   0.009  -5.806  0.00  0.00    -0.010 C 
ATOM     11  C   UNL     1      -0.818  -4.300  -4.089  0.00  0.00    +0.265 C 
ATOM     12  O   UNL     1      -0.701  -4.901  -3.040  0.00  0.00    -0.268 OA
ATOM     13  H   UNL     1      -1.702   1.142  -7.626  0.00  0.00    -0.086 HD
ATOM     14  H   UNL     1      -1.027   1.774  -6.264  0.00  0.00    -0.086 HD
ENDROOT
BRANCH  11  15
ATOM     15  C   UNL     1      -1.766  -4.785  -5.120  0.00  0.00    +0.126 A 
ATOM     16  C   UNL     1      -2.609  -5.865  -4.821  0.00  0.00    +0.033 A 
ATOM     17  C   UNL     1      -3.487  -6.322  -5.761  0.00  0.00    +0.012 A 
ATOM     18  C   UNL     1      -3.513  -5.682  -7.015  0.00  0.00    +0.000 A 
ATOM     19  C   UNL     1      -4.391  -6.099  -8.028  0.00  0.00    +0.010 A 
ATOM     20  C   UNL     1      -4.389  -5.456  -9.228  0.00  0.00    +0.001 A 
ATOM     21  C   UNL     1      -3.526  -4.387  -9.466  0.00  0.00    +0.002 A 
ATOM     22  C   UNL     1      -2.662  -3.955  -8.508  0.00  0.00    +0.028 A 
ATOM     23  C   UNL     1      -2.633  -4.594  -7.254  0.00  0.00    +0.072 A 
ATOM     24  N   UNL     1      -1.801  -4.189  -6.296  0.00  0.00    -0.242 NA
ENDBRANCH  11  15
BRANCH   1  26
ATOM     25  N   UNL     1      -0.038   0.685  -2.018  0.00  0.00    -0.312 N 
ATOM     26  C   UNL     1      -0.073  -0.611  -2.386  0.00  0.00    +0.218 C 
ATOM     27  O   UNL     1      -0.777  -1.393  -1.784  0.00  0.00    -0.275 OA
ATOM     28  H   UNL     1       0.578   1.297  -2.452  0.00  0.00    +0.149 HD
BRANCH  25  30
ATOM     29  C   UNL     1      -2.321   1.429  -1.550  0.00  0.00    +0.028 C 
ATOM     30  C   UNL     1      -0.931   1.171  -0.963  0.00  0.00    +0.074 C 
BRANCH  30  31
ATOM     31  C   UNL     1      -0.374   2.473  -0.382  0.00  0.00    +0.060 C 
BRANCH  31  32
ATOM     32  C   UNL     1       0.932   2.192   0.315  0.00  0.00    -0.010 A 
ATOM     33  C   UNL     1       0.944   1.882   1.662  0.00  0.00    +0.006 A 
ATOM     34  C   UNL     1       2.142   1.625   2.302  0.00  0.00    +0.000 A 
ATOM     35  C   UNL     1       3.330   1.678   1.596  0.00  0.00    +0.003 A 
ATOM     36  C   UNL     1       3.320   1.987   0.249  0.00  0.00    +0.038 A 
ATOM     37  C   UNL     1       2.120   2.240  -0.394  0.00  0.00    +0.127 A 
ATOM     38  F   UNL     1       2.109   2.538  -1.712  0.00  0.00    -0.205 F 
ENDBRANCH  31  32
ENDBRANCH  30  31
ENDBRANCH  25  30
ENDBRANCH   1  26
TORSDOF 5
