REMARK  Name = ZINC15230737
REMARK  8 active torsions:
REMARK  status: ('A' for Active; 'I' for Inactive)
REMARK    1  A    between atoms: C_1  and  C_2
REMARK    2  A    between atoms: C_5  and  C_16
REMARK    3  A    between atoms: C_5  and  C_31
REMARK    4  A    between atoms: C_6  and  C_9
REMARK    5  A    between atoms: N_18  and  N_19
REMARK    6  A    between atoms: N_19  and  C_20
REMARK    7  A    between atoms: C_25  and  C_29
REMARK    8  A    between atoms: C_25  and  C_30
REMARK                            x       y       z     vdW  Elec       q    Type
REMARK                         _______ _______ _______ _____ _____    ______ ____
ROOT
ATOM      1  C   UNL     1      10.823   1.860  -3.479  0.00  0.00    +0.039 C 
ATOM      2  C   UNL     1       9.519   2.099  -2.763  0.00  0.00    -0.076 C 
ATOM      3  C   UNL     1       9.018   1.125  -2.074  0.00  0.00    -0.026 C 
ATOM      4  C   UNL     1       7.735   1.215  -1.300  0.00  0.00    +0.055 C 
ATOM      5  C   UNL     1       6.918   2.420  -1.772  0.00  0.00    +0.159 C 
ATOM      6  C   UNL     1       7.835   3.649  -1.794  0.00  0.00    +0.049 C 
ATOM      7  C   UNL     1       8.883   3.452  -2.892  0.00  0.00    +0.040 C 
ENDROOT
BRANCH   6   8
ATOM      8  C   UNL     1       7.021   4.884  -2.081  0.00  0.00    -0.042 A 
ATOM      9  C   UNL     1       6.416   5.042  -3.314  0.00  0.00    +0.005 A 
ATOM     10  C   UNL     1       5.665   6.172  -3.576  0.00  0.00    +0.015 A 
ATOM     11  C   UNL     1       5.526   7.150  -2.608  0.00  0.00    +0.018 A 
ATOM     12  C   UNL     1       6.136   6.994  -1.376  0.00  0.00    +0.015 A 
ATOM     13  C   UNL     1       6.882   5.861  -1.113  0.00  0.00    +0.005 A 
ATOM     14 BR   UNL     1       4.505   8.700  -2.969  0.00  0.00    -0.050 Br
ENDBRANCH   6   8
BRANCH   5  15
ATOM     15  C   UNL     1       5.773   2.659  -0.822  0.00  0.00    +0.247 C 
ATOM     16  O   UNL     1       5.694   3.709  -0.220  0.00  0.00    -0.273 OA
ATOM     17  N   UNL     1       4.837   1.707  -0.642  0.00  0.00    -0.236 N 
ATOM     18  H   UNL     1       4.900   0.868  -1.124  0.00  0.00    +0.173 HD
BRANCH  17  19
ATOM     19  N   UNL     1       3.772   1.930   0.241  0.00  0.00    -0.271 N 
ATOM     20  H   UNL     1       3.709   2.769   0.723  0.00  0.00    +0.169 HD
BRANCH  19  21
ATOM     21  C   UNL     1       2.835   0.977   0.421  0.00  0.00    +0.110 C 
ATOM     22  C   UNL     1       1.785   1.196   1.292  0.00  0.00    +0.158 C 
ATOM     23  C   UNL     1       0.720   0.191   1.537  0.00  0.00    +0.350 C 
ATOM     24  O   UNL     1       0.943  -1.005   1.543  0.00  0.00    -0.245 OA
ATOM     25  O   UNL     1      -0.524   0.703   1.748  0.00  0.00    -0.419 OA
ATOM     26  C   UNL     1      -0.582   1.824   2.680  0.00  0.00    +0.255 C 
ATOM     27  O   UNL     1       0.343   2.864   2.253  0.00  0.00    -0.419 OA
ATOM     28  C   UNL     1       1.629   2.457   2.060  0.00  0.00    +0.350 C 
ATOM     29  O   UNL     1       2.580   3.083   2.486  0.00  0.00    -0.245 OA
ATOM     30  C   UNL     1      -0.198   1.346   4.082  0.00  0.00    +0.104 C 
ATOM     31  C   UNL     1      -2.005   2.388   2.707  0.00  0.00    +0.104 C 
ENDBRANCH  19  21
ENDBRANCH  17  19
ENDBRANCH   5  15
BRANCH   5  32
ATOM     32  C   UNL     1       6.382   2.163  -3.157  0.00  0.00    +0.372 C 
ATOM     33  O   UNL     1       5.204   2.302  -3.384  0.00  0.00    -0.245 OA
ATOM     34  O   UNL     1       7.214   1.779  -4.138  0.00  0.00    -0.245 OA
ENDBRANCH   5  32
TORSDOF 5
