REMARK  Name = ZINC12716783
REMARK  13 active torsions:
REMARK  status: ('A' for Active; 'I' for Inactive)
REMARK    1  A    between atoms: C_1  and  O_2
REMARK    2  A    between atoms: O_2  and  C_3
REMARK    3  A    between atoms: C_6  and  C_11
REMARK    4  A    between atoms: C_8  and  O_9
REMARK    5  A    between atoms: O_9  and  C_10
REMARK    6  A    between atoms: C_11  and  C_13
REMARK    7  A    between atoms: C_11  and  N_21
REMARK    8  A    between atoms: N_15  and  C_16
REMARK    9  A    between atoms: N_21  and  C_22
REMARK   10  A    between atoms: C_22  and  C_23
REMARK   11  A    between atoms: C_28  and  C_30
REMARK   12  A    between atoms: C_31  and  N_38
REMARK   13  A    between atoms: C_32  and  C_35
REMARK                            x       y       z     vdW  Elec       q    Type
REMARK                         _______ _______ _______ _____ _____    ______ ____
ROOT
ATOM      1  N   UNL     1       1.881  -3.748  -5.668  0.00  0.00    -0.274 N 
ATOM      2  C   UNL     1       0.641  -3.764  -6.196  0.00  0.00    +0.258 C 
ATOM      3  O   UNL     1      -0.329  -3.601  -5.479  0.00  0.00    -0.269 OA
ENDROOT
BRANCH   2   4
ATOM      4  C   UNL     1       0.461  -3.976  -7.634  0.00  0.00    +0.115 A 
ATOM      5  C   UNL     1      -0.720  -4.084  -8.370  0.00  0.00    +0.076 A 
ATOM      6  C   UNL     1      -0.507  -4.285  -9.733  0.00  0.00    +0.155 A 
ATOM      7  N   UNL     1       0.724  -4.355 -10.194  0.00  0.00    -0.203 NA
ATOM      8  S   UNL     1       1.689  -4.158  -8.911  0.00  0.00    +0.019 S 
BRANCH   6   9
ATOM      9  C   UNL     1      -1.653  -4.421 -10.651  0.00  0.00    +0.262 C 
ATOM     10  O   UNL     1      -2.787  -4.283 -10.233  0.00  0.00    -0.269 OA
ATOM     11  N   UNL     1      -1.444  -4.697 -11.953  0.00  0.00    -0.324 N 
ATOM     12  H   UNL     1      -0.539  -4.807 -12.287  0.00  0.00    +0.145 HD
ATOM     13  H   UNL     1      -2.197  -4.786 -12.557  0.00  0.00    +0.145 HD
ENDBRANCH   6   9
BRANCH   5  14
ATOM     14  N   UNL     1      -1.983  -3.999  -7.801  0.00  0.00    -0.355 N 
ATOM     15  H   UNL     1      -2.083  -3.692  -6.886  0.00  0.00    +0.142 HD
ATOM     16  H   UNL     1      -2.766  -4.247  -8.318  0.00  0.00    +0.142 HD
ENDBRANCH   5  14
ENDBRANCH   2   4
BRANCH   1  17
ATOM     17  C   UNL     1       2.057  -3.643  -4.217  0.00  0.00    +0.193 C 
BRANCH  17  21
ATOM     18  C   UNL     1       1.863   0.468  -3.056  0.00  0.00    +0.162 A 
ATOM     19  C   UNL     1       2.638   0.087  -4.140  0.00  0.00    +0.050 A 
ATOM     20  C   UNL     1       2.699  -1.242  -4.513  0.00  0.00    +0.010 A 
ATOM     21  C   UNL     1       1.988  -2.195  -3.807  0.00  0.00    -0.015 A 
ATOM     22  C   UNL     1       1.212  -1.821  -2.725  0.00  0.00    +0.055 A 
ATOM     23  C   UNL     1       1.152  -0.491  -2.342  0.00  0.00    +0.162 A 
BRANCH  18  25
ATOM     24  C   UNL     1       2.558   2.705  -3.467  0.00  0.00    +0.277 C 
ATOM     25  O   UNL     1       1.802   1.776  -2.688  0.00  0.00    -0.491 OA
ENDBRANCH  18  25
BRANCH  23  26
ATOM     26  O   UNL     1       0.394  -0.123  -1.274  0.00  0.00    -0.491 OA
ATOM     27  C   UNL     1      -0.309  -1.161  -0.589  0.00  0.00    +0.277 C 
ENDBRANCH  23  26
ENDBRANCH  17  21
BRANCH  17  28
ATOM     28  C   UNL     1       3.399  -4.210  -3.832  0.00  0.00    +0.238 C 
ATOM     29  O   UNL     1       4.397  -3.866  -4.430  0.00  0.00    -0.273 OA
ATOM     30  N   UNL     1       3.491  -5.100  -2.824  0.00  0.00    -0.311 N 
ATOM     31  H   UNL     1       2.693  -5.375  -2.346  0.00  0.00    +0.149 HD
BRANCH  30  32
ATOM     32  C   UNL     1       4.795  -5.651  -2.450  0.00  0.00    +0.073 C 
ATOM     33  C   UNL     1       5.101  -6.906  -3.294  0.00  0.00    +0.022 C 
ATOM     34  C   UNL     1       5.826  -7.858  -2.311  0.00  0.00    +0.002 C 
ATOM     35  C   UNL     1       5.066  -7.620  -0.982  0.00  0.00    +0.002 C 
ATOM     36  C   UNL     1       4.774  -6.106  -0.980  0.00  0.00    +0.022 C 
ENDBRANCH  30  32
ENDBRANCH  17  28
ENDBRANCH   1  17
BRANCH   1  37
ATOM     37  C   UNL     1       3.052  -3.836  -6.544  0.00  0.00    +0.183 C 
BRANCH  37  38
ATOM     38  C   UNL     1       3.523  -5.266  -6.610  0.00  0.00    +0.122 A 
ATOM     39  C   UNL     1       3.011  -6.227  -7.399  0.00  0.00    +0.046 A 
ATOM     40  C   UNL     1       3.748  -7.405  -7.140  0.00  0.00    +0.041 A 
ATOM     41  C   UNL     1       4.668  -7.093  -6.209  0.00  0.00    +0.195 A 
ATOM     42  O   UNL     1       4.530  -5.794  -5.896  0.00  0.00    -0.466 OA
ENDBRANCH  37  38
ENDBRANCH   1  37
TORSDOF 11
