REMARK  Name = ZINC04545366
REMARK  3 active torsions:
REMARK  status: ('A' for Active; 'I' for Inactive)
REMARK    1  A    between atoms: C_1  and  C_2
REMARK    2  A    between atoms: C_12  and  O_25
REMARK    3  A    between atoms: C_17  and  O_24
REMARK                            x       y       z     vdW  Elec       q    Type
REMARK                         _______ _______ _______ _____ _____    ______ ____
ROOT
ATOM      1  C   UNL     1      -3.519   3.314  -0.400  0.00  0.00    +0.052 C 
ATOM      2  C   UNL     1      -3.450   1.959  -1.108  0.00  0.00    +0.174 C 
ATOM      3  C   UNL     1      -3.316   2.175  -2.620  0.00  0.00    +0.045 C 
ATOM      4  C   UNL     1      -1.949   2.783  -2.934  0.00  0.00    +0.008 C 
ATOM      5  C   UNL     1      -0.943   1.676  -3.257  0.00  0.00    +0.027 C 
ATOM      6  C   UNL     1       0.063   2.186  -4.255  0.00  0.00    -0.031 C 
ATOM      7  C   UNL     1       1.318   1.823  -4.207  0.00  0.00    -0.027 C 
ATOM      8  C   UNL     1       1.833   0.875  -3.157  0.00  0.00    +0.020 C 
ATOM      9  C   UNL     1       2.509  -0.321  -3.841  0.00  0.00    +0.039 C 
ATOM     10  C   UNL     1       4.019  -0.177  -3.630  0.00  0.00    +0.115 C 
ATOM     11  C   UNL     1       4.246   0.939  -2.607  0.00  0.00    +0.038 C 
ATOM     12  C   UNL     1       2.888   1.577  -2.297  0.00  0.00    +0.031 C 
ATOM     13  C   UNL     1       2.560   1.397  -0.812  0.00  0.00    +0.141 C 
ATOM     14  C   UNL     1       1.228   2.044  -0.531  0.00  0.00    +0.011 C 
ATOM     15  C   UNL     1       0.140   1.290  -0.392  0.00  0.00    +0.090 C 
ATOM     16  C   UNL     1      -1.179   1.934  -0.378  0.00  0.00    +0.332 C 
ATOM     17  O   UNL     1      -1.268   3.120  -0.128  0.00  0.00    -0.246 OA
ATOM     18  O   UNL     1      -2.289   1.223  -0.639  0.00  0.00    -0.459 OA
ENDROOT
BRANCH  13  19
ATOM     19  O   UNL     1       2.491   0.004  -0.502  0.00  0.00    -0.387 OA
ATOM     20  H   UNL     1       2.274  -0.183   0.422  0.00  0.00    +0.210 HD
ENDBRANCH  13  19
BRANCH  10  21
ATOM     21  O   UNL     1       4.558  -1.404  -3.135  0.00  0.00    -0.392 OA
ATOM     22  H   UNL     1       4.447  -2.153  -3.736  0.00  0.00    +0.210 HD
ENDBRANCH  10  21
TORSDOF 2
