REMARK  Name = ZINC13499858
REMARK  9 active torsions:
REMARK  status: ('A' for Active; 'I' for Inactive)
REMARK    1  A    between atoms: C_1  and  C_2
REMARK    2  A    between atoms: C_2  and  C_3
REMARK    3  A    between atoms: C_11  and  C_15
REMARK    4  A    between atoms: C_18  and  S_21
REMARK    5  A    between atoms: S_21  and  C_22
REMARK    6  A    between atoms: C_22  and  C_23
REMARK    7  A    between atoms: N_25  and  C_26
REMARK    8  A    between atoms: C_30  and  N_32
REMARK    9  A    between atoms: C_33  and  C_35
REMARK                            x       y       z     vdW  Elec       q    Type
REMARK                         _______ _______ _______ _____ _____    ______ ____
ROOT
ATOM      1  C   UNL     1      -0.751   3.972   0.019  0.00  0.00    +0.118 A 
ATOM      2  N   UNL     1      -1.010   2.696   0.012  0.00  0.00    -0.226 NA
ATOM      3  C   UNL     1      -0.050   1.775   0.020  0.00  0.00    +0.114 A 
ATOM      4  C   UNL     1       1.312   2.109   0.028  0.00  0.00    +0.056 A 
ATOM      5  C   UNL     1       2.234   1.032   0.029  0.00  0.00    -0.024 A 
ATOM      6  C   UNL     1       1.731  -0.225   0.025  0.00  0.00    -0.004 A 
ATOM      7  S   UNL     1      -0.028  -0.001   0.017  0.00  0.00    -0.073 S 
ATOM      8  C   UNL     1       2.495  -1.512   0.027  0.00  0.00    +0.046 C 
ATOM      9  C   UNL     1       3.953  -1.209   0.404  0.00  0.00    -0.009 C 
ATOM     10  C   UNL     1       4.438  -0.020  -0.430  0.00  0.00    +0.008 C 
ATOM     11  C   UNL     1       3.744   1.260   0.035  0.00  0.00    +0.037 C 
ATOM     12  C   UNL     1       4.824  -2.432   0.109  0.00  0.00    +0.008 C 
ATOM     13  C   UNL     1       1.595   3.561   0.032  0.00  0.00    +0.173 A 
ATOM     14  N   UNL     1       0.532   4.438   0.027  0.00  0.00    -0.257 N 
ATOM     15  C   UNL     1       1.090   5.686   0.033  0.00  0.00    +0.198 A 
ATOM     16  N   UNL     1       2.394   5.529   0.041  0.00  0.00    -0.122 NA
ATOM     17  N   UNL     1       2.693   4.276   0.041  0.00  0.00    -0.128 NA
ENDROOT
BRANCH   1  19
ATOM     18  C   UNL     1      -2.270   5.291  -1.431  0.00  0.00    +0.012 C 
ATOM     19  C   UNL     1      -1.892   4.956   0.014  0.00  0.00    +0.071 C 
ENDBRANCH   1  19
BRANCH  15  20
ATOM     20  S   UNL     1       0.222   7.219   0.029  0.00  0.00    -0.076 S 
BRANCH  20  21
ATOM     21  C   UNL     1       1.538   8.468   0.039  0.00  0.00    +0.173 C 
BRANCH  21  22
ATOM     22  C   UNL     1       0.924   9.845   0.037  0.00  0.00    +0.227 C 
ATOM     23  O   UNL     1      -0.282   9.971   0.028  0.00  0.00    -0.275 OA
ATOM     24  N   UNL     1       1.715  10.936   0.043  0.00  0.00    -0.285 N 
ATOM     25  H   UNL     1       2.677  10.836   0.117  0.00  0.00    +0.155 HD
BRANCH  24  26
ATOM     26  C   UNL     1       1.149  12.211  -0.057  0.00  0.00    +0.035 A 
ATOM     27  C   UNL     1      -0.079  12.475   0.537  0.00  0.00    +0.023 A 
ATOM     28  C   UNL     1      -0.639  13.735   0.439  0.00  0.00    +0.004 A 
ATOM     29  C   UNL     1       0.021  14.735  -0.249  0.00  0.00    +0.023 A 
ATOM     30  C   UNL     1       1.249  14.478  -0.844  0.00  0.00    +0.035 A 
ATOM     31  C   UNL     1       1.816  13.215  -0.743  0.00  0.00    +0.046 A 
BRANCH  30  32
ATOM     32  N   UNL     1       1.916  15.491  -1.541  0.00  0.00    -0.286 N 
ATOM     33  C   UNL     1       1.838  16.767  -1.113  0.00  0.00    +0.214 C 
ATOM     34  O   UNL     1       1.123  17.049  -0.175  0.00  0.00    -0.276 OA
ATOM     35  C   UNL     1       2.639  17.843  -1.800  0.00  0.00    +0.109 C 
ATOM     36  H   UNL     1       2.435  15.276  -2.332  0.00  0.00    +0.155 HD
ENDBRANCH  30  32
ENDBRANCH  24  26
ENDBRANCH  21  22
ENDBRANCH  20  21
ENDBRANCH  15  20
TORSDOF 6
