REMARK  Name = ZINC08920005
REMARK  6 active torsions:
REMARK  status: ('A' for Active; 'I' for Inactive)
REMARK    1  A    between atoms: C_1  and  C_2
REMARK    2  A    between atoms: C_3  and  C_28
REMARK    3  A    between atoms: N_9  and  C_12
REMARK    4  A    between atoms: C_12  and  C_13
REMARK    5  A    between atoms: N_15  and  C_16
REMARK    6  A    between atoms: C_17  and  C_25
REMARK                            x       y       z     vdW  Elec       q    Type
REMARK                         _______ _______ _______ _____ _____    ______ ____
ROOT
ATOM      1  C   UNL     1      -2.071   1.434   7.290  0.00  0.00    +0.222 C 
ENDROOT
BRANCH   1  10
ATOM      2  C   UNL     1      -4.171   7.468  11.374  0.00  0.00    +0.052 C 
ATOM      3  C   UNL     1      -4.194   6.166  10.616  0.00  0.00    -0.003 A 
ATOM      4  C   UNL     1      -3.169   5.543   9.986  0.00  0.00    +0.007 A 
ATOM      5  C   UNL     1      -3.427   4.277   9.310  0.00  0.00    +0.080 A 
ATOM      6  C   UNL     1      -4.754   3.822   9.384  0.00  0.00    +0.116 A 
ATOM      7  S   UNL     1      -5.576   5.077  10.332  0.00  0.00    -0.073 S 
ATOM      8  N   UNL     1      -5.140   2.684   8.815  0.00  0.00    -0.230 NA
ATOM      9  C   UNL     1      -4.292   1.938   8.158  0.00  0.00    +0.203 A 
ATOM     10  N   UNL     1      -2.989   2.300   8.034  0.00  0.00    -0.290 N 
ATOM     11  C   UNL     1      -2.523   3.435   8.587  0.00  0.00    +0.263 A 
ATOM     12  O   UNL     1      -1.349   3.743   8.472  0.00  0.00    -0.267 OA
BRANCH   4  13
ATOM     13  C   UNL     1      -1.811   6.137   9.984  0.00  0.00    -0.016 A 
ATOM     14  C   UNL     1      -1.233   6.558   8.787  0.00  0.00    +0.011 A 
ATOM     15  C   UNL     1       0.029   7.114   8.790  0.00  0.00    +0.039 A 
ATOM     16  C   UNL     1       0.727   7.246   9.980  0.00  0.00    +0.123 A 
ATOM     17  C   UNL     1       0.160   6.824  11.171  0.00  0.00    +0.039 A 
ATOM     18  C   UNL     1      -1.105   6.271  11.178  0.00  0.00    +0.011 A 
ATOM     19  F   UNL     1       1.965   7.787   9.978  0.00  0.00    -0.205 F 
ENDBRANCH   4  13
ENDBRANCH   1  10
BRANCH   1  20
ATOM     20  C   UNL     1      -2.065   1.840   5.838  0.00  0.00    +0.237 C 
ATOM     21  O   UNL     1      -2.759   2.761   5.463  0.00  0.00    -0.273 OA
ATOM     22  N   UNL     1      -1.288   1.179   4.957  0.00  0.00    -0.278 N 
ATOM     23  H   UNL     1      -0.734   0.442   5.258  0.00  0.00    +0.155 HD
BRANCH  22  24
ATOM     24  C   UNL     1      -1.282   1.552   3.622  0.00  0.00    +0.084 A 
ATOM     25  C   UNL     1      -0.558   0.999   2.575  0.00  0.00    +0.068 A 
ATOM     26  C   UNL     1      -0.732   1.580   1.257  0.00  0.00    -0.023 A 
ATOM     27  C   UNL     1      -1.601   2.615   1.194  0.00  0.00    -0.004 A 
ATOM     28  S   UNL     1      -2.178   2.821   2.855  0.00  0.00    -0.077 S 
ATOM     29  C   UNL     1      -1.979   3.405  -0.021  0.00  0.00    +0.043 C 
ATOM     30  C   UNL     1      -0.956   3.111  -1.127  0.00  0.00    +0.005 C 
ATOM     31  C   UNL     1      -0.758   1.595  -1.227  0.00  0.00    +0.005 C 
ATOM     32  C   UNL     1      -0.013   1.086   0.008  0.00  0.00    +0.037 C 
BRANCH  25  33
ATOM     33  C   UNL     1       0.351  -0.131   2.793  0.00  0.00    +0.244 C 
ATOM     34  O   UNL     1      -0.061  -1.272   2.693  0.00  0.00    -0.270 OA
ATOM     35  N   UNL     1       1.643   0.094   3.104  0.00  0.00    -0.325 N 
ATOM     36  H   UNL     1       1.971   1.004   3.184  0.00  0.00    +0.145 HD
ATOM     37  H   UNL     1       2.244  -0.653   3.248  0.00  0.00    +0.145 HD
ENDBRANCH  25  33
ENDBRANCH  22  24
ENDBRANCH   1  20
TORSDOF 5
