REMARK  Name = ZINC12445358
REMARK  9 active torsions:
REMARK  status: ('A' for Active; 'I' for Inactive)
REMARK    1  A    between atoms: C_1  and  C_2
REMARK    2  A    between atoms: C_4  and  C_30
REMARK    3  A    between atoms: C_6  and  N_21
REMARK    4  A    between atoms: C_7  and  C_11
REMARK    5  A    between atoms: C_11  and  C_13
REMARK    6  A    between atoms: C_11  and  O_20
REMARK    7  A    between atoms: C_22  and  C_24
REMARK    8  A    between atoms: C_30  and  O_31
REMARK    9  A    between atoms: O_31  and  C_32
REMARK                            x       y       z     vdW  Elec       q    Type
REMARK                         _______ _______ _______ _____ _____    ______ ____
ROOT
ATOM      1  C   UNL     1       4.536   1.840  -1.081  0.00  0.00    +0.065 C 
ATOM      2  C   UNL     1       3.448   1.083  -0.363  0.00  0.00    +0.040 A 
ATOM      3  C   UNL     1       3.518   0.913   1.011  0.00  0.00    +0.029 A 
ATOM      4  C   UNL     1       2.532   0.224   1.679  0.00  0.00    -0.009 A 
ATOM      5  C   UNL     1       1.447  -0.306   0.941  0.00  0.00    +0.035 A 
ATOM      6  C   UNL     1       0.297  -1.063   1.420  0.00  0.00    +0.056 A 
ATOM      7  C   UNL     1      -0.628  -1.476   0.535  0.00  0.00    +0.046 A 
ATOM      8  S   UNL     1      -0.013  -0.871  -1.025  0.00  0.00    -0.069 S 
ATOM      9  C   UNL     1       1.469  -0.078  -0.453  0.00  0.00    +0.111 A 
ATOM     10  N   UNL     1       2.435   0.587  -1.046  0.00  0.00    -0.245 NA
ENDROOT
BRANCH   6  11
ATOM     11  N   UNL     1       0.156  -1.357   2.787  0.00  0.00    -0.280 N 
ATOM     12  C   UNL     1       0.622  -2.523   3.277  0.00  0.00    +0.248 C 
ATOM     13  O   UNL     1       1.195  -3.305   2.543  0.00  0.00    -0.270 OA
ATOM     14  H   UNL     1      -0.276  -0.721   3.378  0.00  0.00    +0.155 HD
BRANCH  12  15
ATOM     15  C   UNL     1       0.435  -2.852   4.706  0.00  0.00    +0.037 A 
ATOM     16  C   UNL     1      -0.218  -1.954   5.552  0.00  0.00    +0.013 A 
ATOM     17  C   UNL     1      -0.393  -2.269   6.883  0.00  0.00    +0.001 A 
ATOM     18  C   UNL     1       0.086  -3.467   7.383  0.00  0.00    +0.000 A 
ATOM     19  C   UNL     1       0.739  -4.359   6.551  0.00  0.00    +0.001 A 
ATOM     20  C   UNL     1       0.916  -4.059   5.216  0.00  0.00    +0.013 A 
ENDBRANCH  12  15
ENDBRANCH   6  11
BRANCH   7  21
ATOM     21  C   UNL     1      -1.885  -2.264   0.800  0.00  0.00    +0.183 C 
BRANCH  21  22
ATOM     22  C   UNL     1      -2.857  -2.053  -0.332  0.00  0.00    -0.014 A 
ATOM     23  C   UNL     1      -3.488  -0.832  -0.483  0.00  0.00    +0.007 A 
ATOM     24  C   UNL     1      -4.376  -0.636  -1.524  0.00  0.00    +0.015 A 
ATOM     25  C   UNL     1      -4.643  -1.666  -2.408  0.00  0.00    +0.018 A 
ATOM     26  C   UNL     1      -4.016  -2.889  -2.253  0.00  0.00    +0.015 A 
ATOM     27  C   UNL     1      -3.123  -3.082  -1.216  0.00  0.00    +0.007 A 
ATOM     28 BR   UNL     1      -5.863  -1.401  -3.828  0.00  0.00    -0.050 Br
ENDBRANCH  21  22
BRANCH  21  29
ATOM     29  O   UNL     1      -2.475  -1.821   2.024  0.00  0.00    -0.382 OA
ATOM     30  H   UNL     1      -2.719  -0.886   2.027  0.00  0.00    +0.211 HD
ENDBRANCH  21  29
ENDBRANCH   7  21
BRANCH   4  31
ATOM     31  C   UNL     1       2.606   0.038   3.172  0.00  0.00    +0.195 C 
BRANCH  31  32
ATOM     32  O   UNL     1       3.789   0.664   3.672  0.00  0.00    -0.378 OA
ATOM     33  C   UNL     1       3.956   0.546   5.087  0.00  0.00    +0.194 C 
ENDBRANCH  31  32
ENDBRANCH   4  31
TORSDOF 7
