REMARK  Name = ZINC40947240
REMARK  8 active torsions:
REMARK  status: ('A' for Active; 'I' for Inactive)
REMARK    1  A    between atoms: C_6  and  C_7
REMARK    2  A    between atoms: C_7  and  O_8
REMARK    3  A    between atoms: O_8  and  C_9
REMARK    4  A    between atoms: C_12  and  C_15
REMARK    5  A    between atoms: N_16  and  N_17
REMARK    6  A    between atoms: C_18  and  C_20
REMARK    7  A    between atoms: C_20  and  S_21
REMARK    8  A    between atoms: S_21  and  C_22
REMARK                            x       y       z     vdW  Elec       q    Type
REMARK                         _______ _______ _______ _____ _____    ______ ____
ROOT
ATOM      1  C   UNL     1      -6.479  -3.873  -2.039  0.00  0.00    +0.138 C 
ATOM      2  N   UNL     1      -7.117  -4.338  -1.009  0.00  0.00    -0.188 NA
ENDROOT
BRANCH   1   6
ATOM      3  C   UNL     1      -2.331  -3.013  -1.755  0.00  0.00    +0.121 A 
ATOM      4  C   UNL     1      -2.947  -3.785  -0.778  0.00  0.00    +0.046 A 
ATOM      5  C   UNL     1      -4.293  -4.067  -0.866  0.00  0.00    +0.013 A 
ATOM      6  C   UNL     1      -5.039  -3.575  -1.940  0.00  0.00    -0.005 A 
ATOM      7  C   UNL     1      -4.415  -2.798  -2.920  0.00  0.00    +0.013 A 
ATOM      8  C   UNL     1      -3.070  -2.517  -2.821  0.00  0.00    +0.046 A 
BRANCH   3   9
ATOM      9  O   UNL     1      -1.004  -2.738  -1.663  0.00  0.00    -0.487 OA
BRANCH   9  10
ATOM     10  C   UNL     1      -0.305  -3.279  -0.541  0.00  0.00    +0.264 C 
BRANCH  10  16
ATOM     11  C   UNL     1       1.561  -1.698  -0.008  0.00  0.00    +0.008 A 
ATOM     12  C   UNL     1       2.890  -1.324  -0.069  0.00  0.00    +0.015 A 
ATOM     13  C   UNL     1       3.804  -2.124  -0.731  0.00  0.00    +0.018 A 
ATOM     14  C   UNL     1       3.387  -3.299  -1.332  0.00  0.00    +0.015 A 
ATOM     15  C   UNL     1       2.057  -3.672  -1.270  0.00  0.00    +0.008 A 
ATOM     16  C   UNL     1       1.145  -2.872  -0.608  0.00  0.00    -0.010 A 
ATOM     17 BR   UNL     1       5.622  -1.613  -0.816  0.00  0.00    -0.050 Br
ENDBRANCH  10  16
ENDBRANCH   9  10
ENDBRANCH   3   9
ENDBRANCH   1   6
BRANCH   2  18
ATOM     18  N   UNL     1      -6.651  -4.069   0.284  0.00  0.00    -0.206 N 
ATOM     19  C   UNL     1      -7.234  -4.658   1.347  0.00  0.00    +0.242 C 
ATOM     20  O   UNL     1      -8.163  -5.421   1.183  0.00  0.00    -0.273 OA
ATOM     21  H   UNL     1      -5.909  -3.459   0.415  0.00  0.00    +0.177 HD
BRANCH  19  22
ATOM     22  C   UNL     1      -6.733  -4.369   2.738  0.00  0.00    +0.173 C 
BRANCH  22  23
ATOM     23  S   UNL     1      -7.715  -5.305   3.942  0.00  0.00    -0.088 S 
BRANCH  23  24
ATOM     24  C   UNL     1      -7.015  -4.864   5.498  0.00  0.00    +0.160 A 
ATOM     25  N   UNL     1      -6.016  -4.044   5.763  0.00  0.00    -0.133 NA
ATOM     26  N   UNL     1      -5.626  -3.841   7.067  0.00  0.00    -0.125 NA
ATOM     27  C   UNL     1      -6.252  -4.466   8.044  0.00  0.00    +0.180 A 
ATOM     28  S   UNL     1      -7.473  -5.403   7.138  0.00  0.00    -0.025 S 
ATOM     29  N   UNL     1      -6.025  -4.407   9.415  0.00  0.00    -0.336 N 
ATOM     30  H   UNL     1      -5.319  -3.843   9.766  0.00  0.00    +0.144 HD
ATOM     31  H   UNL     1      -6.573  -4.931  10.020  0.00  0.00    +0.144 HD
ENDBRANCH  23  24
ENDBRANCH  22  23
ENDBRANCH  19  22
ENDBRANCH   2  18
TORSDOF 8
