REMARK  Name = ZINC02872517
REMARK  7 active torsions:
REMARK  status: ('A' for Active; 'I' for Inactive)
REMARK    1  A    between atoms: C_1  and  C_2
REMARK    2  A    between atoms: C_3  and  C_8
REMARK    3  A    between atoms: C_4  and  C_7
REMARK    4  A    between atoms: N_10  and  C_11
REMARK    5  A    between atoms: C_14  and  S_17
REMARK    6  A    between atoms: S_17  and  N_20
REMARK    7  A    between atoms: N_20  and  C_21
REMARK                            x       y       z     vdW  Elec       q    Type
REMARK                         _______ _______ _______ _____ _____    ______ ____
ROOT
ATOM      1  C   UNL     1       6.457  -1.770   0.559  0.00  0.00    +0.034 A 
ATOM      2  C   UNL     1       5.777  -2.874   1.056  0.00  0.00    +0.025 A 
ATOM      3  C   UNL     1       4.520  -3.184   0.575  0.00  0.00    +0.030 A 
ATOM      4  C   UNL     1       3.938  -2.396  -0.401  0.00  0.00    +0.109 A 
ATOM      5  C   UNL     1       4.614  -1.299  -0.902  0.00  0.00    +0.030 A 
ATOM      6  C   UNL     1       5.869  -0.980  -0.421  0.00  0.00    +0.025 A 
ENDROOT
BRANCH   1   9
ATOM      7  C   UNL     1       8.570  -2.436   1.423  0.00  0.00    +0.253 C 
ATOM      8  O   UNL     1       8.260  -3.600   1.255  0.00  0.00    -0.270 OA
ATOM      9  N   UNL     1       7.730  -1.453   1.044  0.00  0.00    -0.281 N 
ATOM     10  H   UNL     1       8.008  -0.526   1.107  0.00  0.00    +0.155 HD
BRANCH   7  13
ATOM     11  C   UNL     1       9.232  -2.003   4.631  0.00  0.00    +0.070 C 
ATOM     12  C   UNL     1      10.180  -1.904   3.463  0.00  0.00    +0.093 A 
ATOM     13  C   UNL     1       9.866  -2.100   2.040  0.00  0.00    +0.101 A 
ATOM     14  C   UNL     1      11.077  -1.888   1.427  0.00  0.00    +0.147 A 
ATOM     15  O   UNL     1      11.948  -1.615   2.401  0.00  0.00    -0.359 OA
ATOM     16  N   UNL     1      11.451  -1.630   3.500  0.00  0.00    -0.083 NA
ATOM     17  C   UNL     1      11.365  -1.951  -0.051  0.00  0.00    +0.090 C 
ENDBRANCH   7  13
ENDBRANCH   1   9
BRANCH   4  18
ATOM     18  S   UNL     1       2.334  -2.795  -1.011  0.00  0.00    +0.072 S 
ATOM     19  O   UNL     1       2.094  -4.152  -0.665  0.00  0.00    -0.150 OA
ATOM     20  O   UNL     1       2.284  -2.331  -2.353  0.00  0.00    -0.150 OA
BRANCH  18  21
ATOM     21  N   UNL     1       1.245  -1.888  -0.156  0.00  0.00    -0.216 N 
ATOM     22  H   UNL     1       0.684  -1.243  -0.615  0.00  0.00    +0.174 HD
BRANCH  21  23
ATOM     23  C   UNL     1       1.134  -2.050   1.228  0.00  0.00    +0.048 A 
ATOM     24  C   UNL     1       1.089  -0.938   2.058  0.00  0.00    +0.026 A 
ATOM     25  C   UNL     1       0.979  -1.102   3.425  0.00  0.00    +0.022 A 
ATOM     26  C   UNL     1       0.914  -2.373   3.968  0.00  0.00    +0.041 A 
ATOM     27  C   UNL     1       0.959  -3.483   3.143  0.00  0.00    +0.022 A 
ATOM     28  C   UNL     1       1.068  -3.325   1.775  0.00  0.00    +0.026 A 
ATOM     29 CL   UNL     1       0.777  -2.575   5.686  0.00  0.00    -0.084 Cl
ENDBRANCH  21  23
ENDBRANCH  18  21
ENDBRANCH   4  18
TORSDOF 5
