REMARK  Name = ZINC01518498
REMARK  4 active torsions:
REMARK  status: ('A' for Active; 'I' for Inactive)
REMARK    1  A    between atoms: C_1  and  C_2
REMARK    2  A    between atoms: C_8  and  C_20
REMARK    3  A    between atoms: C_9  and  N_11
REMARK    4  A    between atoms: C_12  and  C_14
REMARK                            x       y       z     vdW  Elec       q    Type
REMARK                         _______ _______ _______ _____ _____    ______ ____
ROOT
ATOM      1  C   UNL     1       5.986   0.004   0.227  0.00  0.00    +0.008 C 
ATOM      2  C   UNL     1       4.473  -0.122   0.416  0.00  0.00    -0.009 C 
ATOM      3  C   UNL     1       3.951  -1.292  -0.422  0.00  0.00    +0.009 C 
ATOM      4  C   UNL     1       2.492  -1.569  -0.031  0.00  0.00    +0.043 C 
ATOM      5  C   UNL     1       1.753  -0.266  -0.016  0.00  0.00    -0.004 A 
ATOM      6  C   UNL     1       2.288   0.974  -0.014  0.00  0.00    -0.023 A 
ATOM      7  C   UNL     1       1.326   2.063   0.001  0.00  0.00    +0.068 A 
ATOM      8  C   UNL     1      -0.021   1.728   0.011  0.00  0.00    +0.085 A 
ATOM      9  S   UNL     1       0.002  -0.004   0.002  0.00  0.00    -0.077 S 
ATOM     10  C   UNL     1       3.798   1.177  -0.027  0.00  0.00    +0.040 C 
ENDROOT
BRANCH   7  11
ATOM     11  C   UNL     1       1.762   3.462   0.003  0.00  0.00    +0.244 C 
ATOM     12  O   UNL     1       1.953   4.038   1.058  0.00  0.00    -0.270 OA
ATOM     13  N   UNL     1       1.951   4.112  -1.163  0.00  0.00    -0.325 N 
ATOM     14  H   UNL     1       1.798   3.653  -2.003  0.00  0.00    +0.145 HD
ATOM     15  H   UNL     1       2.239   5.038  -1.161  0.00  0.00    +0.145 HD
ENDBRANCH   7  11
BRANCH   8  16
ATOM     16  N   UNL     1      -1.118   2.574   0.022  0.00  0.00    -0.275 N 
ATOM     17  C   UNL     1      -2.365   2.062   0.026  0.00  0.00    +0.255 C 
ATOM     18  O   UNL     1      -2.526   0.855   0.020  0.00  0.00    -0.269 OA
ATOM     19  H   UNL     1      -0.989   3.536   0.026  0.00  0.00    +0.156 HD
BRANCH  17  20
ATOM     20  C   UNL     1      -3.524   2.955   0.036  0.00  0.00    +0.076 A 
ATOM     21  C   UNL     1      -4.874   2.637   0.036  0.00  0.00    +0.022 A 
ATOM     22  C   UNL     1      -5.763   3.681   0.052  0.00  0.00    +0.028 A 
ATOM     23  C   UNL     1      -5.288   4.957   0.056  0.00  0.00    +0.079 A 
ATOM     24  S   UNL     1      -3.568   4.739   0.045  0.00  0.00    -0.072 S 
ATOM     25 CL   UNL     1      -6.187   6.442   0.067  0.00  0.00    -0.076 Cl
ENDBRANCH  17  20
ENDBRANCH   8  16
TORSDOF 3
