REMARK  Name = ZINC38597410
REMARK  9 active torsions:
REMARK  status: ('A' for Active; 'I' for Inactive)
REMARK    1  A    between atoms: C_1  and  C_2
REMARK    2  A    between atoms: C_2  and  C_4
REMARK    3  A    between atoms: C_2  and  N_24
REMARK    4  A    between atoms: C_4  and  C_6
REMARK    5  A    between atoms: C_4  and  N_11
REMARK    6  A    between atoms: N_14  and  C_17
REMARK    7  A    between atoms: C_17  and  C_18
REMARK    8  A    between atoms: N_27  and  C_28
REMARK    9  A    between atoms: C_31  and  C_34
REMARK                            x       y       z     vdW  Elec       q    Type
REMARK                         _______ _______ _______ _____ _____    ______ ____
ROOT
ATOM      1  C   UNL     1      -1.656  -0.316  -0.197  0.00  0.00    +0.113 C 
ENDROOT
BRANCH   1   2
ATOM      2  N   UNL     1      -2.382   0.212  -1.359  0.00  0.00    -0.297 NA
ATOM      3  C   UNL     1      -3.778  -0.249  -1.363  0.00  0.00    +0.066 C 
ATOM      4  C   UNL     1      -4.514   0.369  -2.553  0.00  0.00    -0.063 C 
ATOM      5  N   UNL     1      -3.847  -0.025  -3.800  0.00  0.00    +0.384 N 
ATOM      6  C   UNL     1      -2.462   0.464  -3.793  0.00  0.00    -0.063 C 
ATOM      7  C   UNL     1      -1.709  -0.154  -2.613  0.00  0.00    +0.066 C 
ATOM      8  H   UNL     1      -3.848  -1.032  -3.878  0.00  0.00    -0.081 HD
BRANCH   5   9
ATOM      9  C   UNL     1      -4.564   0.554  -4.944  0.00  0.00    -0.043 C 
BRANCH   9  10
ATOM     10  C   UNL     1      -3.955   0.050  -6.227  0.00  0.00    -0.064 A 
ATOM     11  C   UNL     1      -2.915   0.744  -6.817  0.00  0.00    +0.002 A 
ATOM     12  C   UNL     1      -2.356   0.282  -7.994  0.00  0.00    +0.000 A 
ATOM     13  C   UNL     1      -2.837  -0.874  -8.581  0.00  0.00    +0.000 A 
ATOM     14  C   UNL     1      -3.877  -1.568  -7.990  0.00  0.00    +0.000 A 
ATOM     15  C   UNL     1      -4.433  -1.108  -6.811  0.00  0.00    +0.002 A 
ENDBRANCH   9  10
ENDBRANCH   5   9
ENDBRANCH   1   2
BRANCH   1  16
ATOM     16  C   UNL     1      -2.308   0.175   1.069  0.00  0.00    +0.009 A 
ATOM     17  C   UNL     1      -2.453  -0.462   2.257  0.00  0.00    +0.013 A 
ATOM     18  C   UNL     1      -3.094   0.191   3.294  0.00  0.00    +0.008 A 
ATOM     19  C   UNL     1      -3.558   1.449   3.091  0.00  0.00    +0.045 A 
ATOM     20  S   UNL     1      -3.085   1.749   1.396  0.00  0.00    -0.100 S 
ENDBRANCH   1  16
BRANCH   1  22
ATOM     21  C   UNL     1      -0.172   1.694  -0.244  0.00  0.00    +0.030 C 
ATOM     22  C   UNL     1      -0.204   0.164  -0.242  0.00  0.00    +0.093 C 
BRANCH  22  23
ATOM     23  N   UNL     1       0.513  -0.337   0.933  0.00  0.00    -0.295 N 
ATOM     24  C   UNL     1       1.851  -0.493   0.891  0.00  0.00    +0.304 C 
ATOM     25  O   UNL     1       2.463  -0.218  -0.123  0.00  0.00    -0.253 OA
ATOM     26  N   UNL     1       2.510  -0.955   1.972  0.00  0.00    -0.269 N 
ATOM     27  H   UNL     1       0.025  -0.557   1.742  0.00  0.00    +0.151 HD
ATOM     28  H   UNL     1       2.015  -1.253   2.751  0.00  0.00    +0.156 HD
BRANCH  26  29
ATOM     29  C   UNL     1       3.909  -1.003   1.970  0.00  0.00    +0.035 A 
ATOM     30  C   UNL     1       4.570  -2.033   2.627  0.00  0.00    +0.024 A 
ATOM     31  C   UNL     1       5.950  -2.079   2.623  0.00  0.00    +0.014 A 
ATOM     32  C   UNL     1       6.674  -1.100   1.967  0.00  0.00    +0.055 A 
ATOM     33  C   UNL     1       6.019  -0.073   1.312  0.00  0.00    +0.014 A 
ATOM     34  C   UNL     1       4.638  -0.025   1.307  0.00  0.00    +0.024 A 
BRANCH  32  35
ATOM     35  C   UNL     1       8.180  -1.153   1.965  0.00  0.00    +0.417 C 
ATOM     36  F   UNL     1       8.620  -1.890   0.860  0.00  0.00    -0.166 F 
ATOM     37  F   UNL     1       8.692   0.147   1.891  0.00  0.00    -0.166 F 
ATOM     38  F   UNL     1       8.627  -1.764   3.141  0.00  0.00    -0.166 F 
ENDBRANCH  32  35
ENDBRANCH  26  29
ENDBRANCH  22  23
ENDBRANCH   1  22
TORSDOF 8
