REMARK  Name = ZINC32126266
REMARK  6 active torsions:
REMARK  status: ('A' for Active; 'I' for Inactive)
REMARK    1  A    between atoms: C_3  and  N_18
REMARK    2  A    between atoms: C_6  and  N_7
REMARK    3  A    between atoms: C_8  and  C_10
REMARK    4  A    between atoms: N_18  and  C_19
REMARK    5  A    between atoms: C_19  and  N_21
REMARK    6  A    between atoms: C_22  and  C_24
REMARK                            x       y       z     vdW  Elec       q    Type
REMARK                         _______ _______ _______ _____ _____    ______ ____
ROOT
ATOM      1  C   UNL     1      10.167  -4.279   5.646  0.00  0.00    +0.025 A 
ATOM      2  C   UNL     1       8.893  -4.293   5.115  0.00  0.00    +0.025 A 
ATOM      3  C   UNL     1       8.367  -3.143   4.541  0.00  0.00    +0.033 A 
ATOM      4  C   UNL     1       9.124  -1.980   4.496  0.00  0.00    +0.025 A 
ATOM      5  C   UNL     1      10.396  -1.964   5.032  0.00  0.00    +0.025 A 
ATOM      6  C   UNL     1      10.922  -3.114   5.607  0.00  0.00    +0.034 A 
ENDROOT
BRANCH   6   7
ATOM      7  N   UNL     1      12.214  -3.099   6.146  0.00  0.00    -0.281 N 
ATOM      8  C   UNL     1      13.003  -4.186   6.037  0.00  0.00    +0.250 C 
ATOM      9  O   UNL     1      12.573  -5.199   5.518  0.00  0.00    -0.270 OA
ATOM     10  H   UNL     1      12.586  -2.200   6.659  0.00  0.00    +0.155 HD
BRANCH   8  11
ATOM     11  C   UNL     1      14.389  -4.148   6.546  0.00  0.00    +0.055 A 
ATOM     12  C   UNL     1      14.885  -2.987   7.142  0.00  0.00    +0.016 A 
ATOM     13  C   UNL     1      16.179  -2.957   7.616  0.00  0.00    +0.021 A 
ATOM     14  C   UNL     1      16.988  -4.076   7.503  0.00  0.00    +0.042 A 
ATOM     15  C   UNL     1      16.503  -5.231   6.914  0.00  0.00    +0.040 A 
ATOM     16  C   UNL     1      15.207  -5.276   6.439  0.00  0.00    +0.054 A 
ATOM     17 CL   UNL     1      14.598  -6.727   5.706  0.00  0.00    -0.083 Cl
ATOM     18 CL   UNL     1      18.616  -4.030   8.102  0.00  0.00    -0.083 Cl
ENDBRANCH   8  11
ENDBRANCH   6   7
BRANCH   3  19
ATOM     19  N   UNL     1       7.074  -3.158   4.002  0.00  0.00    -0.297 N 
ATOM     20  H   UNL     1       6.878  -2.682   3.030  0.00  0.00    +0.154 HD
BRANCH  19  21
ATOM     21  C   UNL     1       6.071  -3.756   4.674  0.00  0.00    +0.141 C 
ATOM     22  S   UNL     1       6.393  -4.580   6.139  0.00  0.00    -0.018 S 
BRANCH  21  23
ATOM     23  N   UNL     1       4.813  -3.705   4.192  0.00  0.00    -0.264 N 
ATOM     24  C   UNL     1       3.809  -4.303   4.864  0.00  0.00    +0.250 C 
ATOM     25  O   UNL     1       4.038  -4.888   5.905  0.00  0.00    -0.270 OA
ATOM     26  H   UNL     1       4.605  -3.175   3.251  0.00  0.00    +0.157 HD
BRANCH  24  27
ATOM     27  C   UNL     1       2.432  -4.247   4.337  0.00  0.00    +0.041 A 
ATOM     28  C   UNL     1       2.167  -3.575   3.141  0.00  0.00    +0.017 A 
ATOM     29  C   UNL     1       0.881  -3.524   2.650  0.00  0.00    +0.050 A 
ATOM     30  C   UNL     1      -0.155  -4.140   3.340  0.00  0.00    +0.166 A 
ATOM     31  C   UNL     1       0.103  -4.813   4.535  0.00  0.00    +0.167 A 
ATOM     32  C   UNL     1       1.390  -4.867   5.032  0.00  0.00    +0.062 A 
ATOM     33  O   UNL     1      -1.071  -5.325   5.009  0.00  0.00    -0.453 OA
ATOM     34  C   UNL     1      -1.976  -5.309   3.889  0.00  0.00    +0.466 C 
ATOM     35  O   UNL     1      -1.489  -4.231   3.070  0.00  0.00    -0.453 OA
ENDBRANCH  24  27
ENDBRANCH  21  23
ENDBRANCH  19  21
ENDBRANCH   3  19
TORSDOF 6
