REMARK  Name = ZINC02377007
REMARK  8 active torsions:
REMARK  status: ('A' for Active; 'I' for Inactive)
REMARK    1  A    between atoms: C_1  and  C_2
REMARK    2  A    between atoms: C_5  and  C_8
REMARK    3  A    between atoms: C_11  and  S_14
REMARK    4  A    between atoms: N_12  and  N_13
REMARK    5  A    between atoms: S_14  and  C_15
REMARK    6  A    between atoms: C_15  and  C_16
REMARK    7  A    between atoms: N_18  and  C_19
REMARK    8  A    between atoms: C_22  and  C_26
REMARK                            x       y       z     vdW  Elec       q    Type
REMARK                         _______ _______ _______ _____ _____    ______ ____
ROOT
ATOM      1  C   UNL     1      10.683  -1.702  -1.418  0.00  0.00    +0.182 A 
ATOM      2  N   UNL     1       9.828  -2.551  -0.898  0.00  0.00    -0.127 NA
ATOM      3  N   UNL     1       8.665  -2.009  -0.817  0.00  0.00    -0.121 NA
ATOM      4  C   UNL     1       8.705  -0.783  -1.289  0.00  0.00    +0.209 A 
ATOM      5  N   UNL     1       9.990  -0.543  -1.685  0.00  0.00    -0.224 N 
ENDROOT
BRANCH   1  10
ATOM      6  C   UNL     1      16.274  -2.646  -2.398  0.00  0.00    +0.044 C 
ATOM      7  C   UNL     1      14.810  -2.399  -2.141  0.00  0.00    -0.050 A 
ATOM      8  C   UNL     1      14.323  -1.104  -2.126  0.00  0.00    +0.004 A 
ATOM      9  C   UNL     1      12.983  -0.871  -1.891  0.00  0.00    +0.012 A 
ATOM     10  C   UNL     1      12.119  -1.945  -1.670  0.00  0.00    +0.021 A 
ATOM     11  C   UNL     1      12.619  -3.248  -1.681  0.00  0.00    +0.012 A 
ATOM     12  C   UNL     1      13.959  -3.468  -1.922  0.00  0.00    +0.004 A 
ENDBRANCH   1  10
BRANCH   5  13
ATOM     13  N   UNL     1      10.485   0.607  -2.231  0.00  0.00    -0.295 N 
ATOM     14  H   UNL     1      10.908   1.190  -1.524  0.00  0.00    +0.163 HD
ATOM     15  H   UNL     1      11.140   0.403  -2.971  0.00  0.00    +0.163 HD
ENDBRANCH   5  13
BRANCH   4  16
ATOM     16  S   UNL     1       7.354   0.344  -1.386  0.00  0.00    -0.075 S 
BRANCH  16  17
ATOM     17  C   UNL     1       6.037  -0.683  -0.690  0.00  0.00    +0.173 C 
BRANCH  17  18
ATOM     18  C   UNL     1       4.748   0.097  -0.673  0.00  0.00    +0.228 C 
ATOM     19  O   UNL     1       4.722   1.235  -1.090  0.00  0.00    -0.275 OA
ATOM     20  N   UNL     1       3.623  -0.471  -0.194  0.00  0.00    -0.283 N 
ATOM     21  H   UNL     1       3.655  -1.362   0.189  0.00  0.00    +0.155 HD
BRANCH  20  22
ATOM     22  C   UNL     1       2.410   0.225  -0.248  0.00  0.00    +0.062 A 
ATOM     23  C   UNL     1       2.045   0.898  -1.407  0.00  0.00    +0.040 A 
ATOM     24  C   UNL     1       0.846   1.585  -1.457  0.00  0.00    +0.020 A 
ATOM     25  C   UNL     1       0.011   1.603  -0.355  0.00  0.00    -0.048 A 
ATOM     26  C   UNL     1       0.371   0.933   0.800  0.00  0.00    +0.020 A 
ATOM     27  C   UNL     1       1.568   0.245   0.857  0.00  0.00    +0.040 A 
ATOM     28 BR   UNL     1       2.059  -0.670   2.437  0.00  0.00    -0.048 Br
ATOM     29  C   UNL     1      -1.292   2.358  -0.411  0.00  0.00    +0.044 C 
ATOM     30 BR   UNL     1       3.187   0.876  -2.914  0.00  0.00    -0.048 Br
ENDBRANCH  20  22
ENDBRANCH  17  18
ENDBRANCH  16  17
ENDBRANCH   4  16
TORSDOF 6
