REMARK  Name = ZINC12503297
REMARK  8 active torsions:
REMARK  status: ('A' for Active; 'I' for Inactive)
REMARK    1  A    between atoms: C_9  and  O_12
REMARK    2  A    between atoms: O_12  and  C_13
REMARK    3  A    between atoms: C_13  and  C_14
REMARK    4  A    between atoms: N_16  and  C_17
REMARK    5  A    between atoms: C_17  and  N_19
REMARK    6  A    between atoms: N_19  and  N_20
REMARK    7  A    between atoms: C_21  and  C_23
REMARK    8  A    between atoms: C_26  and  N_29
REMARK                            x       y       z     vdW  Elec       q    Type
REMARK                         _______ _______ _______ _____ _____    ______ ____
ROOT
ATOM      1  C   UNL     1      -0.014   1.208   0.009  0.00  0.00    +0.256 C 
ATOM      2  O   UNL     1       0.002  -0.004   0.002  0.00  0.00    -0.272 OA
ATOM      3  N   UNL     1      -1.191   1.866   0.018  0.00  0.00    -0.264 N 
ATOM      4  H   UNL     1      -1.204   2.836   0.023  0.00  0.00    +0.157 HD
ENDROOT
BRANCH   3   5
ATOM      5  C   UNL     1      -2.349   1.177   0.020  0.00  0.00    +0.153 C 
ATOM      6  S   UNL     1      -2.325  -0.535   0.010  0.00  0.00    -0.017 S 
BRANCH   5   7
ATOM      7  N   UNL     1      -3.525   1.835   0.029  0.00  0.00    -0.245 N 
ATOM      8  H   UNL     1      -4.358   1.338   0.030  0.00  0.00    +0.172 HD
BRANCH   7   9
ATOM      9  N   UNL     1      -3.544   3.235   0.036  0.00  0.00    -0.231 N 
ATOM     10  C   UNL     1      -4.720   3.893   0.046  0.00  0.00    +0.260 C 
ATOM     11  O   UNL     1      -5.764   3.271   0.047  0.00  0.00    -0.269 OA
ATOM     12  H   UNL     1      -2.710   3.732   0.035  0.00  0.00    +0.173 HD
BRANCH  10  13
ATOM     13  C   UNL     1      -4.740   5.372   0.054  0.00  0.00    +0.038 A 
ATOM     14  C   UNL     1      -3.543   6.089   0.058  0.00  0.00    +0.015 A 
ATOM     15  C   UNL     1      -3.568   7.468   0.061  0.00  0.00    +0.033 A 
ATOM     16  C   UNL     1      -4.778   8.140   0.070  0.00  0.00    +0.126 A 
ATOM     17  C   UNL     1      -5.968   7.436   0.071  0.00  0.00    +0.033 A 
ATOM     18  C   UNL     1      -5.956   6.056   0.063  0.00  0.00    +0.015 A 
BRANCH  16  19
ATOM     19  N   UNL     1      -4.798   9.620   0.079  0.00  0.00    +0.056 N 
ATOM     20  O   UNL     1      -5.861  10.215   0.087  0.00  0.00    -0.126 OA
ATOM     21  O   UNL     1      -3.751  10.244   0.078  0.00  0.00    -0.126 OA
ENDBRANCH  16  19
ENDBRANCH  10  13
ENDBRANCH   7   9
ENDBRANCH   5   7
ENDBRANCH   3   5
BRANCH   1  22
ATOM     22  C   UNL     1       1.280   1.979   0.001  0.00  0.00    +0.325 C 
BRANCH  22  23
ATOM     23  O   UNL     1       2.379   1.066  -0.015  0.00  0.00    -0.482 OA
BRANCH  23  32
ATOM     24  C   UNL     1       8.541   2.475  -0.063  0.00  0.00    +0.001 A 
ATOM     25  C   UNL     1       8.395   1.089  -0.069  0.00  0.00    +0.001 A 
ATOM     26  C   UNL     1       7.161   0.515  -0.061  0.00  0.00    +0.010 A 
ATOM     27  C   UNL     1       6.015   1.330  -0.047  0.00  0.00    -0.000 A 
ATOM     28  C   UNL     1       6.164   2.740  -0.041  0.00  0.00    -0.017 A 
ATOM     29  C   UNL     1       7.455   3.295  -0.049  0.00  0.00    +0.008 A 
ATOM     30  C   UNL     1       5.020   3.557  -0.026  0.00  0.00    +0.012 A 
ATOM     31  C   UNL     1       3.783   2.991  -0.018  0.00  0.00    +0.047 A 
ATOM     32  C   UNL     1       3.628   1.602  -0.024  0.00  0.00    +0.136 A 
ATOM     33  C   UNL     1       4.726   0.772  -0.033  0.00  0.00    +0.067 A 
ATOM     34 BR   UNL     1       4.500  -1.106  -0.034  0.00  0.00    -0.046 Br
ENDBRANCH  23  32
ENDBRANCH  22  23
ENDBRANCH   1  22
TORSDOF 8
