REMARK  Name = ZINC17206049
REMARK  4 active torsions:
REMARK  status: ('A' for Active; 'I' for Inactive)
REMARK    1  A    between atoms: C_4  and  S_7
REMARK    2  A    between atoms: S_7  and  N_10
REMARK    3  A    between atoms: N_10  and  C_11
REMARK    4  A    between atoms: N_21  and  C_22
REMARK                            x       y       z     vdW  Elec       q    Type
REMARK                         _______ _______ _______ _____ _____    ______ ____
ROOT
ATOM      1  C   UNL     1       5.012  -0.005  -2.367  0.00  0.00    +0.203 A 
ATOM      2  C   UNL     1       5.125  -0.185  -3.767  0.00  0.00    +0.167 A 
ATOM      3  N   UNL     1       5.312   0.850  -4.559  0.00  0.00    -0.227 NA
ATOM      4  C   UNL     1       5.396   2.083  -4.036  0.00  0.00    +0.091 A 
ATOM      5  C   UNL     1       5.595   3.202  -4.860  0.00  0.00    +0.030 A 
ATOM      6  C   UNL     1       5.676   4.444  -4.305  0.00  0.00    +0.002 A 
ATOM      7  C   UNL     1       5.566   4.620  -2.929  0.00  0.00    +0.002 A 
ATOM      8  C   UNL     1       5.373   3.556  -2.100  0.00  0.00    +0.030 A 
ATOM      9  C   UNL     1       5.284   2.262  -2.637  0.00  0.00    +0.092 A 
ATOM     10  N   UNL     1       5.088   1.200  -1.842  0.00  0.00    -0.224 NA
ATOM     11  N   UNL     1       5.038  -1.460  -4.307  0.00  0.00    -0.294 N 
ATOM     12  H   UNL     1       4.778  -2.313  -3.664  0.00  0.00    +0.154 HD
ENDROOT
BRANCH  11  13
ATOM     13  C   UNL     1       5.282  -1.660  -5.670  0.00  0.00    +0.068 A 
ATOM     14  C   UNL     1       6.128  -0.801  -6.359  0.00  0.00    +0.027 A 
ATOM     15  C   UNL     1       6.367  -1.001  -7.705  0.00  0.00    +0.017 A 
ATOM     16  C   UNL     1       5.765  -2.056  -8.368  0.00  0.00    +0.021 A 
ATOM     17  C   UNL     1       4.921  -2.914  -7.686  0.00  0.00    +0.055 A 
ATOM     18  C   UNL     1       4.682  -2.723  -6.337  0.00  0.00    +0.145 A 
ATOM     19  F   UNL     1       3.862  -3.564  -5.669  0.00  0.00    -0.204 F 
ATOM     20 BR   UNL     1       6.096  -2.325 -10.210  0.00  0.00    -0.050 Br
ENDBRANCH  11  13
BRANCH   1  21
ATOM     21  N   UNL     1       4.815  -1.104  -1.545  0.00  0.00    -0.074 NA
BRANCH  21  22
ATOM     22  S   UNL     1       4.682  -0.900   0.093  0.00  0.00    +0.093 S 
ATOM     23  O   UNL     1       5.770  -0.076   0.489  0.00  0.00    -0.148 OA
ATOM     24  O   UNL     1       4.462  -2.189   0.647  0.00  0.00    -0.148 OA
BRANCH  22  28
ATOM     25  C   UNL     1       0.911   1.491   0.841  0.00  0.00    +0.000 A 
ATOM     26  C   UNL     1       2.116   2.142   0.651  0.00  0.00    +0.002 A 
ATOM     27  C   UNL     1       3.267   1.412   0.422  0.00  0.00    +0.029 A 
ATOM     28  C   UNL     1       3.214   0.031   0.385  0.00  0.00    +0.110 A 
ATOM     29  C   UNL     1       2.010  -0.620   0.575  0.00  0.00    +0.029 A 
ATOM     30  C   UNL     1       0.858   0.110   0.803  0.00  0.00    +0.002 A 
ENDBRANCH  22  28
ENDBRANCH  21  22
ENDBRANCH   1  21
TORSDOF 4
