REMARK  Name = ZINC49490837
REMARK  8 active torsions:
REMARK  status: ('A' for Active; 'I' for Inactive)
REMARK    1  A    between atoms: C_1  and  S_2
REMARK    2  A    between atoms: S_2  and  N_5
REMARK    3  A    between atoms: C_12  and  N_15
REMARK    4  A    between atoms: C_16  and  C_18
REMARK    5  A    between atoms: N_20  and  C_21
REMARK    6  A    between atoms: C_21  and  C_22
REMARK    7  A    between atoms: C_22  and  C_24
REMARK    8  A    between atoms: C_22  and  N_29
REMARK                            x       y       z     vdW  Elec       q    Type
REMARK                         _______ _______ _______ _____ _____    ______ ____
ROOT
ATOM      1  C   UNL     1       6.999   1.300   1.774  0.00  0.00    +0.299 C 
ATOM      2  O   UNL     1       6.340   1.537   2.765  0.00  0.00    -0.265 OA
ATOM      3  N   UNL     1       8.345   1.304   1.841  0.00  0.00    -0.306 N 
ATOM      4  H   UNL     1       8.871   1.115   1.049  0.00  0.00    +0.149 HD
ENDROOT
BRANCH   1   6
ATOM      5  N   UNL     1       4.971   0.999   0.411  0.00  0.00    -0.278 N 
ATOM      6  C   UNL     1       6.317   1.004   0.478  0.00  0.00    +0.303 C 
ATOM      7  O   UNL     1       6.976   0.766  -0.513  0.00  0.00    -0.265 OA
ATOM      8  H   UNL     1       4.446   1.253   1.185  0.00  0.00    +0.155 HD
BRANCH   5  16
ATOM      9  N   UNL     1       1.300  -1.150  -1.848  0.00  0.00    -0.207 N 
ATOM     10  C   UNL     1       0.481  -1.275  -3.062  0.00  0.00    +0.131 C 
ATOM     11  C   UNL     1       1.418  -1.633  -4.223  0.00  0.00    +0.025 C 
ATOM     12  C   UNL     1       2.401  -0.482  -4.437  0.00  0.00    +0.038 C 
ATOM     13  C   UNL     1       3.067  -0.109  -3.139  0.00  0.00    -0.025 A 
ATOM     14  C   UNL     1       2.504  -0.440  -1.913  0.00  0.00    +0.056 A 
ATOM     15  C   UNL     1       3.136  -0.073  -0.733  0.00  0.00    +0.048 A 
ATOM     16  C   UNL     1       4.332   0.628  -0.775  0.00  0.00    +0.036 A 
ATOM     17  C   UNL     1       4.893   0.961  -2.003  0.00  0.00    +0.024 A 
ATOM     18  C   UNL     1       4.264   0.586  -3.177  0.00  0.00    +0.007 A 
BRANCH   9  20
ATOM     19  C   UNL     1       0.015  -0.478   0.492  0.00  0.00    +0.218 C 
ATOM     20  S   UNL     1       0.802  -1.832  -0.423  0.00  0.00    +0.043 S 
ATOM     21  O   UNL     1       2.001  -2.231   0.227  0.00  0.00    -0.155 OA
ATOM     22  O   UNL     1      -0.171  -2.796  -0.803  0.00  0.00    -0.155 OA
ENDBRANCH   9  20
ENDBRANCH   5  16
ENDBRANCH   1   6
BRANCH   3  23
ATOM     23  C   UNL     1       9.013   1.595   3.112  0.00  0.00    +0.131 C 
BRANCH  23  24
ATOM     24  C   UNL     1      10.524   1.414   2.947  0.00  0.00    +0.140 C 
BRANCH  24  25
ATOM     25  N   UNL     1      10.804   0.052   2.472  0.00  0.00    -0.287 NA
ATOM     26  C   UNL     1      10.302  -0.952   3.424  0.00  0.00    +0.090 C 
ATOM     27  C   UNL     1      10.285  -2.313   2.728  0.00  0.00    +0.051 C 
ATOM     28  C   UNL     1      11.621  -2.578   2.083  0.00  0.00    -0.042 A 
ATOM     29  C   UNL     1      11.932  -3.879   1.716  0.00  0.00    +0.004 A 
ATOM     30  C   UNL     1      13.144  -4.164   1.119  0.00  0.00    +0.000 A 
ATOM     31  C   UNL     1      14.051  -3.147   0.884  0.00  0.00    +0.000 A 
ATOM     32  C   UNL     1      13.742  -1.853   1.249  0.00  0.00    +0.005 A 
ATOM     33  C   UNL     1      12.527  -1.565   1.852  0.00  0.00    -0.030 A 
ATOM     34  C   UNL     1      12.240  -0.139   2.243  0.00  0.00    +0.120 C 
ENDBRANCH  24  25
BRANCH  24  35
ATOM     35  C   UNL     1      11.204   1.634   4.274  0.00  0.00    +0.123 A 
ATOM     36  C   UNL     1      11.823   2.763   4.662  0.00  0.00    +0.046 A 
ATOM     37  C   UNL     1      12.316   2.531   5.967  0.00  0.00    +0.041 A 
ATOM     38  C   UNL     1      11.968   1.274   6.298  0.00  0.00    +0.195 A 
ATOM     39  O   UNL     1      11.289   0.738   5.271  0.00  0.00    -0.466 OA
ENDBRANCH  24  35
ENDBRANCH  23  24
ENDBRANCH   3  23
TORSDOF 7
