REMARK  Name = ZINC06245303
REMARK  8 active torsions:
REMARK  status: ('A' for Active; 'I' for Inactive)
REMARK    1  A    between atoms: C_1  and  C_2
REMARK    2  A    between atoms: C_5  and  N_8
REMARK    3  A    between atoms: N_8  and  C_9
REMARK    4  A    between atoms: C_9  and  N_11
REMARK    5  A    between atoms: N_11  and  C_12
REMARK    6  A    between atoms: N_11  and  C_22
REMARK    7  A    between atoms: C_12  and  C_13
REMARK    8  A    between atoms: C_22  and  C_23
REMARK                            x       y       z     vdW  Elec       q    Type
REMARK                         _______ _______ _______ _____ _____    ______ ____
ROOT
ATOM      1  N   UNL     1       5.800  -1.076   1.097  0.00  0.00    -0.304 N 
ENDROOT
BRANCH   1   2
ATOM      2  C   UNL     1       6.055  -2.380   0.871  0.00  0.00    +0.138 C 
ATOM      3  S   UNL     1       6.897  -2.855  -0.542  0.00  0.00    -0.018 S 
BRANCH   2   4
ATOM      4  N   UNL     1       5.649  -3.309   1.758  0.00  0.00    -0.297 N 
ATOM      5  H   UNL     1       5.244  -3.036   2.596  0.00  0.00    +0.154 HD
BRANCH   4  10
ATOM      6  C   UNL     1       6.303  -8.822   0.590  0.00  0.00    +0.044 C 
ATOM      7  C   UNL     1       6.130  -7.358   0.900  0.00  0.00    -0.050 A 
ATOM      8  C   UNL     1       6.399  -6.885   2.172  0.00  0.00    +0.005 A 
ATOM      9  C   UNL     1       6.240  -5.544   2.460  0.00  0.00    +0.023 A 
ATOM     10  C   UNL     1       5.810  -4.669   1.470  0.00  0.00    +0.033 A 
ATOM     11  C   UNL     1       5.535  -5.148   0.196  0.00  0.00    +0.023 A 
ATOM     12  C   UNL     1       5.702  -6.489  -0.087  0.00  0.00    +0.005 A 
ENDBRANCH   4  10
ENDBRANCH   2   4
ENDBRANCH   1   2
BRANCH   1  13
ATOM     13  C   UNL     1       5.080  -0.669   2.306  0.00  0.00    +0.142 C 
BRANCH  13  14
ATOM     14  C   UNL     1       3.599  -0.652   2.027  0.00  0.00    -0.026 A 
ATOM     15  C   UNL     1       2.844  -1.790   2.239  0.00  0.00    +0.009 A 
ATOM     16  C   UNL     1       1.485  -1.779   1.985  0.00  0.00    +0.050 A 
ATOM     17  C   UNL     1       0.877  -0.626   1.516  0.00  0.00    +0.166 A 
ATOM     18  C   UNL     1       1.637   0.521   1.303  0.00  0.00    +0.167 A 
ATOM     19  C   UNL     1       2.998   0.503   1.561  0.00  0.00    +0.054 A 
ATOM     20  O   UNL     1       0.816   1.510   0.846  0.00  0.00    -0.453 OA
ATOM     21  C   UNL     1      -0.520   1.081   1.169  0.00  0.00    +0.466 C 
ATOM     22  O   UNL     1      -0.421  -0.355   1.192  0.00  0.00    -0.453 OA
ENDBRANCH  13  14
ENDBRANCH   1  13
BRANCH   1  23
ATOM     23  C   UNL     1       6.242  -0.065   0.133  0.00  0.00    +0.147 C 
BRANCH  23  24
ATOM     24  C   UNL     1       7.627   0.403   0.495  0.00  0.00    +0.035 A 
ATOM     25  C   UNL     1       8.709  -0.166  -0.094  0.00  0.00    +0.020 A 
ATOM     26  C   UNL     1      10.040   0.312   0.278  0.00  0.00    +0.003 A 
ATOM     27  C   UNL     1      11.192  -0.237  -0.299  0.00  0.00    +0.059 A 
ATOM     28  C   UNL     1      12.433   0.233   0.071  0.00  0.00    +0.167 A 
ATOM     29  C   UNL     1      12.544   1.257   1.022  0.00  0.00    +0.168 A 
ATOM     30  C   UNL     1      11.412   1.804   1.597  0.00  0.00    +0.075 A 
ATOM     31  C   UNL     1      10.154   1.341   1.233  0.00  0.00    +0.053 A 
ATOM     32  N   UNL     1       9.013   1.877   1.796  0.00  0.00    -0.322 N 
ATOM     33  H   UNL     1       9.092   2.585   2.454  0.00  0.00    +0.169 HD
ATOM     34  C   UNL     1       7.794   1.435   1.442  0.00  0.00    +0.254 A 
ATOM     35  O   UNL     1       6.808   1.935   1.955  0.00  0.00    -0.268 OA
ATOM     36  O   UNL     1      13.867   1.533   1.206  0.00  0.00    -0.453 OA
ATOM     37  C   UNL     1      14.543   0.965   0.068  0.00  0.00    +0.466 C 
ATOM     38  O   UNL     1      13.688  -0.122  -0.332  0.00  0.00    -0.453 OA
ENDBRANCH  23  24
ENDBRANCH   1  23
TORSDOF 7
