REMARK  Name = ZINC64338127
REMARK  10 active torsions:
REMARK  status: ('A' for Active; 'I' for Inactive)
REMARK    1  A    between atoms: C_1  and  C_2
REMARK    2  A    between atoms: C_4  and  C_12
REMARK    3  A    between atoms: C_18  and  C_20
REMARK    4  A    between atoms: C_20  and  C_22
REMARK    5  A    between atoms: C_20  and  N_25
REMARK    6  A    between atoms: C_22  and  C_23
REMARK    7  A    between atoms: C_22  and  C_24
REMARK    8  A    between atoms: C_26  and  C_28
REMARK    9  A    between atoms: C_31  and  O_34
REMARK   10  A    between atoms: O_34  and  C_35
REMARK                            x       y       z     vdW  Elec       q    Type
REMARK                         _______ _______ _______ _____ _____    ______ ____
ROOT
ATOM      1  C   UNL     1       1.214   0.955  -3.008  0.00  0.00    +0.079 A 
ATOM      2  C   UNL     1       1.630  -0.017  -3.909  0.00  0.00    +0.076 A 
ATOM      3  S   UNL     1       0.447   0.064  -5.103  0.00  0.00    -0.060 S 
ATOM      4  C   UNL     1      -0.553   1.359  -4.394  0.00  0.00    +0.165 A 
ATOM      5  N   UNL     1       0.094   1.635  -3.282  0.00  0.00    -0.225 NA
ATOM      6  N   UNL     1      -1.719   1.927  -4.887  0.00  0.00    -0.263 N 
ATOM      7  C   UNL     1      -2.235   1.500  -6.056  0.00  0.00    +0.239 C 
ATOM      8  O   UNL     1      -1.733   0.558  -6.633  0.00  0.00    -0.273 OA
ATOM      9  H   UNL     1      -2.163   2.632  -4.390  0.00  0.00    +0.157 HD
ENDROOT
BRANCH   1  12
ATOM     10  C   UNL     1       2.790  -1.004  -1.059  0.00  0.00    +0.035 C 
ATOM     11  C   UNL     1       3.157   0.458  -1.323  0.00  0.00    +0.109 C 
ATOM     12  C   UNL     1       1.949   1.214  -1.832  0.00  0.00    +0.009 C 
ATOM     13  C   UNL     1       1.714   2.218  -0.897  0.00  0.00    +0.005 A 
ATOM     14  C   UNL     1       0.739   3.237  -0.816  0.00  0.00    +0.010 A 
ATOM     15  C   UNL     1       0.750   4.098   0.233  0.00  0.00    +0.001 A 
ATOM     16  C   UNL     1       1.708   4.005   1.246  0.00  0.00    +0.002 A 
ATOM     17  C   UNL     1       2.672   3.053   1.233  0.00  0.00    +0.026 A 
ATOM     18  C   UNL     1       2.725   2.116   0.168  0.00  0.00    +0.043 A 
ATOM     19  N   UNL     1       3.550   1.114  -0.072  0.00  0.00    -0.377 N 
ATOM     20  H   UNL     1       4.296   0.852   0.489  0.00  0.00    +0.160 HD
ENDBRANCH   1  12
BRANCH   7  21
ATOM     21  C   UNL     1      -3.436   2.191  -6.647  0.00  0.00    +0.162 C 
BRANCH  21  22
ATOM     22  N   UNL     1      -3.404   2.064  -8.106  0.00  0.00    -0.300 N 
ATOM     23  C   UNL     1      -4.035   2.973  -8.876  0.00  0.00    +0.245 C 
ATOM     24  O   UNL     1      -4.631   3.898  -8.360  0.00  0.00    -0.270 OA
ATOM     25  H   UNL     1      -2.929   1.325  -8.518  0.00  0.00    +0.150 HD
BRANCH  23  26
ATOM     26  C   UNL     1      -4.003   2.844 -10.346  0.00  0.00    +0.037 A 
ATOM     27  C   UNL     1      -3.324   1.778 -10.942  0.00  0.00    +0.016 A 
ATOM     28  C   UNL     1      -3.296   1.661 -12.313  0.00  0.00    +0.046 A 
ATOM     29  C   UNL     1      -3.943   2.603 -13.106  0.00  0.00    +0.120 A 
ATOM     30  C   UNL     1      -4.620   3.665 -12.517  0.00  0.00    +0.046 A 
ATOM     31  C   UNL     1      -4.656   3.785 -11.146  0.00  0.00    +0.016 A 
BRANCH  29  32
ATOM     32  O   UNL     1      -3.913   2.485 -14.457  0.00  0.00    -0.495 OA
ATOM     33  C   UNL     1      -4.598   3.487 -15.211  0.00  0.00    +0.277 C 
ENDBRANCH  29  32
ENDBRANCH  23  26
ENDBRANCH  21  22
BRANCH  21  34
ATOM     34  C   UNL     1      -4.714   1.546  -6.107  0.00  0.00    +0.012 C 
ATOM     35  C   UNL     1      -4.704   1.597  -4.578  0.00  0.00    +0.009 C 
ATOM     36  C   UNL     1      -5.932   2.306  -6.634  0.00  0.00    +0.009 C 
ENDBRANCH  21  34
ENDBRANCH   7  21
TORSDOF 6
