REMARK  Name = ZINC00669049
REMARK  8 active torsions:
REMARK  status: ('A' for Active; 'I' for Inactive)
REMARK    1  A    between atoms: C_1  and  C_2
REMARK    2  A    between atoms: C_2  and  C_3
REMARK    3  A    between atoms: C_2  and  C_4
REMARK    4  A    between atoms: C_2  and  C_5
REMARK    5  A    between atoms: C_12  and  N_17
REMARK    6  A    between atoms: C_13  and  C_14
REMARK    7  A    between atoms: C_18  and  C_20
REMARK    8  A    between atoms: C_21  and  C_22
REMARK                            x       y       z     vdW  Elec       q    Type
REMARK                         _______ _______ _______ _____ _____    ______ ____
ROOT
ATOM      1  C   UNL     1      -4.310  -0.726   3.525  0.00  0.00    -0.000 C 
ATOM      2  C   UNL     1      -3.642   0.644   3.675  0.00  0.00    +0.009 C 
ATOM      3  C   UNL     1      -2.524   0.793   2.642  0.00  0.00    +0.037 C 
ATOM      4  C   UNL     1      -3.086   0.476   1.262  0.00  0.00    -0.023 A 
ATOM      5  C   UNL     1      -4.243  -0.205   1.121  0.00  0.00    -0.004 A 
ATOM      6  S   UNL     1      -4.483  -0.334  -0.628  0.00  0.00    -0.077 S 
ATOM      7  C   UNL     1      -3.071   0.511  -1.168  0.00  0.00    +0.085 A 
ATOM      8  C   UNL     1      -2.447   0.874   0.018  0.00  0.00    +0.068 A 
ATOM      9  C   UNL     1      -5.117  -0.736   2.216  0.00  0.00    +0.046 C 
ENDROOT
BRANCH   8  10
ATOM     10  C   UNL     1      -1.187   1.624   0.017  0.00  0.00    +0.244 C 
ATOM     11  O   UNL     1      -1.204   2.841   0.023  0.00  0.00    -0.270 OA
ATOM     12  N   UNL     1      -0.011   0.966   0.007  0.00  0.00    -0.325 N 
ATOM     13  H   UNL     1       0.002  -0.004   0.002  0.00  0.00    +0.145 HD
ATOM     14  H   UNL     1       0.822   1.462   0.002  0.00  0.00    +0.145 HD
ENDBRANCH   8  10
BRANCH   1  16
ATOM     15  C   UNL     1      -6.325   0.119   4.736  0.00  0.00    +0.011 C 
ATOM     16  C   UNL     1      -5.251  -0.970   4.707  0.00  0.00    -0.035 C 
ATOM     17  C   UNL     1      -5.916  -2.339   4.554  0.00  0.00    +0.011 C 
ATOM     18  C   UNL     1      -4.452  -0.933   6.011  0.00  0.00    +0.011 C 
ENDBRANCH   1  16
BRANCH   7  19
ATOM     19  N   UNL     1      -2.663   0.764  -2.467  0.00  0.00    -0.276 N 
ATOM     20  C   UNL     1      -3.407   0.330  -3.503  0.00  0.00    +0.241 C 
ATOM     21  O   UNL     1      -4.437  -0.286  -3.297  0.00  0.00    -0.270 OA
ATOM     22  H   UNL     1      -1.843   1.255  -2.631  0.00  0.00    +0.156 HD
BRANCH  20  23
ATOM     23  C   UNL     1      -2.977   0.597  -4.874  0.00  0.00    +0.068 C 
ATOM     24  C   UNL     1      -3.722   0.161  -5.913  0.00  0.00    +0.013 C 
BRANCH  24  25
ATOM     25  C   UNL     1      -3.289   0.430  -7.292  0.00  0.00    -0.021 A 
ATOM     26  C   UNL     1      -2.109   1.142  -7.531  0.00  0.00    +0.012 A 
ATOM     27  C   UNL     1      -1.703   1.388  -8.824  0.00  0.00    +0.050 A 
ATOM     28  C   UNL     1      -2.468   0.941  -9.894  0.00  0.00    +0.166 A 
ATOM     29  C   UNL     1      -3.649   0.235  -9.663  0.00  0.00    +0.167 A 
ATOM     30  C   UNL     1      -4.060  -0.021  -8.370  0.00  0.00    +0.057 A 
ATOM     31  O   UNL     1      -4.206  -0.088 -10.867  0.00  0.00    -0.453 OA
ATOM     32  C   UNL     1      -3.150   0.070 -11.833  0.00  0.00    +0.466 C 
ATOM     33  O   UNL     1      -2.289   1.060 -11.241  0.00  0.00    -0.453 OA
ENDBRANCH  24  25
ENDBRANCH  20  23
ENDBRANCH   7  19
TORSDOF 5
