REMARK  Name = ZINC12616555
REMARK  7 active torsions:
REMARK  status: ('A' for Active; 'I' for Inactive)
REMARK    1  A    between atoms: C_1  and  C_2
REMARK    2  A    between atoms: N_4  and  C_5
REMARK    3  A    between atoms: C_5  and  C_6
REMARK    4  A    between atoms: C_9  and  C_12
REMARK    5  A    between atoms: C_18  and  C_20
REMARK    6  A    between atoms: C_23  and  S_26
REMARK    7  A    between atoms: S_26  and  N_29
REMARK                            x       y       z     vdW  Elec       q    Type
REMARK                         _______ _______ _______ _____ _____    ______ ____
ROOT
ATOM      1  C   UNL     1      -2.708   2.943   4.746  0.00  0.00    +0.080 A 
ATOM      2  C   UNL     1      -2.363   4.139   5.312  0.00  0.00    +0.076 A 
ATOM      3  S   UNL     1      -3.492   4.187   6.698  0.00  0.00    -0.060 S 
ATOM      4  C   UNL     1      -4.300   2.624   6.382  0.00  0.00    +0.165 A 
ATOM      5  N   UNL     1      -3.673   2.219   5.294  0.00  0.00    -0.225 NA
ATOM      6  N   UNL     1      -5.320   2.003   7.091  0.00  0.00    -0.261 N 
ATOM      7  C   UNL     1      -5.834   2.594   8.188  0.00  0.00    +0.250 C 
ATOM      8  O   UNL     1      -5.406   3.670   8.557  0.00  0.00    -0.270 OA
ATOM      9  H   UNL     1      -5.662   1.145   6.797  0.00  0.00    +0.157 HD
ENDROOT
BRANCH   1  13
ATOM     10  C   UNL     1      -0.718   1.572   1.248  0.00  0.00    -0.030 A 
ATOM     11  C   UNL     1      -0.357   2.780   1.817  0.00  0.00    +0.006 A 
ATOM     12  C   UNL     1      -1.004   3.233   2.949  0.00  0.00    +0.010 A 
ATOM     13  C   UNL     1      -2.014   2.465   3.526  0.00  0.00    +0.001 A 
ATOM     14  C   UNL     1      -2.369   1.246   2.951  0.00  0.00    +0.010 A 
ATOM     15  C   UNL     1      -1.720   0.805   1.816  0.00  0.00    +0.006 A 
BRANCH  10  16
ATOM     16  C   UNL     1      -0.013   1.086   0.008  0.00  0.00    +0.139 C 
BRANCH  16  20
ATOM     17  C   UNL     1      -0.997   1.758  -3.630  0.00  0.00    +0.109 C 
ATOM     18  C   UNL     1      -0.268   1.258  -2.409  0.00  0.00    +0.210 C 
ATOM     19  O   UNL     1       0.726   0.575  -2.534  0.00  0.00    -0.276 OA
ATOM     20  N   UNL     1      -0.721   1.571  -1.179  0.00  0.00    -0.311 N 
ATOM     21  H   UNL     1      -1.516   2.118  -1.079  0.00  0.00    +0.149 HD
ENDBRANCH  16  20
ENDBRANCH  10  16
ENDBRANCH   1  13
BRANCH   7  22
ATOM     22  C   UNL     1      -6.920   1.933   8.942  0.00  0.00    +0.037 A 
ATOM     23  C   UNL     1      -7.418   0.700   8.518  0.00  0.00    +0.015 A 
ATOM     24  C   UNL     1      -8.428   0.086   9.230  0.00  0.00    +0.029 A 
ATOM     25  C   UNL     1      -8.954   0.694  10.356  0.00  0.00    +0.106 A 
ATOM     26  C   UNL     1      -8.468   1.919  10.778  0.00  0.00    +0.029 A 
ATOM     27  C   UNL     1      -7.455   2.542  10.079  0.00  0.00    +0.015 A 
BRANCH  25  28
ATOM     28  S   UNL     1     -10.248  -0.094  11.256  0.00  0.00    +0.061 S 
ATOM     29  O   UNL     1     -10.151  -1.483  10.973  0.00  0.00    -0.153 OA
ATOM     30  O   UNL     1     -10.193   0.420  12.580  0.00  0.00    -0.153 OA
BRANCH  28  31
ATOM     31  N   UNL     1     -11.681   0.423  10.607  0.00  0.00    -0.177 NA
ATOM     32  C   UNL     1     -12.305   1.605  11.158  0.00  0.00    +0.109 C 
ATOM     33  C   UNL     1     -13.242   1.212  12.319  0.00  0.00    +0.017 C 
ATOM     34  C   UNL     1     -14.435   0.526  11.802  0.00  0.00    +0.001 C 
ATOM     35  C   UNL     1     -14.143  -0.791  11.088  0.00  0.00    +0.001 C 
ATOM     36  C   UNL     1     -13.794  -0.511   9.647  0.00  0.00    +0.017 C 
ATOM     37  C   UNL     1     -12.271  -0.346   9.494  0.00  0.00    +0.109 C 
ENDBRANCH  28  31
ENDBRANCH  25  28
ENDBRANCH   7  22
TORSDOF 6
