REMARK  Name = ZINC16741976
REMARK  9 active torsions:
REMARK  status: ('A' for Active; 'I' for Inactive)
REMARK    1  A    between atoms: C_1  and  C_2
REMARK    2  A    between atoms: C_6  and  C_35
REMARK    3  A    between atoms: C_7  and  O_8
REMARK    4  A    between atoms: O_8  and  C_9
REMARK    5  A    between atoms: C_9  and  C_10
REMARK    6  A    between atoms: N_12  and  C_13
REMARK    7  A    between atoms: C_14  and  C_24
REMARK    8  A    between atoms: C_19  and  C_23
REMARK    9  A    between atoms: N_26  and  C_27
REMARK                            x       y       z     vdW  Elec       q    Type
REMARK                         _______ _______ _______ _____ _____    ______ ____
ROOT
ATOM      1  C   UNL     1       0.720   3.452  -5.162  0.00  0.00    +0.084 A 
ATOM      2  C   UNL     1       0.520   2.161  -4.694  0.00  0.00    +0.069 A 
ATOM      3  C   UNL     1       1.247   1.089  -5.351  0.00  0.00    -0.023 A 
ATOM      4  C   UNL     1       2.044   1.474  -6.371  0.00  0.00    -0.004 A 
ATOM      5  S   UNL     1       1.850   3.232  -6.457  0.00  0.00    -0.077 S 
ATOM      6  C   UNL     1       2.904   0.597  -7.227  0.00  0.00    +0.046 C 
ATOM      7  C   UNL     1       3.044  -0.768  -6.531  0.00  0.00    -0.009 C 
ATOM      8  C   UNL     1       1.652  -1.242  -6.105  0.00  0.00    +0.008 C 
ATOM      9  C   UNL     1       1.139  -0.378  -4.951  0.00  0.00    +0.037 C 
ATOM     10  C   UNL     1       3.655  -1.779  -7.503  0.00  0.00    +0.008 C 
ENDROOT
BRANCH   1  13
ATOM     11  C   UNL     1       0.472   5.804  -5.289  0.00  0.00    +0.255 C 
ATOM     12  O   UNL     1       1.253   5.826  -6.216  0.00  0.00    -0.272 OA
ATOM     13  N   UNL     1       0.154   4.632  -4.704  0.00  0.00    -0.277 N 
ATOM     14  H   UNL     1      -0.471   4.614  -3.962  0.00  0.00    +0.155 HD
BRANCH  11  15
ATOM     15  C   UNL     1      -0.144   7.086  -4.792  0.00  0.00    +0.324 C 
BRANCH  15  16
ATOM     16  O   UNL     1       0.346   8.182  -5.567  0.00  0.00    -0.482 OA
BRANCH  16  23
ATOM     17  C   UNL     1      -1.989   9.085  -6.876  0.00  0.00    +0.047 C 
ATOM     18  C   UNL     1      -1.256   9.917  -5.856  0.00  0.00    -0.009 A 
ATOM     19  C   UNL     1      -1.725  11.173  -5.523  0.00  0.00    +0.007 A 
ATOM     20  C   UNL     1      -1.050  11.939  -4.590  0.00  0.00    +0.001 A 
ATOM     21  C   UNL     1       0.092  11.448  -3.985  0.00  0.00    +0.007 A 
ATOM     22  C   UNL     1       0.561  10.191  -4.310  0.00  0.00    -0.009 A 
ATOM     23  C   UNL     1      -0.114   9.420  -5.245  0.00  0.00    +0.127 A 
ATOM     24  C   UNL     1       1.806   9.656  -3.649  0.00  0.00    +0.047 C 
ENDBRANCH  16  23
ENDBRANCH  15  16
ENDBRANCH  11  15
ENDBRANCH   1  13
BRANCH   2  25
ATOM     25  C   UNL     1      -0.387   1.891  -3.574  0.00  0.00    +0.247 C 
ATOM     26  O   UNL     1      -1.562   1.657  -3.786  0.00  0.00    -0.270 OA
ATOM     27  N   UNL     1       0.081   1.901  -2.310  0.00  0.00    -0.307 N 
ATOM     28  H   UNL     1       1.018   2.087  -2.141  0.00  0.00    +0.149 HD
BRANCH  27  29
ATOM     29  C   UNL     1      -0.825   1.630  -1.191  0.00  0.00    +0.096 C 
ATOM     30  C   UNL     1      -1.543   2.930  -0.792  0.00  0.00    +0.046 C 
ATOM     31  C   UNL     1      -2.247   2.694   0.575  0.00  0.00    +0.168 C 
ATOM     32  S   UNL     1      -0.951   1.717   1.458  0.00  0.00    -0.029 S 
ATOM     33  O   UNL     1      -1.568   0.623   2.122  0.00  0.00    -0.174 OA
ATOM     34  O   UNL     1      -0.121   2.605   2.195  0.00  0.00    -0.174 OA
ATOM     35  C   UNL     1      -0.013   1.086   0.008  0.00  0.00    +0.188 C 
ENDBRANCH  27  29
ENDBRANCH   2  25
TORSDOF 6
