REMARK  Name = ZINC03433559
REMARK  8 active torsions:
REMARK  status: ('A' for Active; 'I' for Inactive)
REMARK    1  A    between atoms: C_1  and  C_2
REMARK    2  A    between atoms: C_5  and  N_8
REMARK    3  A    between atoms: N_8  and  C_9
REMARK    4  A    between atoms: N_8  and  S_10
REMARK    5  A    between atoms: S_10  and  C_13
REMARK    6  A    between atoms: C_17  and  C_19
REMARK    7  A    between atoms: N_21  and  N_22
REMARK    8  A    between atoms: C_23  and  C_25
REMARK                            x       y       z     vdW  Elec       q    Type
REMARK                         _______ _______ _______ _____ _____    ______ ____
ROOT
ATOM      1  C   UNL     1      -0.304   5.349   1.077  0.00  0.00    +0.109 A 
ATOM      2  C   UNL     1       0.579   4.345   1.432  0.00  0.00    +0.029 A 
ATOM      3  C   UNL     1       0.171   3.319   2.266  0.00  0.00    +0.003 A 
ATOM      4  C   UNL     1      -1.121   3.292   2.749  0.00  0.00    +0.013 A 
ATOM      5  C   UNL     1      -2.018   4.299   2.391  0.00  0.00    +0.040 A 
ATOM      6  C   UNL     1      -1.598   5.334   1.554  0.00  0.00    +0.042 A 
ENDROOT
BRANCH   5   7
ATOM      7  C   UNL     1      -3.406   4.272   2.900  0.00  0.00    +0.260 C 
ATOM      8  O   UNL     1      -4.185   5.151   2.586  0.00  0.00    -0.269 OA
ATOM      9  N   UNL     1      -3.807   3.275   3.713  0.00  0.00    -0.230 N 
ATOM     10  H   UNL     1      -3.185   2.574   3.963  0.00  0.00    +0.173 HD
BRANCH   9  11
ATOM     11  N   UNL     1      -5.122   3.250   4.195  0.00  0.00    -0.230 N 
ATOM     12  C   UNL     1      -5.523   2.252   5.008  0.00  0.00    +0.263 C 
ATOM     13  O   UNL     1      -4.743   1.373   5.322  0.00  0.00    -0.269 OA
ATOM     14  H   UNL     1      -5.744   3.951   3.945  0.00  0.00    +0.173 HD
BRANCH  12  15
ATOM     15  C   UNL     1      -6.909   2.226   5.516  0.00  0.00    +0.073 A 
ATOM     16  C   UNL     1      -7.806   3.236   5.163  0.00  0.00    +0.016 A 
ATOM     17  C   UNL     1      -9.099   3.204   5.638  0.00  0.00    +0.001 A 
ATOM     18  C   UNL     1      -9.510   2.178   6.472  0.00  0.00    +0.003 A 
ATOM     19  C   UNL     1      -8.629   1.176   6.832  0.00  0.00    +0.039 A 
ATOM     20  C   UNL     1      -7.329   1.192   6.359  0.00  0.00    +0.136 A 
ATOM     21  F   UNL     1      -6.467   0.213   6.712  0.00  0.00    -0.205 F 
ENDBRANCH  12  15
ENDBRANCH   9  11
ENDBRANCH   5   7
BRANCH   1  22
ATOM     22  S   UNL     1       0.226   6.651   0.015  0.00  0.00    +0.074 S 
ATOM     23  O   UNL     1      -0.704   7.713   0.178  0.00  0.00    -0.150 OA
ATOM     24  O   UNL     1       1.619   6.818   0.241  0.00  0.00    -0.150 OA
BRANCH  22  25
ATOM     25  N   UNL     1       0.061   6.111  -1.542  0.00  0.00    -0.206 N 
ATOM     26  C   UNL     1       1.125   5.314  -2.157  0.00  0.00    +0.157 C 
BRANCH  25  31
ATOM     27  C   UNL     1      -4.623   7.346  -4.489  0.00  0.00    +0.044 C 
ATOM     28  C   UNL     1      -3.378   7.017  -3.706  0.00  0.00    -0.050 A 
ATOM     29  C   UNL     1      -2.154   7.507  -4.121  0.00  0.00    +0.005 A 
ATOM     30  C   UNL     1      -1.011   7.208  -3.405  0.00  0.00    +0.025 A 
ATOM     31  C   UNL     1      -1.093   6.415  -2.268  0.00  0.00    +0.051 A 
ATOM     32  C   UNL     1      -2.324   5.920  -1.857  0.00  0.00    +0.025 A 
ATOM     33  C   UNL     1      -3.464   6.227  -2.574  0.00  0.00    +0.005 A 
ENDBRANCH  25  31
ENDBRANCH  22  25
ENDBRANCH   1  22
TORSDOF 6
