REMARK  Name = ZINC23394009
REMARK  6 active torsions:
REMARK  status: ('A' for Active; 'I' for Inactive)
REMARK    1  A    between atoms: C_3  and  S_25
REMARK    2  A    between atoms: C_5  and  S_7
REMARK    3  A    between atoms: S_7  and  N_10
REMARK    4  A    between atoms: N_10  and  N_11
REMARK    5  A    between atoms: C_12  and  C_14
REMARK    6  A    between atoms: S_25  and  N_28
REMARK                            x       y       z     vdW  Elec       q    Type
REMARK                         _______ _______ _______ _____ _____    ______ ____
ROOT
ATOM      1  N   UNL     1       1.193   1.683  -0.000  0.00  0.00    -0.108 NA
ATOM      2  H   UNL     1       1.356   2.349  -0.686  0.00  0.00    +0.172 HD
ENDROOT
BRANCH   1   3
ATOM      3  N   UNL     1      -0.011   0.966   0.007  0.00  0.00    -0.227 N 
ATOM      4  C   UNL     1      -1.187   1.624   0.017  0.00  0.00    +0.265 C 
ATOM      5  O   UNL     1      -1.204   2.841   0.023  0.00  0.00    -0.268 OA
ATOM      6  H   UNL     1       0.004  -0.134   0.006  0.00  0.00    +0.171 HD
BRANCH   4   7
ATOM      7  C   UNL     1      -2.447   0.874   0.018  0.00  0.00    +0.076 A 
ATOM      8  C   UNL     1      -3.741   1.345   0.033  0.00  0.00    +0.024 A 
ATOM      9  C   UNL     1      -4.785   0.416   0.014  0.00  0.00    -0.036 A 
ATOM     10  C   UNL     1      -4.445  -0.888   0.052  0.00  0.00    -0.006 A 
ATOM     11  S   UNL     1      -2.708  -0.889   0.011  0.00  0.00    -0.088 S 
ATOM     12  C   UNL     1      -5.253  -2.152   0.183  0.00  0.00    +0.043 C 
ATOM     13  C   UNL     1      -6.751  -1.873   0.312  0.00  0.00    +0.005 C 
ATOM     14  C   UNL     1      -7.365  -1.585  -1.049  0.00  0.00    +0.000 C 
ATOM     15  C   UNL     1      -6.449  -0.777  -1.946  0.00  0.00    +0.000 C 
ATOM     16  C   UNL     1      -6.657   0.698  -1.586  0.00  0.00    +0.005 C 
ATOM     17  C   UNL     1      -6.212   0.922  -0.141  0.00  0.00    +0.036 C 
ENDBRANCH   4   7
ENDBRANCH   1   3
BRANCH   1  18
ATOM     18  S   UNL     1       2.336   1.393   1.162  0.00  0.00    +0.074 S 
ATOM     19  O   UNL     1       3.480   2.157   0.805  0.00  0.00    -0.152 OA
ATOM     20  O   UNL     1       1.685   1.538   2.417  0.00  0.00    -0.152 OA
BRANCH  18  25
ATOM     21  C   UNL     1       2.482  -2.593   1.643  0.00  0.00    +0.004 A 
ATOM     22  C   UNL     1       3.527  -2.960   0.815  0.00  0.00    +0.028 A 
ATOM     23  C   UNL     1       4.208  -1.998   0.093  0.00  0.00    +0.107 A 
ATOM     24  C   UNL     1       3.844  -0.668   0.199  0.00  0.00    +0.057 A 
ATOM     25  C   UNL     1       2.799  -0.301   1.027  0.00  0.00    +0.109 A 
ATOM     26  C   UNL     1       2.122  -1.263   1.753  0.00  0.00    +0.029 A 
BRANCH  23  27
ATOM     27  S   UNL     1       5.539  -2.465  -0.961  0.00  0.00    +0.056 S 
ATOM     28  O   UNL     1       5.328  -3.829  -1.302  0.00  0.00    -0.153 OA
ATOM     29  O   UNL     1       5.658  -1.444  -1.943  0.00  0.00    -0.153 OA
BRANCH  27  30
ATOM     30  N   UNL     1       6.924  -2.413  -0.054  0.00  0.00    -0.204 NA
ATOM     31  H   UNL     1       7.782  -2.700  -0.679  0.00  0.00    +0.144 HD
ATOM     32  H   UNL     1       6.835  -3.112   0.790  0.00  0.00    +0.144 HD
ENDBRANCH  27  30
ENDBRANCH  23  27
ENDBRANCH  18  25
ENDBRANCH   1  18
TORSDOF 6
