REMARK  Name = ZINC13319895
REMARK  12 active torsions:
REMARK  status: ('A' for Active; 'I' for Inactive)
REMARK    1  A    between atoms: C_1  and  C_2
REMARK    2  A    between atoms: C_9  and  C_11
REMARK    3  A    between atoms: C_12  and  C_37
REMARK    4  A    between atoms: C_16  and  C_18
REMARK    5  A    between atoms: C_20  and  O_28
REMARK    6  A    between atoms: C_21  and  O_26
REMARK    7  A    between atoms: C_22  and  O_24
REMARK    8  A    between atoms: O_24  and  C_25
REMARK    9  A    between atoms: O_26  and  C_27
REMARK   10  A    between atoms: O_28  and  C_29
REMARK   11  A    between atoms: C_33  and  C_35
REMARK   12  A    between atoms: C_33  and  C_36
REMARK                            x       y       z     vdW  Elec       q    Type
REMARK                         _______ _______ _______ _____ _____    ______ ____
ROOT
ATOM      1  C   UNL     1       3.646   1.982   0.412  0.00  0.00    +0.043 C 
ATOM      2  C   UNL     1       3.566   3.323   0.396  0.00  0.00    +0.014 C 
ATOM      3  N   UNL     1       2.414   3.944  -0.003  0.00  0.00    -0.321 N 
ATOM      4  C   UNL     1       1.224   3.268  -0.012  0.00  0.00    +0.016 C 
ATOM      5  C   UNL     1       1.202   1.918  -0.005  0.00  0.00    +0.024 C 
ATOM      6  C   UNL     1       2.487   1.127  -0.009  0.00  0.00    +0.090 C 
ATOM      7  C   UNL     1      -0.013   1.211   0.001  0.00  0.00    +0.162 C 
ATOM      8  O   UNL     1       0.003  -0.004  -0.005  0.00  0.00    -0.292 OA
ATOM      9  C   UNL     1      -1.333   1.932   0.009  0.00  0.00    +0.086 C 
ATOM     10  C   UNL     1      -1.154   3.288   0.706  0.00  0.00    -0.023 C 
ATOM     11  C   UNL     1      -0.057   4.065  -0.026  0.00  0.00    +0.058 C 
ATOM     12  C   UNL     1      -0.745   3.072   2.164  0.00  0.00    +0.011 C 
ATOM     13  C   UNL     1      -2.465   4.075   0.652  0.00  0.00    +0.011 C 
ATOM     14  C   UNL     1       4.753   4.148   0.819  0.00  0.00    +0.061 C 
ATOM     15  H   UNL     1       2.438   4.997  -0.320  0.00  0.00    +0.152 HD
ENDROOT
BRANCH   1  24
ATOM     16  C   UNL     1       9.877  -2.347   2.139  0.00  0.00    +0.045 C 
ATOM     17  C   UNL     1       8.540  -1.748   1.788  0.00  0.00    -0.032 A 
ATOM     18  C   UNL     1       7.485  -2.563   1.401  0.00  0.00    +0.008 A 
ATOM     19  C   UNL     1       6.274  -1.972   1.087  0.00  0.00    +0.044 A 
ATOM     20  C   UNL     1       6.155  -0.589   1.169  0.00  0.00    +0.125 A 
ATOM     21  N   UNL     1       7.186   0.155   1.537  0.00  0.00    -0.240 NA
ATOM     22  C   UNL     1       8.351  -0.381   1.847  0.00  0.00    +0.116 A 
ATOM     23  N   UNL     1       4.942   0.019   0.856  0.00  0.00    -0.267 N 
ATOM     24  C   UNL     1       4.847   1.363   0.835  0.00  0.00    +0.248 C 
ATOM     25  O   UNL     1       5.795   2.045   1.179  0.00  0.00    -0.270 OA
ATOM     26  H   UNL     1       4.061  -0.598   0.626  0.00  0.00    +0.157 HD
ENDBRANCH   1  24
BRANCH   6  27
ATOM     27  C   UNL     1       2.740   0.600  -1.398  0.00  0.00    -0.028 A 
ATOM     28  C   UNL     1       2.874   1.481  -2.455  0.00  0.00    +0.054 A 
ATOM     29  C   UNL     1       3.113   1.000  -3.734  0.00  0.00    +0.165 A 
ATOM     30  C   UNL     1       3.205  -0.369  -3.953  0.00  0.00    +0.204 A 
ATOM     31  C   UNL     1       3.063  -1.251  -2.889  0.00  0.00    +0.165 A 
ATOM     32  C   UNL     1       2.831  -0.762  -1.612  0.00  0.00    +0.054 A 
BRANCH  31  33
ATOM     33  O   UNL     1       3.151  -2.592  -3.099  0.00  0.00    -0.491 OA
ATOM     34  C   UNL     1       2.995  -3.439  -1.958  0.00  0.00    +0.277 C 
ENDBRANCH  31  33
BRANCH  30  35
ATOM     35  O   UNL     1       3.432  -0.845  -5.208  0.00  0.00    -0.488 OA
ATOM     36  C   UNL     1       2.286  -1.122  -6.015  0.00  0.00    +0.277 C 
ENDBRANCH  30  35
BRANCH  29  37
ATOM     37  O   UNL     1       3.251   1.867  -4.772  0.00  0.00    -0.491 OA
ATOM     38  C   UNL     1       3.145   3.260  -4.473  0.00  0.00    +0.277 C 
ENDBRANCH  29  37
ENDBRANCH   6  27
TORSDOF 5
