REMARK  Name = ZINC14543948
REMARK  6 active torsions:
REMARK  status: ('A' for Active; 'I' for Inactive)
REMARK    1  A    between atoms: C_1  and  O_2
REMARK    2  A    between atoms: O_2  and  C_3
REMARK    3  A    between atoms: C_12  and  C_13
REMARK    4  A    between atoms: C_24  and  S_29
REMARK    5  A    between atoms: S_29  and  N_32
REMARK    6  A    between atoms: N_32  and  C_33
REMARK                            x       y       z     vdW  Elec       q    Type
REMARK                         _______ _______ _______ _____ _____    ______ ____
ROOT
ATOM      1  C   UNL     1       0.794  -2.544  -0.152  0.00  0.00    +0.109 C 
ATOM      2  C   UNL     1      -0.660  -2.890  -0.028  0.00  0.00    +0.029 C 
ATOM      3  C   UNL     1      -1.044  -4.121  -0.875  0.00  0.00    +0.033 C 
ATOM      4  C   UNL     1      -2.507  -3.899  -1.193  0.00  0.00    -0.030 C 
ATOM      5  C   UNL     1      -2.843  -2.650  -1.002  0.00  0.00    -0.023 C 
ATOM      6  C   UNL     1      -1.644  -1.849  -0.557  0.00  0.00    +0.049 C 
ATOM      7  C   UNL     1      -1.122  -1.094  -1.747  0.00  0.00    -0.018 A 
ATOM      8  C   UNL     1      -2.020  -0.350  -2.499  0.00  0.00    +0.034 A 
ATOM      9  C   UNL     1      -1.591   0.352  -3.607  0.00  0.00    +0.109 A 
ATOM     10  C   UNL     1      -0.259   0.317  -3.979  0.00  0.00    +0.030 A 
ATOM     11  C   UNL     1       0.642  -0.417  -3.235  0.00  0.00    +0.025 A 
ATOM     12  C   UNL     1       0.211  -1.121  -2.112  0.00  0.00    +0.031 A 
ATOM     13  N   UNL     1       1.136  -1.808  -1.351  0.00  0.00    -0.336 N 
ATOM     14  H   UNL     1       2.056  -1.818  -1.656  0.00  0.00    +0.147 HD
ENDROOT
BRANCH   1  24
ATOM     15  C   UNL     1       0.856  -0.397   1.109  0.00  0.00    +0.126 A 
ATOM     16  C   UNL     1       1.213   0.381   2.216  0.00  0.00    +0.046 A 
ATOM     17  C   UNL     1       1.908  -0.158   3.253  0.00  0.00    +0.012 A 
ATOM     18  C   UNL     1       2.275  -1.514   3.218  0.00  0.00    -0.017 A 
ATOM     19  C   UNL     1       2.992  -2.103   4.273  0.00  0.00    +0.008 A 
ATOM     20  C   UNL     1       3.331  -3.420   4.206  0.00  0.00    +0.001 A 
ATOM     21  C   UNL     1       2.976  -4.197   3.104  0.00  0.00    +0.001 A 
ATOM     22  C   UNL     1       2.281  -3.661   2.064  0.00  0.00    +0.009 A 
ATOM     23  C   UNL     1       1.913  -2.305   2.098  0.00  0.00    -0.009 A 
ATOM     24  C   UNL     1       1.192  -1.719   1.045  0.00  0.00    +0.022 A 
BRANCH  15  26
ATOM     25  C   UNL     1      -0.161   1.556   0.212  0.00  0.00    +0.277 C 
ATOM     26  O   UNL     1       0.161   0.169   0.088  0.00  0.00    -0.495 OA
ENDBRANCH  15  26
ENDBRANCH   1  24
BRANCH   9  27
ATOM     27  S   UNL     1      -2.742   1.293  -4.552  0.00  0.00    +0.072 S 
ATOM     28  O   UNL     1      -2.256   1.309  -5.887  0.00  0.00    -0.150 OA
ATOM     29  O   UNL     1      -4.035   0.807  -4.218  0.00  0.00    -0.150 OA
BRANCH  27  30
ATOM     30  N   UNL     1      -2.667   2.854  -4.002  0.00  0.00    -0.216 N 
ATOM     31  H   UNL     1      -2.392   3.566  -4.601  0.00  0.00    +0.174 HD
BRANCH  30  32
ATOM     32  C   UNL     1      -2.999   3.144  -2.677  0.00  0.00    +0.048 A 
ATOM     33  C   UNL     1      -4.145   2.599  -2.111  0.00  0.00    +0.024 A 
ATOM     34  C   UNL     1      -4.471   2.888  -0.801  0.00  0.00    +0.002 A 
ATOM     35  C   UNL     1      -3.658   3.719  -0.052  0.00  0.00    +0.000 A 
ATOM     36  C   UNL     1      -2.516   4.263  -0.612  0.00  0.00    +0.002 A 
ATOM     37  C   UNL     1      -2.182   3.974  -1.920  0.00  0.00    +0.024 A 
ENDBRANCH  30  32
ENDBRANCH  27  30
ENDBRANCH   9  27
TORSDOF 5
