REMARK  Name = ZINC13598436
REMARK  8 active torsions:
REMARK  status: ('A' for Active; 'I' for Inactive)
REMARK    1  A    between atoms: C_1  and  C_2
REMARK    2  A    between atoms: C_8  and  N_13
REMARK    3  A    between atoms: C_9  and  O_12
REMARK    4  A    between atoms: N_14  and  C_15
REMARK    5  A    between atoms: C_15  and  C_17
REMARK    6  A    between atoms: C_20  and  N_23
REMARK    7  A    between atoms: N_23  and  S_24
REMARK    8  A    between atoms: S_24  and  C_27
REMARK                            x       y       z     vdW  Elec       q    Type
REMARK                         _______ _______ _______ _____ _____    ______ ____
ROOT
ATOM      1  C   UNL     1       0.081  -3.712   5.702  0.00  0.00    +0.285 C 
ATOM      2  O   UNL     1       0.069  -2.577   6.142  0.00  0.00    -0.267 OA
ENDROOT
BRANCH   1   3
ATOM      3  C   UNL     1       0.100  -4.862   6.628  0.00  0.00    +0.040 A 
ATOM      4  C   UNL     1       0.120  -6.166   6.124  0.00  0.00    +0.015 A 
ATOM      5  C   UNL     1       0.138  -7.236   6.989  0.00  0.00    +0.027 A 
ATOM      6  C   UNL     1       0.137  -7.021   8.365  0.00  0.00    +0.074 A 
ATOM      7  C   UNL     1       0.116  -5.723   8.870  0.00  0.00    +0.027 A 
ATOM      8  C   UNL     1       0.105  -4.649   8.009  0.00  0.00    +0.015 A 
BRANCH   6   9
ATOM      9  N   UNL     1       0.155  -8.104   9.237  0.00  0.00    -0.097 NA
BRANCH   9  10
ATOM     10  S   UNL     1       0.153  -7.850  10.873  0.00  0.00    +0.098 S 
ATOM     11  O   UNL     1       1.389  -7.224  11.188  0.00  0.00    -0.148 OA
ATOM     12  O   UNL     1      -1.101  -7.263  11.192  0.00  0.00    -0.148 OA
BRANCH  10  13
ATOM     13  C   UNL     1       0.179  -9.434  11.646  0.00  0.00    +0.148 A 
ATOM     14  C   UNL     1       1.244 -10.182  12.024  0.00  0.00    +0.037 A 
ATOM     15  C   UNL     1       1.024 -11.409  12.621  0.00  0.00    +0.010 A 
ATOM     16  C   UNL     1      -0.251 -11.828  12.811  0.00  0.00    +0.047 A 
ATOM     17  S   UNL     1      -1.191 -10.465  12.142  0.00  0.00    -0.077 S 
ENDBRANCH  10  13
ENDBRANCH   9  10
ENDBRANCH   6   9
ENDBRANCH   1   3
BRANCH   1  19
ATOM     18  N   UNL     1       0.060  -2.914   3.561  0.00  0.00    -0.151 NA
ATOM     19  N   UNL     1       0.076  -3.919   4.369  0.00  0.00    -0.075 NA
BRANCH  18  27
ATOM     20  C   UNL     1      -0.018   1.503   0.010  0.00  0.00    +0.044 C 
ATOM     21  C   UNL     1       0.002  -0.004   0.002  0.00  0.00    -0.050 A 
ATOM     22  C   UNL     1       0.006  -0.688  -1.204  0.00  0.00    +0.005 A 
ATOM     23  C   UNL     1       0.024  -2.067  -1.228  0.00  0.00    +0.026 A 
ATOM     24  C   UNL     1       0.040  -2.784  -0.037  0.00  0.00    +0.051 A 
ATOM     25  C   UNL     1       0.037  -2.089   1.181  0.00  0.00    +0.031 A 
ATOM     26  C   UNL     1       0.023  -0.698   1.194  0.00  0.00    +0.015 A 
ATOM     27  C   UNL     1       0.055  -3.119   2.240  0.00  0.00    +0.152 A 
ATOM     28  C   UNL     1       0.068  -4.353   1.580  0.00  0.00    +0.219 A 
ATOM     29  N   UNL     1       0.059  -4.141   0.242  0.00  0.00    -0.324 N 
ATOM     30  H   UNL     1       0.066  -4.842  -0.428  0.00  0.00    +0.169 HD
BRANCH  28  31
ATOM     31  O   UNL     1       0.087  -5.561   2.180  0.00  0.00    -0.492 OA
ATOM     32  H   UNL     1      -0.790  -5.925   2.360  0.00  0.00    +0.294 HD
ENDBRANCH  28  31
ENDBRANCH  18  27
ENDBRANCH   1  19
TORSDOF 7
