REMARK  Name = ZINC24838125
REMARK  8 active torsions:
REMARK  status: ('A' for Active; 'I' for Inactive)
REMARK    1  A    between atoms: C_1  and  C_2
REMARK    2  A    between atoms: C_2  and  C_4
REMARK    3  A    between atoms: C_9  and  N_10
REMARK    4  A    between atoms: C_11  and  C_13
REMARK    5  A    between atoms: C_13  and  N_14
REMARK    6  A    between atoms: N_14  and  C_15
REMARK    7  A    between atoms: C_15  and  C_17
REMARK    8  A    between atoms: C_15  and  C_24
REMARK                            x       y       z     vdW  Elec       q    Type
REMARK                         _______ _______ _______ _____ _____    ______ ____
ROOT
ATOM      1  C   UNL     1       2.390  -2.316   2.251  0.00  0.00    +0.016 C 
ENDROOT
BRANCH   1   3
ATOM      2  N   UNL     1       1.962  -3.351   4.457  0.00  0.00    -0.286 N 
ATOM      3  C   UNL     1       1.705  -3.327   3.134  0.00  0.00    +0.200 C 
ATOM      4  O   UNL     1       0.922  -4.120   2.654  0.00  0.00    -0.278 OA
ATOM      5  H   UNL     1       2.726  -2.683   4.881  0.00  0.00    +0.155 HD
BRANCH   2  11
ATOM      6  C   UNL     1       0.928  -3.833   6.598  0.00  0.00    +0.042 A 
ATOM      7  C   UNL     1       0.215  -4.714   7.423  0.00  0.00    +0.062 A 
ATOM      8  C   UNL     1      -0.145  -5.958   6.954  0.00  0.00    +0.167 A 
ATOM      9  C   UNL     1       0.192  -6.343   5.652  0.00  0.00    +0.168 A 
ATOM     10  C   UNL     1       0.891  -5.475   4.827  0.00  0.00    +0.073 A 
ATOM     11  C   UNL     1       1.260  -4.221   5.287  0.00  0.00    +0.048 A 
ATOM     12  O   UNL     1      -0.276  -7.606   5.438  0.00  0.00    -0.453 OA
ATOM     13  C   UNL     1      -1.255  -7.835   6.468  0.00  0.00    +0.466 C 
ATOM     14  O   UNL     1      -0.824  -6.985   7.547  0.00  0.00    -0.453 OA
BRANCH   6  16
ATOM     15  C   UNL     1       1.066  -2.144   8.535  0.00  0.00    +0.091 C 
ATOM     16  C   UNL     1       1.319  -2.512   7.096  0.00  0.00    +0.162 C 
ATOM     17  O   UNL     1       1.848  -1.715   6.349  0.00  0.00    -0.292 OA
ENDBRANCH   6  16
ENDBRANCH   2  11
ENDBRANCH   1   3
BRANCH   1  18
ATOM     18  N   UNL     1       1.944  -2.496   0.863  0.00  0.00    +0.392 N 
ATOM     19  H   UNL     1       2.200  -3.511   0.525  0.00  0.00    -0.084 HD
ATOM     20  H   UNL     1       0.855  -2.354   0.806  0.00  0.00    -0.084 HD
BRANCH  18  21
ATOM     21  C   UNL     1       2.593  -1.525  -0.028  0.00  0.00    -0.003 C 
BRANCH  21  22
ATOM     22  C   UNL     1       2.627  -2.076  -1.431  0.00  0.00    -0.056 A 
ATOM     23  C   UNL     1       1.540  -2.770  -1.927  0.00  0.00    +0.005 A 
ATOM     24  C   UNL     1       1.569  -3.271  -3.214  0.00  0.00    +0.038 A 
ATOM     25  C   UNL     1       2.691  -3.087  -4.004  0.00  0.00    +0.123 A 
ATOM     26  C   UNL     1       3.781  -2.395  -3.504  0.00  0.00    +0.038 A 
ATOM     27  C   UNL     1       3.748  -1.890  -2.218  0.00  0.00    +0.005 A 
ATOM     28  F   UNL     1       2.722  -3.580  -5.261  0.00  0.00    -0.205 F 
ENDBRANCH  21  22
BRANCH  21  29
ATOM     29  C   UNL     1       1.816  -0.234  -0.014  0.00  0.00    -0.020 A 
ATOM     30  C   UNL     1       2.279   1.040  -0.012  0.00  0.00    +0.010 A 
ATOM     31  C   UNL     1       1.371   2.083   0.002  0.00  0.00    +0.008 A 
ATOM     32  C   UNL     1       0.045   1.800   0.013  0.00  0.00    +0.045 A 
ATOM     33  S   UNL     1       0.048   0.015   0.004  0.00  0.00    -0.103 S 
ENDBRANCH  21  29
ENDBRANCH  18  21
ENDBRANCH   1  18
TORSDOF 7
