REMARK  Name = ZINC38892985
REMARK  11 active torsions:
REMARK  status: ('A' for Active; 'I' for Inactive)
REMARK    1  A    between atoms: C_1  and  C_2
REMARK    2  A    between atoms: N_5  and  C_8
REMARK    3  A    between atoms: C_11  and  C_14
REMARK    4  A    between atoms: C_14  and  C_16
REMARK    5  A    between atoms: C_14  and  N_17
REMARK    6  A    between atoms: C_18  and  C_20
REMARK    7  A    between atoms: N_25  and  C_27
REMARK    8  A    between atoms: C_27  and  C_28
REMARK    9  A    between atoms: C_30  and  C_33
REMARK   10  A    between atoms: C_36  and  O_39
REMARK   11  A    between atoms: O_39  and  C_40
REMARK                            x       y       z     vdW  Elec       q    Type
REMARK                         _______ _______ _______ _____ _____    ______ ____
ROOT
ATOM      1  C   UNL     1      -0.959  -9.701   5.626  0.00  0.00    +0.058 C 
ATOM      2  C   UNL     1      -0.181  -9.962   4.333  0.00  0.00    +0.009 C 
ATOM      3  C   UNL     1       0.812 -11.103   4.567  0.00  0.00    -0.018 C 
ATOM      4  C   UNL     1       0.053 -12.342   5.047  0.00  0.00    -0.078 C 
ATOM      5  N   UNL     1      -0.647 -12.037   6.300  0.00  0.00    +0.386 N 
ATOM      6  C   UNL     1      -1.652 -10.992   6.068  0.00  0.00    -0.065 C 
ATOM      7  H   UNL     1       0.018 -11.714   6.986  0.00  0.00    -0.081 HD
ENDROOT
BRANCH   1   9
ATOM      8  N   UNL     1      -1.611  -7.403   4.984  0.00  0.00    -0.309 N 
ATOM      9  C   UNL     1      -1.993  -8.632   5.385  0.00  0.00    +0.215 C 
ATOM     10  O   UNL     1      -3.169  -8.877   5.551  0.00  0.00    -0.276 OA
ATOM     11  H   UNL     1      -0.671  -7.207   4.851  0.00  0.00    +0.149 HD
BRANCH   8  12
ATOM     12  C   UNL     1      -2.617  -6.364   4.750  0.00  0.00    +0.100 C 
ATOM     13  C   UNL     1      -2.950  -5.669   6.071  0.00  0.00    +0.033 C 
BRANCH  12  17
ATOM     14  C   UNL     1      -1.080  -3.494   1.980  0.00  0.00    +0.030 A 
ATOM     15  C   UNL     1      -2.407  -3.899   1.899  0.00  0.00    +0.023 A 
ATOM     16  C   UNL     1      -2.900  -4.827   2.795  0.00  0.00    +0.007 A 
ATOM     17  C   UNL     1      -2.075  -5.352   3.773  0.00  0.00    -0.027 A 
ATOM     18  C   UNL     1      -0.754  -4.952   3.856  0.00  0.00    +0.007 A 
ATOM     19  C   UNL     1      -0.253  -4.028   2.960  0.00  0.00    +0.023 A 
BRANCH  14  24
ATOM     20  C   UNL     1      -0.045   1.525  -0.005  0.00  0.00    +0.007 C 
ATOM     21  C   UNL     1      -0.011  -0.004  -0.005  0.00  0.00    -0.011 C 
ATOM     22  C   UNL     1      -1.442  -0.546  -0.007  0.00  0.00    +0.022 C 
ATOM     23  C   UNL     1      -1.404  -2.077  -0.042  0.00  0.00    +0.105 C 
ATOM     24  N   UNL     1      -0.578  -2.556   1.075  0.00  0.00    -0.330 N 
ATOM     25  C   UNL     1       0.785  -2.029   1.222  0.00  0.00    +0.105 C 
ATOM     26  C   UNL     1       0.723  -0.498   1.244  0.00  0.00    +0.022 C 
ENDBRANCH  14  24
ENDBRANCH  12  17
ENDBRANCH   8  12
ENDBRANCH   1   9
BRANCH   5  27
ATOM     27  C   UNL     1      -1.310 -13.250   6.797  0.00  0.00    +0.022 C 
BRANCH  27  28
ATOM     28  C   UNL     1      -0.270 -14.277   7.162  0.00  0.00    +0.211 A 
ATOM     29  N   UNL     1       0.286 -14.415   8.332  0.00  0.00    -0.193 NA
ATOM     30  C   UNL     1       1.169 -15.429   8.305  0.00  0.00    +0.202 A 
ATOM     31  N   UNL     1       1.177 -15.947   7.101  0.00  0.00    -0.056 NA
ATOM     32  O   UNL     1       0.235 -15.206   6.340  0.00  0.00    -0.340 OA
BRANCH  30  33
ATOM     33  C   UNL     1       1.997 -15.886   9.448  0.00  0.00    +0.023 A 
ATOM     34  C   UNL     1       1.891 -15.251  10.685  0.00  0.00    +0.015 A 
ATOM     35  C   UNL     1       2.662 -15.678  11.746  0.00  0.00    +0.046 A 
ATOM     36  C   UNL     1       3.543 -16.739  11.583  0.00  0.00    +0.120 A 
ATOM     37  C   UNL     1       3.651 -17.373  10.352  0.00  0.00    +0.046 A 
ATOM     38  C   UNL     1       2.878 -16.955   9.290  0.00  0.00    +0.015 A 
BRANCH  36  39
ATOM     39  O   UNL     1       4.301 -17.157  12.630  0.00  0.00    -0.495 OA
ATOM     40  C   UNL     1       5.186 -18.254  12.393  0.00  0.00    +0.277 C 
ENDBRANCH  36  39
ENDBRANCH  30  33
ENDBRANCH  27  28
ENDBRANCH   5  27
TORSDOF 8
