REMARK  Name = ZINC20600075
REMARK  7 active torsions:
REMARK  status: ('A' for Active; 'I' for Inactive)
REMARK    1  A    between atoms: C_1  and  C_2
REMARK    2  A    between atoms: C_2  and  C_3
REMARK    3  A    between atoms: C_2  and  N_4
REMARK    4  A    between atoms: C_7  and  N_10
REMARK    5  A    between atoms: N_10  and  C_11
REMARK    6  A    between atoms: C_25  and  C_28
REMARK    7  A    between atoms: C_28  and  O_29
REMARK                            x       y       z     vdW  Elec       q    Type
REMARK                         _______ _______ _______ _____ _____    ______ ____
ROOT
ATOM      1  C   UNL     1      -5.055  -3.790  -1.591  0.00  0.00    +0.087 C 
ATOM      2  C   UNL     1      -6.275  -4.533  -1.048  0.00  0.00    +0.024 C 
ATOM      3  C   UNL     1      -6.457  -5.823  -1.855  0.00  0.00    +0.008 C 
ATOM      4  C   UNL     1      -6.912  -5.452  -3.266  0.00  0.00    +0.056 C 
ATOM      5  C   UNL     1      -5.998  -4.412  -3.856  0.00  0.00    +0.051 A 
ATOM      6  C   UNL     1      -5.153  -3.647  -3.085  0.00  0.00    +0.009 A 
ATOM      7  C   UNL     1      -4.352  -2.704  -3.718  0.00  0.00    +0.121 A 
ATOM      8  N   UNL     1      -4.423  -2.569  -5.031  0.00  0.00    -0.222 NA
ATOM      9  C   UNL     1      -5.248  -3.324  -5.742  0.00  0.00    +0.218 A 
ATOM     10  N   UNL     1      -6.015  -4.227  -5.171  0.00  0.00    -0.219 NA
ATOM     11  N   UNL     1      -5.300  -3.161  -7.115  0.00  0.00    -0.300 N 
ATOM     12  C   UNL     1      -6.208  -3.977  -7.932  0.00  0.00    +0.108 C 
ATOM     13  C   UNL     1      -5.399  -4.655  -9.042  0.00  0.00    +0.025 C 
ATOM     14  C   UNL     1      -4.630  -3.591  -9.830  0.00  0.00    +0.017 C 
ATOM     15  C   UNL     1      -3.658  -2.867  -8.896  0.00  0.00    +0.025 C 
ATOM     16  C   UNL     1      -4.451  -2.165  -7.784  0.00  0.00    +0.108 C 
ENDROOT
BRANCH   1  17
ATOM     17  N   UNL     1      -4.987  -2.456  -0.979  0.00  0.00    -0.307 NA
ATOM     18  H   UNL     1      -5.907  -2.054  -0.885  0.00  0.00    +0.123 HD
BRANCH  17  22
ATOM     19  N   UNL     1      -3.647  -1.193   2.817  0.00  0.00    +0.381 N 
ATOM     20  C   UNL     1      -2.622  -1.377   1.783  0.00  0.00    -0.077 C 
ATOM     21  C   UNL     1      -3.278  -1.367   0.400  0.00  0.00    -0.000 C 
ATOM     22  C   UNL     1      -4.298  -2.506   0.318  0.00  0.00    +0.051 C 
ATOM     23  C   UNL     1      -5.320  -2.346   1.446  0.00  0.00    -0.000 C 
ATOM     24  C   UNL     1      -4.588  -2.319   2.790  0.00  0.00    -0.077 C 
ATOM     25  H   UNL     1      -4.147  -0.334   2.643  0.00  0.00    -0.081 HD
BRANCH  19  27
ATOM     26  C   UNL     1      -2.023   0.048   4.165  0.00  0.00    -0.014 C 
ATOM     27  C   UNL     1      -3.004  -1.125   4.136  0.00  0.00    -0.075 C 
ATOM     28  C   UNL     1      -4.071  -0.925   5.213  0.00  0.00    -0.014 C 
ENDBRANCH  19  27
ENDBRANCH  17  22
ENDBRANCH   1  17
BRANCH  14  29
ATOM     29  C   UNL     1      -3.848  -4.261 -10.961  0.00  0.00    +0.159 C 
BRANCH  29  30
ATOM     30  O   UNL     1      -3.224  -3.259 -11.767  0.00  0.00    -0.395 OA
ATOM     31  H   UNL     1      -2.709  -3.612 -12.505  0.00  0.00    +0.209 HD
ENDBRANCH  29  30
ENDBRANCH  14  29
TORSDOF 5
