REMARK  Name = ZINC33711409
REMARK  6 active torsions:
REMARK  status: ('A' for Active; 'I' for Inactive)
REMARK    1  A    between atoms: C_4  and  C_7
REMARK    2  A    between atoms: N_9  and  N_10
REMARK    3  A    between atoms: C_11  and  C_25
REMARK    4  A    between atoms: N_15  and  C_18
REMARK    5  A    between atoms: C_25  and  C_26
REMARK    6  A    between atoms: N_28  and  C_29
REMARK                            x       y       z     vdW  Elec       q    Type
REMARK                         _______ _______ _______ _____ _____    ______ ____
ROOT
ATOM      1  N   UNL     1       4.940  -3.103  -0.136  0.00  0.00    -0.218 N 
ATOM      2  C   UNL     1       5.464  -3.754  -1.349  0.00  0.00    +0.191 C 
ATOM      3  C   UNL     1       6.711  -4.465  -0.862  0.00  0.00    +0.248 C 
ATOM      4  O   UNL     1       7.476  -5.137  -1.520  0.00  0.00    -0.273 OA
ATOM      5  N   UNL     1       6.794  -4.193   0.456  0.00  0.00    -0.219 N 
ATOM      6  C   UNL     1       5.786  -3.413   0.863  0.00  0.00    +0.164 C 
ATOM      7  S   UNL     1       5.591  -2.874   2.476  0.00  0.00    -0.016 S 
ENDROOT
BRANCH   5   8
ATOM      8  C   UNL     1       7.813  -4.666   1.295  0.00  0.00    +0.043 A 
ATOM      9  C   UNL     1       7.494  -5.394   2.433  0.00  0.00    +0.025 A 
ATOM     10  C   UNL     1       8.500  -5.859   3.258  0.00  0.00    +0.022 A 
ATOM     11  C   UNL     1       9.824  -5.598   2.951  0.00  0.00    +0.041 A 
ATOM     12  C   UNL     1      10.144  -4.872   1.818  0.00  0.00    +0.022 A 
ATOM     13  C   UNL     1       9.142  -4.411   0.986  0.00  0.00    +0.025 A 
ATOM     14 CL   UNL     1      11.085  -6.183   3.990  0.00  0.00    -0.084 Cl
ENDBRANCH   5   8
BRANCH   1  17
ATOM     15  C   UNL     1       3.898  -0.972   0.064  0.00  0.00    +0.260 C 
ATOM     16  O   UNL     1       4.997  -0.452   0.080  0.00  0.00    -0.269 OA
ATOM     17  N   UNL     1       3.788  -2.311  -0.043  0.00  0.00    -0.228 N 
ATOM     18  H   UNL     1       2.912  -2.726  -0.055  0.00  0.00    +0.173 HD
BRANCH  15  22
ATOM     19  C   UNL     1       0.407   1.430   0.348  0.00  0.00    +0.000 A 
ATOM     20  C   UNL     1       1.655   2.025   0.366  0.00  0.00    +0.001 A 
ATOM     21  C   UNL     1       2.793   1.251   0.274  0.00  0.00    +0.013 A 
ATOM     22  C   UNL     1       2.683  -0.136   0.163  0.00  0.00    +0.038 A 
ATOM     23  C   UNL     1       1.420  -0.730   0.146  0.00  0.00    +0.013 A 
ATOM     24  C   UNL     1       0.290   0.056   0.238  0.00  0.00    +0.001 A 
ENDBRANCH  15  22
ENDBRANCH   1  17
BRANCH   2  25
ATOM     25  C   UNL     1       4.451  -4.757  -1.903  0.00  0.00    +0.129 C 
BRANCH  25  26
ATOM     26  C   UNL     1       3.217  -4.023  -2.362  0.00  0.00    +0.220 C 
ATOM     27  O   UNL     1       3.155  -2.817  -2.257  0.00  0.00    -0.275 OA
ATOM     28  N   UNL     1       2.183  -4.708  -2.890  0.00  0.00    -0.285 N 
ATOM     29  H   UNL     1       2.198  -5.678  -2.901  0.00  0.00    +0.155 HD
BRANCH  28  30
ATOM     30  C   UNL     1       1.087  -4.020  -3.423  0.00  0.00    +0.035 A 
ATOM     31  C   UNL     1       1.276  -2.807  -4.074  0.00  0.00    +0.023 A 
ATOM     32  C   UNL     1       0.194  -2.130  -4.599  0.00  0.00    +0.003 A 
ATOM     33  C   UNL     1      -1.079  -2.657  -4.477  0.00  0.00    +0.020 A 
ATOM     34  C   UNL     1      -1.272  -3.865  -3.829  0.00  0.00    +0.043 A 
ATOM     35  C   UNL     1      -0.191  -4.550  -3.306  0.00  0.00    +0.043 A 
ATOM     36 CL   UNL     1      -2.871  -4.523  -3.678  0.00  0.00    -0.083 Cl
ENDBRANCH  28  30
ENDBRANCH  25  26
ENDBRANCH   2  25
TORSDOF 6
