REMARK  Name = ZINC61079799
REMARK  2 active torsions:
REMARK  status: ('A' for Active; 'I' for Inactive)
REMARK    1  A    between atoms: C_2  and  C_10
REMARK    2  A    between atoms: C_6  and  N_7
REMARK                            x       y       z     vdW  Elec       q    Type
REMARK                         _______ _______ _______ _____ _____    ______ ____
ROOT
ATOM      1  C   UNL     1       1.173   3.567   0.009  0.00  0.00    +0.248 C 
ATOM      2  O   UNL     1       2.216   4.184   0.108  0.00  0.00    -0.270 OA
ATOM      3  N   UNL     1       0.004   4.232  -0.078  0.00  0.00    -0.297 N 
ATOM      4  C   UNL     1      -1.274   3.506  -0.065  0.00  0.00    +0.108 C 
ATOM      5  C   UNL     1      -2.163   4.092   1.036  0.00  0.00    +0.023 C 
ATOM      6  C   UNL     1      -2.304   5.601   0.824  0.00  0.00    -0.005 C 
ATOM      7  C   UNL     1      -3.208   6.181   1.915  0.00  0.00    +0.004 C 
ATOM      8  C   UNL     1      -2.596   5.894   3.287  0.00  0.00    +0.000 C 
ATOM      9  C   UNL     1      -1.213   6.543   3.376  0.00  0.00    +0.000 C 
ATOM     10  C   UNL     1      -0.309   5.971   2.281  0.00  0.00    +0.005 C 
ATOM     11  C   UNL     1      -0.924   6.260   0.903  0.00  0.00    +0.010 C 
ATOM     12  C   UNL     1      -0.020   5.697  -0.182  0.00  0.00    +0.112 C 
ENDROOT
BRANCH   1  14
ATOM     13  C   UNL     1       0.570   1.401  -1.060  0.00  0.00    +0.039 A 
ATOM     14  C   UNL     1       1.187   2.091  -0.014  0.00  0.00    +0.053 A 
ATOM     15  C   UNL     1       1.818   1.380   1.010  0.00  0.00    +0.033 A 
ATOM     16  C   UNL     1       1.830  -0.001   0.986  0.00  0.00    +0.056 A 
ATOM     17  C   UNL     1       1.218  -0.684  -0.051  0.00  0.00    +0.145 A 
ATOM     18  C   UNL     1       0.587   0.017  -1.076  0.00  0.00    +0.061 A 
ATOM     19  F   UNL     1       1.234  -2.035  -0.069  0.00  0.00    -0.204 F 
ATOM     20 BR   UNL     1       2.656   2.308   2.428  0.00  0.00    -0.049 Br
BRANCH  18  21
ATOM     21  N   UNL     1      -0.031  -0.678  -2.122  0.00  0.00    -0.356 N 
ATOM     22  H   UNL     1      -0.470  -0.190  -2.835  0.00  0.00    +0.142 HD
ATOM     23  H   UNL     1      -0.019  -1.648  -2.133  0.00  0.00    +0.142 HD
ENDBRANCH  18  21
ENDBRANCH   1  14
TORSDOF 2
