REMARK  Name = ZINC39326702
REMARK  13 active torsions:
REMARK  status: ('A' for Active; 'I' for Inactive)
REMARK    1  A    between atoms: C_1  and  C_2
REMARK    2  A    between atoms: C_2  and  C_3
REMARK    3  A    between atoms: C_2  and  O_4
REMARK    4  A    between atoms: O_4  and  C_5
REMARK    5  A    between atoms: C_10  and  C_11
REMARK    6  A    between atoms: C_19  and  N_35
REMARK    7  A    between atoms: C_20  and  C_33
REMARK    8  A    between atoms: C_21  and  C_23
REMARK    9  A    between atoms: C_28  and  O_29
REMARK   10  A    between atoms: O_29  and  C_30
REMARK   11  A    between atoms: C_30  and  C_31
REMARK   12  A    between atoms: C_30  and  C_32
REMARK   13  A    between atoms: C_36  and  C_38
REMARK                            x       y       z     vdW  Elec       q    Type
REMARK                         _______ _______ _______ _____ _____    ______ ____
ROOT
ATOM      1  C   UNL     1      -3.598  -1.547  -1.221  0.00  0.00    +0.020 C 
ATOM      2  C   UNL     1      -4.871  -1.962  -1.086  0.00  0.00    +0.013 C 
ATOM      3  C   UNL     1      -5.305  -3.315  -1.609  0.00  0.00    +0.147 C 
ATOM      4  N   UNL     1      -6.661  -3.126  -2.159  0.00  0.00    -0.293 N 
ATOM      5  C   UNL     1      -7.690  -2.593  -1.264  0.00  0.00    +0.143 C 
ATOM      6  C   UNL     1      -7.178  -1.391  -0.509  0.00  0.00    +0.003 C 
ATOM      7  C   UNL     1      -5.877  -1.112  -0.418  0.00  0.00    +0.136 C 
ATOM      8  O   UNL     1      -5.428  -0.039   0.283  0.00  0.00    -0.441 OA
ATOM      9  C   UNL     1      -6.248   0.996   0.529  0.00  0.00    +0.199 C 
ATOM     10  C   UNL     1      -7.595   0.837   0.489  0.00  0.00    +0.098 C 
ATOM     11  C   UNL     1      -8.198  -0.498   0.160  0.00  0.00    +0.099 C 
ATOM     12  C   UNL     1      -6.942  -3.433  -3.441  0.00  0.00    +0.213 C 
ATOM     13  O   UNL     1      -6.098  -3.956  -4.138  0.00  0.00    -0.276 OA
ATOM     14  C   UNL     1      -8.304  -3.127  -4.008  0.00  0.00    +0.109 C 
ENDROOT
BRANCH   1  20
ATOM     15  C   UNL     1      -1.541  -1.967  -2.563  0.00  0.00    +0.128 A 
ATOM     16  C   UNL     1      -0.584  -2.836  -3.059  0.00  0.00    +0.046 A 
ATOM     17  C   UNL     1      -0.654  -4.185  -2.768  0.00  0.00    +0.004 A 
ATOM     18  C   UNL     1      -1.679  -4.679  -1.979  0.00  0.00    +0.001 A 
ATOM     19  C   UNL     1      -2.641  -3.829  -1.476  0.00  0.00    +0.011 A 
ATOM     20  C   UNL     1      -2.578  -2.462  -1.759  0.00  0.00    +0.017 A 
BRANCH  15  21
ATOM     21  O   UNL     1      -1.473  -0.641  -2.849  0.00  0.00    -0.489 OA
BRANCH  21  23
ATOM     22  C   UNL     1      -0.871   1.094  -4.420  0.00  0.00    +0.051 C 
ATOM     23  C   UNL     1      -0.459  -0.227  -3.768  0.00  0.00    +0.167 C 
ATOM     24  C   UNL     1       0.861  -0.037  -3.018  0.00  0.00    +0.051 C 
ENDBRANCH  21  23
ENDBRANCH  15  21
ENDBRANCH   1  20
BRANCH  11  25
ATOM     25  C   UNL     1      -8.664  -1.146   1.438  0.00  0.00    +0.007 A 
ATOM     26  C   UNL     1      -7.757  -1.425   2.442  0.00  0.00    +0.008 A 
ATOM     27  C   UNL     1      -8.183  -2.020   3.615  0.00  0.00    +0.001 A 
ATOM     28  C   UNL     1      -9.518  -2.337   3.786  0.00  0.00    +0.004 A 
ATOM     29  C   UNL     1     -10.429  -2.061   2.785  0.00  0.00    +0.046 A 
ATOM     30  C   UNL     1     -10.004  -1.458   1.609  0.00  0.00    +0.125 A 
BRANCH  30  31
ATOM     31  O   UNL     1     -10.899  -1.180   0.625  0.00  0.00    -0.489 OA
BRANCH  31  32
ATOM     32  C   UNL     1     -12.273  -1.464   0.898  0.00  0.00    +0.167 C 
ATOM     33  C   UNL     1     -13.161  -0.568   0.032  0.00  0.00    +0.051 C 
ATOM     34  C   UNL     1     -12.564  -2.932   0.580  0.00  0.00    +0.051 C 
ENDBRANCH  31  32
ENDBRANCH  30  31
ENDBRANCH  11  25
BRANCH   9  35
ATOM     35  N   UNL     1      -5.718   2.228   0.824  0.00  0.00    -0.328 N 
ATOM     36  H   UNL     1      -4.756   2.347   0.854  0.00  0.00    +0.145 HD
ATOM     37  H   UNL     1      -6.305   2.978   1.002  0.00  0.00    +0.145 HD
ENDBRANCH   9  35
BRANCH  10  38
ATOM     38  C   UNL     1      -8.450   1.955   0.754  0.00  0.00    +0.101 C 
ATOM     39  N   UNL     1      -9.129   2.841   0.964  0.00  0.00    -0.191 NA
ENDBRANCH  10  38
TORSDOF 8
