REMARK  Name = ZINC18096094
REMARK  6 active torsions:
REMARK  status: ('A' for Active; 'I' for Inactive)
REMARK    1  A    between atoms: C_1  and  C_2
REMARK    2  A    between atoms: C_9  and  C_11
REMARK    3  A    between atoms: C_12  and  C_36
REMARK    4  A    between atoms: C_16  and  C_30
REMARK    5  A    between atoms: C_21  and  C_23
REMARK    6  A    between atoms: N_26  and  C_28
REMARK                            x       y       z     vdW  Elec       q    Type
REMARK                         _______ _______ _______ _____ _____    ______ ____
ROOT
ATOM      1  C   UNL     1       0.244  -2.946   4.703  0.00  0.00    +0.048 C 
ATOM      2  C   UNL     1       0.264  -2.332   5.919  0.00  0.00    +0.048 C 
ATOM      3  N   UNL     1       0.400  -2.998   7.057  0.00  0.00    -0.256 NA
ATOM      4  C   UNL     1       0.531  -4.299   7.171  0.00  0.00    +0.050 C 
ATOM      5  C   UNL     1       0.678  -4.912   8.543  0.00  0.00    +0.064 C 
ATOM      6  C   UNL     1       0.100  -6.330   8.526  0.00  0.00    +0.032 C 
ATOM      7  C   UNL     1       0.822  -7.147   7.450  0.00  0.00    +0.088 C 
ATOM      8  C   UNL     1       0.669  -6.460   6.119  0.00  0.00    +0.162 C 
ATOM      9  C   UNL     1       0.536  -5.125   6.035  0.00  0.00    +0.028 C 
ATOM     10  C   UNL     1       0.380  -4.458   4.681  0.00  0.00    +0.094 C 
ATOM     11  O   UNL     1       0.665  -7.197   4.992  0.00  0.00    -0.292 OA
ATOM     12  C   UNL     1       0.126  -0.833   5.972  0.00  0.00    +0.066 C 
ENDROOT
BRANCH   1  21
ATOM     13  C   UNL     1       0.639  -2.570  -2.579  0.00  0.00    +0.044 C 
ATOM     14  C   UNL     1       0.374  -1.938  -1.237  0.00  0.00    -0.046 A 
ATOM     15  C   UNL     1       0.073  -0.586  -1.136  0.00  0.00    +0.023 A 
ATOM     16  C   UNL     1      -0.164  -0.037   0.109  0.00  0.00    +0.113 A 
ATOM     17  N   UNL     1      -0.108  -0.781   1.198  0.00  0.00    -0.240 NA
ATOM     18  C   UNL     1       0.175  -2.072   1.143  0.00  0.00    +0.125 A 
ATOM     19  C   UNL     1       0.419  -2.692  -0.078  0.00  0.00    +0.047 A 
ATOM     20  N   UNL     1       0.224  -2.819   2.317  0.00  0.00    -0.267 N 
ATOM     21  C   UNL     1       0.098  -2.206   3.511  0.00  0.00    +0.248 C 
ATOM     22  O   UNL     1      -0.143  -1.013   3.561  0.00  0.00    -0.270 OA
ATOM     23  H   UNL     1       0.349  -3.780   2.277  0.00  0.00    +0.157 HD
ENDBRANCH   1  21
BRANCH  10  24
ATOM     24  C   UNL     1      -0.839  -5.031   4.006  0.00  0.00    +0.002 A 
ATOM     25  C   UNL     1      -2.164  -4.870   4.426  0.00  0.00    +0.139 A 
ATOM     26  N   UNL     1      -2.939  -5.511   3.588  0.00  0.00    -0.180 NA
ATOM     27  N   UNL     1      -2.130  -6.101   2.608  0.00  0.00    -0.274 N 
ATOM     28  C   UNL     1      -0.847  -5.787   2.884  0.00  0.00    +0.112 A 
ATOM     29  C   UNL     1      -2.596  -6.911   1.480  0.00  0.00    +0.172 C 
ENDBRANCH  10  24
BRANCH   6  30
ATOM     30  C   UNL     1       0.303  -6.974   9.873  0.00  0.00    -0.044 A 
ATOM     31  C   UNL     1       1.580  -7.137  10.376  0.00  0.00    +0.004 A 
ATOM     32  C   UNL     1       1.766  -7.728  11.612  0.00  0.00    +0.000 A 
ATOM     33  C   UNL     1       0.674  -8.155  12.345  0.00  0.00    +0.000 A 
ATOM     34  C   UNL     1      -0.603  -7.992  11.842  0.00  0.00    +0.000 A 
ATOM     35  C   UNL     1      -0.789  -7.397  10.608  0.00  0.00    +0.004 A 
ENDBRANCH   6  30
TORSDOF 3
