REMARK  Name = ZINC02374379
REMARK  8 active torsions:
REMARK  status: ('A' for Active; 'I' for Inactive)
REMARK    1  A    between atoms: C_5  and  C_7
REMARK    2  A    between atoms: C_10  and  S_13
REMARK    3  A    between atoms: N_11  and  N_12
REMARK    4  A    between atoms: S_13  and  C_14
REMARK    5  A    between atoms: C_14  and  C_15
REMARK    6  A    between atoms: N_17  and  C_18
REMARK    7  A    between atoms: C_20  and  C_28
REMARK    8  A    between atoms: C_22  and  C_24
REMARK                            x       y       z     vdW  Elec       q    Type
REMARK                         _______ _______ _______ _____ _____    ______ ____
ROOT
ATOM      1  C   UNL     1      -0.652   1.599   1.270  0.00  0.00    +0.227 C 
ATOM      2  O   UNL     1      -1.521   2.441   1.188  0.00  0.00    -0.275 OA
ATOM      3  N   UNL     1      -0.318   1.090   2.472  0.00  0.00    -0.285 N 
ATOM      4  H   UNL     1       0.427   0.473   2.547  0.00  0.00    +0.155 HD
ENDROOT
BRANCH   3   5
ATOM      5  C   UNL     1      -1.046   1.451   3.611  0.00  0.00    +0.034 A 
ATOM      6  C   UNL     1      -0.410   1.544   4.842  0.00  0.00    +0.035 A 
ATOM      7  C   UNL     1      -1.130   1.907   5.964  0.00  0.00    +0.057 A 
ATOM      8  C   UNL     1      -2.485   2.165   5.864  0.00  0.00    +0.024 A 
ATOM      9  C   UNL     1      -3.122   2.067   4.641  0.00  0.00    +0.057 A 
ATOM     10  C   UNL     1      -2.406   1.711   3.514  0.00  0.00    +0.035 A 
BRANCH   9  11
ATOM     11  C   UNL     1      -4.599   2.349   4.537  0.00  0.00    +0.417 C 
ATOM     12  F   UNL     1      -5.012   2.186   3.210  0.00  0.00    -0.166 F 
ATOM     13  F   UNL     1      -5.302   1.460   5.356  0.00  0.00    -0.166 F 
ATOM     14  F   UNL     1      -4.852   3.662   4.946  0.00  0.00    -0.166 F 
ENDBRANCH   9  11
BRANCH   7  15
ATOM     15  C   UNL     1      -0.439   2.015   7.299  0.00  0.00    +0.417 C 
ATOM     16  F   UNL     1      -0.485   0.777   7.949  0.00  0.00    -0.166 F 
ATOM     17  F   UNL     1       0.894   2.391   7.105  0.00  0.00    -0.166 F 
ATOM     18  F   UNL     1      -1.086   2.977   8.082  0.00  0.00    -0.166 F 
ENDBRANCH   7  15
ENDBRANCH   3   5
BRANCH   1  19
ATOM     19  C   UNL     1       0.055   1.123   0.027  0.00  0.00    +0.173 C 
BRANCH  19  20
ATOM     20  S   UNL     1      -0.612   1.989  -1.416  0.00  0.00    -0.075 S 
BRANCH  20  24
ATOM     21  C   UNL     1       1.239   0.736  -4.621  0.00  0.00    +0.184 A 
ATOM     22  N   UNL     1       1.811   0.039  -3.667  0.00  0.00    -0.127 NA
ATOM     23  N   UNL     1       1.300   0.352  -2.529  0.00  0.00    -0.121 NA
ATOM     24  C   UNL     1       0.365   1.261  -2.688  0.00  0.00    +0.209 A 
ATOM     25  N   UNL     1       0.295   1.540  -4.024  0.00  0.00    -0.224 N 
BRANCH  21  30
ATOM     26  C   UNL     1       2.022   1.776  -8.144  0.00  0.00    +0.001 A 
ATOM     27  C   UNL     1       2.134   0.547  -8.770  0.00  0.00    +0.003 A 
ATOM     28  C   UNL     1       1.956  -0.621  -8.052  0.00  0.00    +0.039 A 
ATOM     29  C   UNL     1       1.670  -0.568  -6.701  0.00  0.00    +0.134 A 
ATOM     30  C   UNL     1       1.550   0.670  -6.064  0.00  0.00    +0.056 A 
ATOM     31  C   UNL     1       1.732   1.845  -6.797  0.00  0.00    +0.014 A 
ATOM     32  F   UNL     1       1.502  -1.710  -5.999  0.00  0.00    -0.205 F 
ENDBRANCH  21  30
BRANCH  25  33
ATOM     33  N   UNL     1      -0.537   2.432  -4.638  0.00  0.00    -0.295 N 
ATOM     34  H   UNL     1      -0.135   3.357  -4.645  0.00  0.00    +0.163 HD
ATOM     35  H   UNL     1      -0.764   2.129  -5.574  0.00  0.00    +0.163 HD
ENDBRANCH  25  33
ENDBRANCH  20  24
ENDBRANCH  19  20
ENDBRANCH   1  19
TORSDOF 8
