REMARK  Name = ZINC17304046
REMARK  7 active torsions:
REMARK  status: ('A' for Active; 'I' for Inactive)
REMARK    1  A    between atoms: C_1  and  C_2
REMARK    2  A    between atoms: C_2  and  C_3
REMARK    3  A    between atoms: C_2  and  C_4
REMARK    4  A    between atoms: C_4  and  C_5
REMARK    5  A    between atoms: C_4  and  N_18
REMARK    6  A    between atoms: C_5  and  N_7
REMARK    7  A    between atoms: C_19  and  C_21
REMARK                            x       y       z     vdW  Elec       q    Type
REMARK                         _______ _______ _______ _____ _____    ______ ____
ROOT
ATOM      1  C   UNL     1       0.741  -0.509   1.261  0.00  0.00    +0.164 C 
ENDROOT
BRANCH   1   2
ATOM      2  N   UNL     1       0.759  -1.974   1.268  0.00  0.00    -0.303 N 
ATOM      3  C   UNL     1      -0.285  -2.659   1.775  0.00  0.00    +0.220 C 
ATOM      4  O   UNL     1      -1.240  -2.063   2.225  0.00  0.00    -0.275 OA
ATOM      5  H   UNL     1       1.523  -2.451   0.907  0.00  0.00    +0.149 HD
BRANCH   3   6
ATOM      6  C   UNL     1      -0.266  -4.166   1.782  0.00  0.00    +0.048 C 
ATOM      7  C   UNL     1      -0.148  -4.681   0.346  0.00  0.00    +0.019 C 
ATOM      8  C   UNL     1      -0.128  -6.211   0.353  0.00  0.00    -0.009 C 
ATOM      9  C   UNL     1      -1.423  -6.735   0.978  0.00  0.00    +0.007 C 
ATOM     10  C   UNL     1      -1.541  -6.220   2.414  0.00  0.00    -0.009 C 
ATOM     11  C   UNL     1      -1.560  -4.690   2.407  0.00  0.00    +0.019 C 
ATOM     12  C   UNL     1      -0.344  -6.711   3.232  0.00  0.00    +0.007 C 
ATOM     13  C   UNL     1       0.950  -6.187   2.607  0.00  0.00    -0.009 C 
ATOM     14  C   UNL     1       1.068  -6.702   1.171  0.00  0.00    +0.007 C 
ATOM     15  C   UNL     1       0.931  -4.657   2.599  0.00  0.00    +0.019 C 
ENDBRANCH   3   6
ENDBRANCH   1   2
BRANCH   1  17
ATOM     16  C   UNL     1      -0.019   1.515   0.009  0.00  0.00    +0.009 C 
ATOM     17  C   UNL     1       0.001  -0.015   0.017  0.00  0.00    +0.012 C 
ATOM     18  C   UNL     1       0.716  -0.521  -1.238  0.00  0.00    +0.009 C 
ENDBRANCH   1  17
BRANCH   1  19
ATOM     19  C   UNL     1       2.155   0.011   1.244  0.00  0.00    +0.260 C 
ATOM     20  O   UNL     1       3.089  -0.767   1.239  0.00  0.00    -0.272 OA
BRANCH  19  21
ATOM     21  N   UNL     1       2.381   1.321   1.236  0.00  0.00    -0.145 NA
ATOM     22  C   UNL     1       3.626   1.782   1.327  0.00  0.00    +0.198 A 
ATOM     23  N   UNL     1       4.750   1.018   1.317  0.00  0.00    -0.326 N 
ATOM     24  H   UNL     1       4.780   0.052   1.244  0.00  0.00    +0.169 HD
ATOM     25  C   UNL     1       5.851   1.862   1.431  0.00  0.00    +0.065 A 
ATOM     26  C   UNL     1       7.219   1.633   1.473  0.00  0.00    +0.028 A 
ATOM     27  C   UNL     1       8.090   2.697   1.593  0.00  0.00    +0.002 A 
ATOM     28  C   UNL     1       7.606   3.992   1.672  0.00  0.00    +0.002 A 
ATOM     29  C   UNL     1       6.246   4.230   1.631  0.00  0.00    +0.028 A 
ATOM     30  C   UNL     1       5.362   3.168   1.510  0.00  0.00    +0.065 A 
ATOM     31  N   UNL     1       3.974   3.090   1.438  0.00  0.00    -0.326 N 
ATOM     32  H   UNL     1       3.361   3.841   1.464  0.00  0.00    +0.169 HD
ENDBRANCH  19  21
ENDBRANCH   1  19
TORSDOF 5
