REMARK  Name = ZINC58944018
REMARK  6 active torsions:
REMARK  status: ('A' for Active; 'I' for Inactive)
REMARK    1  A    between atoms: C_6  and  C_7
REMARK    2  A    between atoms: C_7  and  N_8
REMARK    3  A    between atoms: C_12  and  C_24
REMARK    4  A    between atoms: N_16  and  C_17
REMARK    5  A    between atoms: N_26  and  C_27
REMARK    6  A    between atoms: C_30  and  C_33
REMARK                            x       y       z     vdW  Elec       q    Type
REMARK                         _______ _______ _______ _____ _____    ______ ____
ROOT
ATOM      1  N   UNL     1      -1.711  -1.026  -1.373  0.00  0.00    -0.246 N 
ATOM      2  C   UNL     1      -2.496  -0.121  -1.939  0.00  0.00    +0.223 C 
ATOM      3  O   UNL     1      -2.890   0.763  -1.210  0.00  0.00    -0.275 OA
ATOM      4  C   UNL     1      -2.958  -0.046  -3.354  0.00  0.00    +0.120 C 
ATOM      5  C   UNL     1      -3.031  -1.421  -4.019  0.00  0.00    +0.149 C 
ATOM      6  S   UNL     1      -1.430  -2.254  -3.763  0.00  0.00    -0.077 S 
ATOM      7  C   UNL     1      -1.274  -2.178  -2.001  0.00  0.00    +0.164 C 
ATOM      8  N   UNL     1      -0.766  -3.177  -1.318  0.00  0.00    -0.226 NA
ENDROOT
BRANCH   8   9
ATOM      9  C   UNL     1      -0.341  -4.306  -1.968  0.00  0.00    +0.067 A 
ATOM     10  C   UNL     1      -1.129  -4.875  -2.971  0.00  0.00    +0.030 A 
ATOM     11  C   UNL     1      -0.696  -6.011  -3.623  0.00  0.00    +0.040 A 
ATOM     12  C   UNL     1       0.518  -6.587  -3.284  0.00  0.00    +0.124 A 
ATOM     13  C   UNL     1       1.303  -6.027  -2.290  0.00  0.00    +0.040 A 
ATOM     14  C   UNL     1       0.883  -4.887  -1.635  0.00  0.00    +0.030 A 
ATOM     15  F   UNL     1       0.937  -7.700  -3.925  0.00  0.00    -0.205 F 
ENDBRANCH   8   9
BRANCH   5  16
ATOM     16  C   UNL     1      -3.294  -1.261  -5.495  0.00  0.00    +0.231 C 
ATOM     17  O   UNL     1      -2.816  -0.323  -6.097  0.00  0.00    -0.274 OA
ATOM     18  N   UNL     1      -4.059  -2.160  -6.145  0.00  0.00    -0.285 N 
ATOM     19  H   UNL     1      -4.386  -2.945  -5.679  0.00  0.00    +0.155 HD
BRANCH  18  20
ATOM     20  C   UNL     1      -4.380  -1.960  -7.486  0.00  0.00    +0.033 A 
ATOM     21  C   UNL     1      -3.453  -1.373  -8.342  0.00  0.00    +0.024 A 
ATOM     22  C   UNL     1      -3.766  -1.176  -9.662  0.00  0.00    +0.017 A 
ATOM     23  C   UNL     1      -5.019  -1.565 -10.149  0.00  0.00    +0.063 A 
ATOM     24  C   UNL     1      -5.948  -2.155  -9.284  0.00  0.00    +0.017 A 
ATOM     25  C   UNL     1      -5.626  -2.354  -7.966  0.00  0.00    +0.024 A 
BRANCH  23  26
ATOM     26  C   UNL     1      -5.359  -1.354 -11.565  0.00  0.00    +0.387 C 
ATOM     27  O   UNL     1      -4.546  -0.838 -12.319  0.00  0.00    -0.241 OA
ATOM     28  O   UNL     1      -6.455  -1.695 -11.989  0.00  0.00    -0.241 OA
ENDBRANCH  23  26
ENDBRANCH  18  20
ENDBRANCH   5  16
BRANCH   1  29
ATOM     29  C   UNL     1      -1.274  -0.787   0.004  0.00  0.00    +0.150 C 
BRANCH  29  35
ATOM     30  C   UNL     1      -0.009   1.373   0.008  0.00  0.00    +0.008 A 
ATOM     31  C   UNL     1       1.174   2.087  -0.002  0.00  0.00    +0.038 A 
ATOM     32  C   UNL     1       2.386   1.418  -0.025  0.00  0.00    +0.123 A 
ATOM     33  C   UNL     1       2.411   0.034  -0.039  0.00  0.00    +0.038 A 
ATOM     34  C   UNL     1       1.226  -0.678  -0.029  0.00  0.00    +0.008 A 
ATOM     35  C   UNL     1       0.017  -0.009  -0.006  0.00  0.00    -0.029 A 
ATOM     36  F   UNL     1       3.543   2.115  -0.035  0.00  0.00    -0.205 F 
ENDBRANCH  29  35
ENDBRANCH   1  29
TORSDOF 6
