REMARK  Name = ZINC01735890
REMARK  13 active torsions:
REMARK  status: ('A' for Active; 'I' for Inactive)
REMARK    1  A    between atoms: C_1  and  C_2
REMARK    2  A    between atoms: C_3  and  C_32
REMARK    3  A    between atoms: C_4  and  C_31
REMARK    4  A    between atoms: C_5  and  C_10
REMARK    5  A    between atoms: C_6  and  C_9
REMARK    6  A    between atoms: C_7  and  C_8
REMARK    7  A    between atoms: C_10  and  N_11
REMARK    8  A    between atoms: N_11  and  N_12
REMARK    9  A    between atoms: N_12  and  C_13
REMARK   10  A    between atoms: C_13  and  N_15
REMARK   11  A    between atoms: N_15  and  C_16
REMARK   12  A    between atoms: C_19  and  S_22
REMARK   13  A    between atoms: S_22  and  N_25
REMARK                            x       y       z     vdW  Elec       q    Type
REMARK                         _______ _______ _______ _____ _____    ______ ____
ROOT
ATOM      1  C   UNL     1       0.451  -2.481   2.640  0.00  0.00    +0.148 C 
ATOM      2  S   UNL     1       0.945  -4.116   2.752  0.00  0.00    -0.017 S 
ENDROOT
BRANCH   1   3
ATOM      3  N   UNL     1       0.451  -1.857   1.445  0.00  0.00    -0.262 N 
ATOM      4  H   UNL     1       0.730  -2.335   0.649  0.00  0.00    +0.168 HD
BRANCH   3   5
ATOM      5  N   UNL     1       0.056  -0.553   1.356  0.00  0.00    -0.237 NA
ATOM      6  H   UNL     1      -0.873  -0.429   1.731  0.00  0.00    +0.145 HD
BRANCH   5   7
ATOM      7  C   UNL     1       0.132  -0.074  -0.031  0.00  0.00    +0.137 C 
BRANCH   7  12
ATOM      8  C   UNL     1      -1.561   5.447  -0.258  0.00  0.00    +0.044 C 
ATOM      9  C   UNL     1      -1.120   4.007  -0.199  0.00  0.00    -0.044 A 
ATOM     10  C   UNL     1       0.211   3.701   0.013  0.00  0.00    -0.044 A 
ATOM     11  C   UNL     1       0.617   2.380   0.067  0.00  0.00    -0.043 A 
ATOM     12  C   UNL     1      -0.309   1.366  -0.090  0.00  0.00    -0.026 A 
ATOM     13  C   UNL     1      -1.640   1.672  -0.307  0.00  0.00    -0.043 A 
ATOM     14  C   UNL     1      -2.046   2.993  -0.356  0.00  0.00    -0.044 A 
ATOM     15  C   UNL     1      -3.497   3.327  -0.587  0.00  0.00    +0.044 C 
ATOM     16  C   UNL     1      -2.649   0.567  -0.484  0.00  0.00    +0.044 C 
ATOM     17  C   UNL     1       2.068   2.046   0.298  0.00  0.00    +0.044 C 
ATOM     18  C   UNL     1       1.221   4.806   0.185  0.00  0.00    +0.044 C 
ENDBRANCH   7  12
ENDBRANCH   5   7
ENDBRANCH   3   5
ENDBRANCH   1   3
BRANCH   1  19
ATOM     19  N   UNL     1       0.062  -1.817   3.747  0.00  0.00    -0.296 N 
ATOM     20  H   UNL     1      -0.159  -0.874   3.694  0.00  0.00    +0.154 HD
BRANCH  19  21
ATOM     21  C   UNL     1      -0.023  -2.488   4.971  0.00  0.00    +0.033 A 
ATOM     22  C   UNL     1      -1.130  -2.306   5.789  0.00  0.00    +0.025 A 
ATOM     23  C   UNL     1      -1.213  -2.974   6.995  0.00  0.00    +0.030 A 
ATOM     24  C   UNL     1      -0.190  -3.814   7.394  0.00  0.00    +0.106 A 
ATOM     25  C   UNL     1       0.917  -3.993   6.585  0.00  0.00    +0.030 A 
ATOM     26  C   UNL     1       1.003  -3.333   5.375  0.00  0.00    +0.025 A 
BRANCH  24  27
ATOM     27  S   UNL     1      -0.297  -4.659   8.937  0.00  0.00    +0.061 S 
ATOM     28  O   UNL     1      -1.679  -4.747   9.257  0.00  0.00    -0.153 OA
ATOM     29  O   UNL     1       0.534  -5.806   8.829  0.00  0.00    -0.153 OA
BRANCH  27  30
ATOM     30  N   UNL     1       0.393  -3.680  10.080  0.00  0.00    -0.177 NA
ATOM     31  C   UNL     1       1.827  -3.779  10.384  0.00  0.00    +0.109 C 
ATOM     32  C   UNL     1       2.453  -2.383  10.248  0.00  0.00    +0.017 C 
ATOM     33  C   UNL     1       1.689  -1.399  11.136  0.00  0.00    +0.003 C 
ATOM     34  C   UNL     1       0.232  -1.319  10.676  0.00  0.00    +0.017 C 
ATOM     35  C   UNL     1      -0.419  -2.699  10.814  0.00  0.00    +0.109 C 
ENDBRANCH  27  30
ENDBRANCH  24  27
ENDBRANCH  19  21
ENDBRANCH   1  19
TORSDOF 8
