REMARK  Name = ZINC34681190
REMARK  4 active torsions:
REMARK  status: ('A' for Active; 'I' for Inactive)
REMARK    1  A    between atoms: C_1  and  C_2
REMARK    2  A    between atoms: C_6  and  N_8
REMARK    3  A    between atoms: N_11  and  C_12
REMARK    4  A    between atoms: C_25  and  C_27
REMARK                            x       y       z     vdW  Elec       q    Type
REMARK                         _______ _______ _______ _____ _____    ______ ____
ROOT
ATOM      1  C   UNL     1      -1.406  -5.827   2.802  0.00  0.00    +0.051 A 
ATOM      2  C   UNL     1      -1.134  -6.676   1.730  0.00  0.00    +0.028 A 
ATOM      3  C   UNL     1      -0.907  -8.015   1.991  0.00  0.00    +0.043 A 
ATOM      4  C   UNL     1      -0.958  -8.467   3.306  0.00  0.00    +0.099 A 
ATOM      5  N   UNL     1      -1.218  -7.632   4.299  0.00  0.00    -0.348 N 
ATOM      6  C   UNL     1      -1.434  -6.348   4.086  0.00  0.00    +0.107 A 
ATOM      7  N   UNL     1      -0.732  -9.813   3.579  0.00  0.00    -0.315 N 
ATOM      8  C   UNL     1      -0.935 -10.291   4.955  0.00  0.00    +0.108 C 
ATOM      9  C   UNL     1      -1.670 -11.633   5.010  0.00  0.00    +0.038 C 
ATOM     10  C   UNL     1      -2.795 -11.659   3.995  0.00  0.00    +0.109 C 
ATOM     11  N   UNL     1      -2.241 -12.104   2.716  0.00  0.00    -0.296 N 
ATOM     12  C   UNL     1      -1.566 -11.260   1.794  0.00  0.00    +0.127 C 
ATOM     13  C   UNL     1      -0.312 -10.678   2.490  0.00  0.00    +0.125 C 
ATOM     14  C   UNL     1      -2.381 -13.405   2.391  0.00  0.00    +0.247 C 
ATOM     15  O   UNL     1      -1.836 -13.845   1.398  0.00  0.00    -0.270 OA
ATOM     16  H   UNL     1      -1.248  -7.973   5.207  0.00  0.00    +0.167 HD
ENDROOT
BRANCH  14  17
ATOM     17  C   UNL     1      -3.196 -14.296   3.243  0.00  0.00    +0.042 A 
ATOM     18  C   UNL     1      -4.032 -15.250   2.660  0.00  0.00    +0.051 A 
ATOM     19  C   UNL     1      -4.793 -16.081   3.461  0.00  0.00    +0.127 A 
ATOM     20  C   UNL     1      -4.726 -15.968   4.840  0.00  0.00    +0.076 A 
ATOM     21  C   UNL     1      -3.899 -15.024   5.424  0.00  0.00    +0.127 A 
ATOM     22  C   UNL     1      -3.129 -14.191   4.633  0.00  0.00    +0.051 A 
ATOM     23  F   UNL     1      -3.839 -14.919   6.770  0.00  0.00    -0.205 F 
ATOM     24  F   UNL     1      -5.603 -17.004   2.898  0.00  0.00    -0.205 F 
ENDBRANCH  14  17
BRANCH   1  28
ATOM     25  N   UNL     1      -2.265  -2.725   1.155  0.00  0.00    -0.269 N 
ATOM     26  C   UNL     1      -2.138  -4.044   1.404  0.00  0.00    +0.308 C 
ATOM     27  O   UNL     1      -2.472  -4.856   0.563  0.00  0.00    -0.252 OA
ATOM     28  N   UNL     1      -1.641  -4.462   2.584  0.00  0.00    -0.268 N 
ATOM     29  H   UNL     1      -1.929  -2.077   1.793  0.00  0.00    +0.156 HD
ATOM     30  H   UNL     1      -1.447  -3.819   3.284  0.00  0.00    +0.156 HD
BRANCH  25  36
ATOM     31  C   UNL     1      -2.794   0.701  -2.331  0.00  0.00    +0.044 C 
ATOM     32  C   UNL     1      -3.156  -0.635  -1.736  0.00  0.00    -0.049 A 
ATOM     33  C   UNL     1      -4.099  -1.435  -2.356  0.00  0.00    +0.003 A 
ATOM     34  C   UNL     1      -4.434  -2.662  -1.814  0.00  0.00    +0.002 A 
ATOM     35  C   UNL     1      -3.828  -3.092  -0.649  0.00  0.00    +0.023 A 
ATOM     36  C   UNL     1      -2.881  -2.292  -0.025  0.00  0.00    +0.035 A 
ATOM     37  C   UNL     1      -2.543  -1.063  -0.575  0.00  0.00    +0.026 A 
ENDBRANCH  25  36
ENDBRANCH   1  28
TORSDOF 3
