REMARK  Name = ZINC62789514
REMARK  3 active torsions:
REMARK  status: ('A' for Active; 'I' for Inactive)
REMARK    1  A    between atoms: C_3  and  C_19
REMARK    2  A    between atoms: C_4  and  N_8
REMARK    3  A    between atoms: N_20  and  O_21
REMARK                            x       y       z     vdW  Elec       q    Type
REMARK                         _______ _______ _______ _____ _____    ______ ____
ROOT
ATOM      1  C   UNL     1      -0.073   1.866   0.324  0.00  0.00    +0.021 A 
ATOM      2  C   UNL     1       1.182   2.420   0.189  0.00  0.00    +0.014 A 
ATOM      3  C   UNL     1       2.302   1.594   0.093  0.00  0.00    +0.039 A 
ATOM      4  C   UNL     1       2.142   0.202   0.135  0.00  0.00    +0.042 A 
ATOM      5  C   UNL     1       0.873  -0.341   0.271  0.00  0.00    +0.043 A 
ATOM      6  C   UNL     1      -0.229   0.489   0.365  0.00  0.00    +0.043 A 
ATOM      7 CL   UNL     1      -1.815  -0.196   0.535  0.00  0.00    -0.083 Cl
ENDROOT
BRANCH   4   8
ATOM      8  N   UNL     1       3.253  -0.633   0.039  0.00  0.00    -0.322 N 
ATOM      9  C   UNL     1       3.890  -1.160   1.255  0.00  0.00    +0.133 C 
ATOM     10  C   UNL     1       4.048  -2.676   1.074  0.00  0.00    +0.179 C 
ATOM     11  O   UNL     1       4.768  -2.915  -0.134  0.00  0.00    -0.373 OA
ATOM     12  C   UNL     1       4.111  -2.500  -1.333  0.00  0.00    +0.139 C 
ATOM     13  C   UNL     1       3.789  -0.996  -1.268  0.00  0.00    +0.102 C 
ATOM     14  C   UNL     1       5.136  -0.300  -1.523  0.00  0.00    +0.025 C 
ATOM     15  C   UNL     1       6.006  -1.310  -2.293  0.00  0.00    +0.004 C 
ATOM     16  C   UNL     1       5.155  -2.570  -2.480  0.00  0.00    +0.033 C 
ENDBRANCH   4   8
BRANCH   3  17
ATOM     17  C   UNL     1       3.650   2.183  -0.052  0.00  0.00    +0.164 C 
ATOM     18  N   UNL     1       3.902   2.996  -1.038  0.00  0.00    -0.071 NA
ATOM     19  N   UNL     1       4.644   1.870   0.859  0.00  0.00    -0.340 N 
ATOM     20  H   UNL     1       4.456   1.265   1.593  0.00  0.00    +0.144 HD
ATOM     21  H   UNL     1       5.529   2.257   0.764  0.00  0.00    +0.144 HD
BRANCH  18  22
ATOM     22  O   UNL     1       2.921   3.231  -2.031  0.00  0.00    -0.408 OA
ATOM     23  H   UNL     1       3.170   3.905  -2.678  0.00  0.00    +0.328 HD
ENDBRANCH  18  22
ENDBRANCH   3  17
TORSDOF 3
