REMARK  Name = ZINC40091582
REMARK  15 active torsions:
REMARK  status: ('A' for Active; 'I' for Inactive)
REMARK    1  A    between atoms: C_1  and  C_2
REMARK    2  A    between atoms: C_2  and  C_3
REMARK    3  A    between atoms: C_3  and  O_4
REMARK    4  A    between atoms: O_4  and  C_5
REMARK    5  A    between atoms: C_8  and  C_12
REMARK    6  A    between atoms: C_10  and  C_11
REMARK    7  A    between atoms: C_12  and  C_14
REMARK    8  A    between atoms: N_18  and  C_31
REMARK    9  A    between atoms: C_19  and  C_21
REMARK   10  A    between atoms: C_24  and  C_27
REMARK   11  A    between atoms: C_27  and  C_28
REMARK   12  A    between atoms: C_27  and  C_29
REMARK   13  A    between atoms: C_27  and  C_30
REMARK   14  A    between atoms: C_31  and  C_32
REMARK   15  A    between atoms: C_32  and  O_33
REMARK                            x       y       z     vdW  Elec       q    Type
REMARK                         _______ _______ _______ _____ _____    ______ ____
ROOT
ATOM      1  C   UNL     1      -7.686  -3.880   0.089  0.00  0.00    +0.076 C 
ATOM      2  C   UNL     1      -8.919  -4.430   0.185  0.00  0.00    +0.249 C 
ATOM      3  C   UNL     1      -9.929  -3.353   0.241  0.00  0.00    +0.288 C 
ATOM      4  O   UNL     1     -11.128  -3.525   0.329  0.00  0.00    -0.266 OA
ATOM      5  N   UNL     1      -9.323  -2.153   0.180  0.00  0.00    -0.281 N 
ATOM      6  C   UNL     1      -7.877  -2.381   0.087  0.00  0.00    +0.145 C 
ATOM      7  O   UNL     1      -9.185  -5.756   0.223  0.00  0.00    -0.282 OA
ENDROOT
BRANCH   6   8
ATOM      8  C   UNL     1      -7.343  -1.793  -1.194  0.00  0.00    -0.022 A 
ATOM      9  C   UNL     1      -8.124  -1.799  -2.334  0.00  0.00    +0.006 A 
ATOM     10  C   UNL     1      -7.635  -1.260  -3.509  0.00  0.00    +0.004 A 
ATOM     11  C   UNL     1      -6.365  -0.713  -3.543  0.00  0.00    -0.042 A 
ATOM     12  C   UNL     1      -5.585  -0.706  -2.402  0.00  0.00    +0.004 A 
ATOM     13  C   UNL     1      -6.076  -1.242  -1.226  0.00  0.00    +0.006 A 
BRANCH  11  14
ATOM     14  C   UNL     1      -5.832  -0.126  -4.824  0.00  0.00    -0.013 C 
ATOM     15  C   UNL     1      -6.739   1.020  -5.277  0.00  0.00    +0.015 C 
ATOM     16  C   UNL     1      -4.417   0.407  -4.590  0.00  0.00    +0.015 C 
ATOM     17  C   UNL     1      -5.797  -1.207  -5.906  0.00  0.00    +0.015 C 
ENDBRANCH  11  14
ENDBRANCH   6   8
BRANCH   1  18
ATOM     18  C   UNL     1      -6.411  -4.600   0.009  0.00  0.00    +0.195 C 
ATOM     19  O   UNL     1      -6.152  -5.271  -0.972  0.00  0.00    -0.287 OA
BRANCH  18  23
ATOM     20  C   UNL     1      -3.624  -4.343   3.203  0.00  0.00    +0.123 A 
ATOM     21  C   UNL     1      -4.796  -3.596   3.244  0.00  0.00    +0.046 A 
ATOM     22  C   UNL     1      -5.702  -3.676   2.211  0.00  0.00    +0.015 A 
ATOM     23  C   UNL     1      -5.442  -4.510   1.119  0.00  0.00    +0.023 A 
ATOM     24  C   UNL     1      -4.262  -5.259   1.081  0.00  0.00    +0.018 A 
ATOM     25  C   UNL     1      -3.359  -5.169   2.116  0.00  0.00    -0.008 A 
ATOM     26  C   UNL     1      -2.084  -5.971   2.075  0.00  0.00    +0.047 C 
BRANCH  20  27
ATOM     27  O   UNL     1      -2.733  -4.260   4.223  0.00  0.00    -0.492 OA
BRANCH  27  28
ATOM     28  C   UNL     1      -3.067  -3.392   5.308  0.00  0.00    +0.229 C 
BRANCH  28  30
ATOM     29  C   UNL     1      -2.310  -2.501   7.516  0.00  0.00    +0.007 C 
ATOM     30  C   UNL     1      -1.952  -3.430   6.354  0.00  0.00    +0.038 C 
ENDBRANCH  28  30
ENDBRANCH  27  28
ENDBRANCH  20  27
ENDBRANCH  18  23
ENDBRANCH   1  18
BRANCH   5  31
ATOM     31  C   UNL     1      -9.990  -0.848   0.208  0.00  0.00    +0.137 C 
BRANCH  31  32
ATOM     32  C   UNL     1     -10.119  -0.373   1.657  0.00  0.00    +0.175 C 
BRANCH  32  33
ATOM     33  O   UNL     1      -8.818  -0.144   2.201  0.00  0.00    -0.393 OA
ATOM     34  H   UNL     1      -8.823   0.160   3.119  0.00  0.00    +0.209 HD
ENDBRANCH  32  33
ENDBRANCH  31  32
ENDBRANCH   5  31
TORSDOF 10
