REMARK  Name = ZINC36014205
REMARK  7 active torsions:
REMARK  status: ('A' for Active; 'I' for Inactive)
REMARK    1  A    between atoms: C_1  and  C_2
REMARK    2  A    between atoms: C_5  and  N_8
REMARK    3  A    between atoms: C_18  and  C_31
REMARK    4  A    between atoms: N_22  and  C_23
REMARK    5  A    between atoms: C_23  and  C_24
REMARK    6  A    between atoms: C_31  and  C_32
REMARK    7  A    between atoms: C_31  and  C_33
REMARK                            x       y       z     vdW  Elec       q    Type
REMARK                         _______ _______ _______ _____ _____    ______ ____
ROOT
ATOM      1  N   UNL     1      -1.349  -6.044  -1.961  0.00  0.00    -0.269 N 
ATOM      2  C   UNL     1      -1.084  -6.031  -0.640  0.00  0.00    +0.306 C 
ATOM      3  O   UNL     1      -1.346  -5.046   0.023  0.00  0.00    -0.252 OA
ATOM      4  N   UNL     1      -0.529  -7.110  -0.053  0.00  0.00    -0.285 N 
ATOM      5  C   UNL     1      -0.032  -8.230  -0.863  0.00  0.00    +0.109 C 
ATOM      6  C   UNL     1      -0.682  -9.525  -0.366  0.00  0.00    +0.025 C 
ATOM      7  C   UNL     1      -0.441  -9.669   1.136  0.00  0.00    +0.006 C 
ATOM      8  C   UNL     1      -1.057  -8.491   1.888  0.00  0.00    +0.025 C 
ATOM      9  C   UNL     1      -0.404  -7.185   1.409  0.00  0.00    +0.109 C 
ATOM     10  N   UNL     1      -1.035 -10.934   1.617  0.00  0.00    +0.401 N 
ATOM     11  C   UNL     1      -0.102 -11.357   2.690  0.00  0.00    +0.022 C 
ATOM     12  C   UNL     1       1.223 -10.726   2.319  0.00  0.00    +0.201 C 
ATOM     13  O   UNL     1       2.307 -11.043   2.762  0.00  0.00    -0.277 OA
ATOM     14  N   UNL     1       0.995  -9.753   1.413  0.00  0.00    -0.309 N 
ATOM     15  H   UNL     1      -1.281  -6.873  -2.461  0.00  0.00    +0.156 HD
ATOM     16  H   UNL     1      -1.958 -10.775   1.991  0.00  0.00    -0.082 HD
ATOM     17  H   UNL     1      -1.061 -11.620   0.878  0.00  0.00    -0.082 HD
ENDROOT
BRANCH   1  22
ATOM     18  C   UNL     1      -2.861  -1.256  -4.601  0.00  0.00    +0.044 C 
ATOM     19  C   UNL     1      -2.459  -2.527  -3.900  0.00  0.00    -0.050 A 
ATOM     20  C   UNL     1      -1.590  -3.410  -4.516  0.00  0.00    +0.005 A 
ATOM     21  C   UNL     1      -1.220  -4.577  -3.875  0.00  0.00    +0.023 A 
ATOM     22  C   UNL     1      -1.722  -4.863  -2.612  0.00  0.00    +0.035 A 
ATOM     23  C   UNL     1      -2.594  -3.974  -1.997  0.00  0.00    +0.023 A 
ATOM     24  C   UNL     1      -2.955  -2.807  -2.640  0.00  0.00    +0.005 A 
ENDBRANCH   1  22
BRANCH  11  25
ATOM     25  C   UNL     1       0.021 -12.881   2.720  0.00  0.00    -0.023 C 
ATOM     26  C   UNL     1       0.987 -13.294   3.832  0.00  0.00    +0.006 C 
ATOM     27  C   UNL     1      -1.354 -13.498   2.983  0.00  0.00    +0.006 C 
ENDBRANCH  11  25
BRANCH  14  28
ATOM     28  C   UNL     1       2.025  -8.910   0.800  0.00  0.00    +0.141 C 
BRANCH  28  29
ATOM     29  C   UNL     1       2.739  -9.690  -0.274  0.00  0.00    -0.030 A 
ATOM     30  C   UNL     1       3.504 -10.790   0.064  0.00  0.00    +0.008 A 
ATOM     31  C   UNL     1       4.158 -11.506  -0.921  0.00  0.00    +0.038 A 
ATOM     32  C   UNL     1       4.047 -11.121  -2.246  0.00  0.00    +0.123 A 
ATOM     33  C   UNL     1       3.280 -10.018  -2.583  0.00  0.00    +0.038 A 
ATOM     34  C   UNL     1       2.622  -9.307  -1.597  0.00  0.00    +0.008 A 
ATOM     35  F   UNL     1       4.686 -11.819  -3.209  0.00  0.00    -0.205 F 
ENDBRANCH  28  29
ENDBRANCH  14  28
TORSDOF 4
