REMARK  Name = ZINC04869591
REMARK  5 active torsions:
REMARK  status: ('A' for Active; 'I' for Inactive)
REMARK    1  A    between atoms: C_1  and  C_2
REMARK    2  A    between atoms: C_4  and  C_24
REMARK    3  A    between atoms: C_14  and  C_17
REMARK    4  A    between atoms: C_18  and  C_22
REMARK    5  A    between atoms: C_19  and  N_21
REMARK                            x       y       z     vdW  Elec       q    Type
REMARK                         _______ _______ _______ _____ _____    ______ ____
ROOT
ATOM      1  C   UNL     1       3.706  -0.895  -0.036  0.00  0.00    +0.044 C 
ATOM      2  C   UNL     1       2.420  -0.108  -0.020  0.00  0.00    -0.036 A 
ATOM      3  C   UNL     1       1.182  -0.725  -0.013  0.00  0.00    +0.027 A 
ATOM      4  C   UNL     1       0.002  -0.004   0.002  0.00  0.00    +0.040 A 
ATOM      5  N   UNL     1      -0.016   1.323   0.009  0.00  0.00    -0.245 NA
ATOM      6  C   UNL     1       1.137   1.952   0.002  0.00  0.00    +0.113 A 
ATOM      7  C   UNL     1       2.405   1.309  -0.011  0.00  0.00    +0.053 A 
ATOM      8  C   UNL     1       3.561   2.190  -0.014  0.00  0.00    +0.151 A 
ATOM      9  C   UNL     1       3.312   3.524  -0.012  0.00  0.00    +0.046 A 
ATOM     10  S   UNL     1       1.547   3.671   0.001  0.00  0.00    -0.069 S 
ATOM     11  C   UNL     1       4.347   4.603  -0.017  0.00  0.00    +0.045 C 
ATOM     12  C   UNL     1       4.014   5.661   1.035  0.00  0.00    +0.018 C 
ATOM     13  C   UNL     1       2.667   6.306   0.704  0.00  0.00    +0.004 C 
ATOM     14  C   UNL     1       2.741   6.962  -0.676  0.00  0.00    -0.014 C 
ATOM     15  C   UNL     1       3.071   5.901  -1.728  0.00  0.00    +0.004 C 
ATOM     16  C   UNL     1       4.419   5.258  -1.398  0.00  0.00    +0.018 C 
ATOM     17  C   UNL     1       1.393   7.606  -1.007  0.00  0.00    +0.007 C 
ATOM     18  C   UNL     1       5.681   3.972   0.307  0.00  0.00    +0.097 C 
ATOM     19  C   UNL     1       5.839   2.628   0.286  0.00  0.00    +0.199 C 
ATOM     20  O   UNL     1       4.869   1.752  -0.017  0.00  0.00    -0.440 OA
ATOM     21  C   UNL     1      -1.307  -0.750   0.010  0.00  0.00    +0.065 C 
ENDROOT
BRANCH  19  22
ATOM     22  N   UNL     1       7.079   2.126   0.595  0.00  0.00    -0.328 N 
ATOM     23  H   UNL     1       7.805   2.729   0.819  0.00  0.00    +0.145 HD
ATOM     24  H   UNL     1       7.229   1.168   0.590  0.00  0.00    +0.145 HD
ENDBRANCH  19  22
BRANCH  18  25
ATOM     25  C   UNL     1       6.793   4.808   0.643  0.00  0.00    +0.101 C 
ATOM     26  N   UNL     1       7.676   5.471   0.909  0.00  0.00    -0.191 NA
ENDBRANCH  18  25
TORSDOF 2
