REMARK  Name = ZINC19336442
REMARK  2 active torsions:
REMARK  status: ('A' for Active; 'I' for Inactive)
REMARK    1  A    between atoms: C_6  and  C_7
REMARK    2  A    between atoms: C_8  and  C_13
REMARK                            x       y       z     vdW  Elec       q    Type
REMARK                         _______ _______ _______ _____ _____    ______ ____
ROOT
ATOM      1  C   UNL     1      -2.574  -0.227   0.126  0.00  0.00    +0.102 A 
ATOM      2  C   UNL     1      -1.270  -0.770   0.006  0.00  0.00    +0.046 A 
ATOM      3  C   UNL     1      -1.396  -2.122  -0.099  0.00  0.00    +0.115 A 
ATOM      4  N   UNL     1      -2.712  -2.420  -0.040  0.00  0.00    -0.283 N 
ATOM      5  H   UNL     1      -3.042  -3.468  -0.100  0.00  0.00    +0.188 HD
ATOM      6  N   UNL     1      -3.430  -1.226   0.097  0.00  0.00    -0.173 NA
ENDROOT
BRANCH   2   7
ATOM      7  C   UNL     1       0.002  -0.003  -0.007  0.00  0.00    +0.084 A 
ATOM      8  C   UNL     1       1.185  -0.637  -0.258  0.00  0.00    +0.077 A 
ATOM      9  S   UNL     1       2.326   0.735  -0.149  0.00  0.00    -0.060 S 
ATOM     10  C   UNL     1       1.118   2.002   0.216  0.00  0.00    +0.156 A 
ATOM     11  N   UNL     1      -0.002   1.302   0.224  0.00  0.00    -0.225 NA
ATOM     12  N   UNL     1       1.307   3.357   0.433  0.00  0.00    -0.338 N 
ATOM     13  H   UNL     1       0.445   4.005   0.649  0.00  0.00    +0.144 HD
ATOM     14  H   UNL     1       2.319   3.785   0.390  0.00  0.00    +0.144 HD
ENDBRANCH   2   7
BRANCH   1  20
ATOM     15  C   UNL     1      -3.859   1.621   1.197  0.00  0.00    +0.013 A 
ATOM     16  C   UNL     1      -4.167   2.960   1.322  0.00  0.00    +0.039 A 
ATOM     17  C   UNL     1      -3.546   3.894   0.510  0.00  0.00    +0.123 A 
ATOM     18  C   UNL     1      -2.609   3.490  -0.427  0.00  0.00    +0.039 A 
ATOM     19  C   UNL     1      -2.290   2.154  -0.555  0.00  0.00    +0.013 A 
ATOM     20  C   UNL     1      -2.913   1.210   0.260  0.00  0.00    +0.003 A 
ATOM     21  F   UNL     1      -3.855   5.204   0.632  0.00  0.00    -0.205 F 
ENDBRANCH   1  20
TORSDOF 2
