REMARK  Name = ZINC60241778
REMARK  2 active torsions:
REMARK  status: ('A' for Active; 'I' for Inactive)
REMARK    1  A    between atoms: C_8  and  C_20
REMARK    2  A    between atoms: C_11  and  C_13
REMARK                            x       y       z     vdW  Elec       q    Type
REMARK                         _______ _______ _______ _____ _____    ______ ____
ROOT
ATOM      1  C   UNL     1      -0.010   1.347  -0.474  0.00  0.00    +0.000 A 
ATOM      2  C   UNL     1       1.154   2.049  -0.218  0.00  0.00    +0.002 A 
ATOM      3  C   UNL     1       2.360   1.387  -0.139  0.00  0.00    +0.024 A 
ATOM      4  C   UNL     1       2.417   0.003  -0.316  0.00  0.00    +0.041 A 
ATOM      5  C   UNL     1       1.245  -0.691  -0.571  0.00  0.00    -0.024 A 
ATOM      6  C   UNL     1       0.038  -0.023  -0.650  0.00  0.00    +0.005 A 
ATOM      7  C   UNL     1       1.578  -2.159  -0.721  0.00  0.00    +0.069 C 
ATOM      8  C   UNL     1       3.100  -2.233  -0.519  0.00  0.00    +0.171 C 
ATOM      9  N   UNL     1       3.523  -0.851  -0.276  0.00  0.00    -0.255 N 
ATOM     10  C   UNL     1       4.793  -0.460  -0.048  0.00  0.00    +0.253 C 
ATOM     11  O   UNL     1       5.052   0.721   0.080  0.00  0.00    -0.270 OA
ENDROOT
BRANCH  10  12
ATOM     12  C   UNL     1       5.864  -1.462   0.047  0.00  0.00    +0.064 A 
ATOM     13  C   UNL     1       5.579  -2.878   0.041  0.00  0.00    +0.042 A 
ATOM     14  C   UNL     1       6.650  -3.692   0.134  0.00  0.00    +0.080 A 
ATOM     15  S   UNL     1       8.015  -2.554   0.228  0.00  0.00    -0.064 S 
ATOM     16  C   UNL     1       7.190  -1.096   0.141  0.00  0.00    +0.091 A 
ATOM     17 CL   UNL     1       7.853   0.508   0.167  0.00  0.00    -0.075 Cl
ATOM     18 CL   UNL     1       6.689  -5.427   0.156  0.00  0.00    -0.076 Cl
ENDBRANCH  10  12
BRANCH   8  19
ATOM     19  C   UNL     1       3.766  -2.775  -1.758  0.00  0.00    +0.232 C 
ATOM     20  O   UNL     1       4.567  -2.094  -2.363  0.00  0.00    -0.274 OA
ATOM     21  N   UNL     1       3.471  -4.016  -2.193  0.00  0.00    -0.328 N 
ATOM     22  H   UNL     1       2.830  -4.560  -1.709  0.00  0.00    +0.145 HD
ATOM     23  H   UNL     1       3.899  -4.365  -2.990  0.00  0.00    +0.145 HD
ENDBRANCH   8  19
TORSDOF 2
