REMARK  Name = ZINC38748420
REMARK  8 active torsions:
REMARK  status: ('A' for Active; 'I' for Inactive)
REMARK    1  A    between atoms: C_1  and  C_2
REMARK    2  A    between atoms: C_5  and  C_8
REMARK    3  A    between atoms: C_8  and  C_10
REMARK    4  A    between atoms: C_10  and  S_11
REMARK    5  A    between atoms: S_11  and  C_12
REMARK    6  A    between atoms: C_16  and  C_20
REMARK    7  A    between atoms: N_18  and  N_19
REMARK    8  A    between atoms: C_23  and  C_26
REMARK                            x       y       z     vdW  Elec       q    Type
REMARK                         _______ _______ _______ _____ _____    ______ ____
ROOT
ATOM      1  C   UNL     1       0.114  -7.549   2.584  0.00  0.00    +0.214 C 
ATOM      2  N   UNL     1       1.290  -7.076   3.350  0.00  0.00    -0.228 NA
ATOM      3  N   UNL     1       0.777  -5.958   4.158  0.00  0.00    -0.234 NA
ATOM      4  C   UNL     1      -0.580  -6.421   4.548  0.00  0.00    +0.185 C 
ATOM      5  N   UNL     1      -1.081  -7.134   3.348  0.00  0.00    -0.197 NA
ATOM      6  H   UNL     1       2.024  -6.768   2.730  0.00  0.00    +0.143 HD
ATOM      7  H   UNL     1       0.728  -5.111   3.612  0.00  0.00    +0.143 HD
ENDROOT
BRANCH   4   8
ATOM      8  C   UNL     1      -1.478  -5.227   4.878  0.00  0.00    +0.187 C 
ATOM      9  C   UNL     1      -0.884  -4.406   6.008  0.00  0.00    +0.034 C 
ATOM     10  C   UNL     1      -1.810  -4.481   6.983  0.00  0.00    +0.091 C 
ATOM     11  N   UNL     1      -2.866  -5.234   6.577  0.00  0.00    -0.154 NA
ATOM     12  N   UNL     1      -2.765  -5.682   5.429  0.00  0.00    -0.176 NA
BRANCH  10  13
ATOM     13  C   UNL     1      -1.694  -3.832   8.313  0.00  0.00    +0.002 A 
ATOM     14  C   UNL     1      -0.567  -3.075   8.625  0.00  0.00    +0.013 A 
ATOM     15  C   UNL     1      -0.463  -2.473   9.862  0.00  0.00    +0.039 A 
ATOM     16  C   UNL     1      -1.478  -2.622  10.794  0.00  0.00    +0.123 A 
ATOM     17  C   UNL     1      -2.600  -3.374  10.488  0.00  0.00    +0.039 A 
ATOM     18  C   UNL     1      -2.715  -3.974   9.251  0.00  0.00    +0.013 A 
ATOM     19  F   UNL     1      -1.372  -2.031  12.005  0.00  0.00    -0.205 F 
ENDBRANCH  10  13
ENDBRANCH   4   8
BRANCH   5  20
ATOM     20  N   UNL     1      -1.886  -8.285   3.723  0.00  0.00    -0.264 NA
ATOM     21  H   UNL     1      -2.197  -8.790   2.907  0.00  0.00    +0.137 HD
ATOM     22  H   UNL     1      -1.379  -8.891   4.352  0.00  0.00    +0.137 HD
ENDBRANCH   5  20
BRANCH   1  23
ATOM     23  S   UNL     1       0.096  -6.787   0.938  0.00  0.00    -0.116 S 
BRANCH  23  24
ATOM     24  C   UNL     1       0.075  -5.006   1.280  0.00  0.00    +0.151 C 
BRANCH  24  25
ATOM     25  C   UNL     1       0.058  -4.245  -0.021  0.00  0.00    +0.173 C 
ATOM     26  O   UNL     1       0.060  -4.846  -1.075  0.00  0.00    -0.291 OA
BRANCH  25  31
ATOM     27  C   UNL     1      -0.018   1.503   0.010  0.00  0.00    +0.044 C 
ATOM     28  C   UNL     1       0.002  -0.004   0.002  0.00  0.00    -0.050 A 
ATOM     29  C   UNL     1       0.006  -0.686  -1.202  0.00  0.00    +0.004 A 
ATOM     30  C   UNL     1       0.024  -2.064  -1.218  0.00  0.00    +0.011 A 
ATOM     31  C   UNL     1       0.039  -2.774  -0.013  0.00  0.00    +0.018 A 
ATOM     32  C   UNL     1       0.036  -2.078   1.200  0.00  0.00    +0.011 A 
ATOM     33  C   UNL     1       0.023  -0.699   1.199  0.00  0.00    +0.004 A 
ENDBRANCH  25  31
ENDBRANCH  24  25
ENDBRANCH  23  24
ENDBRANCH   1  23
TORSDOF 7
