REMARK  Name = ZINC09692226
REMARK  11 active torsions:
REMARK  status: ('A' for Active; 'I' for Inactive)
REMARK    1  A    between atoms: C_1  and  C_2
REMARK    2  A    between atoms: C_2  and  C_3
REMARK    3  A    between atoms: C_12  and  S_14
REMARK    4  A    between atoms: S_14  and  N_17
REMARK    5  A    between atoms: N_17  and  C_18
REMARK    6  A    between atoms: C_18  and  C_20
REMARK    7  A    between atoms: C_18  and  C_24
REMARK    8  A    between atoms: C_20  and  C_21
REMARK    9  A    between atoms: C_21  and  C_22
REMARK   10  A    between atoms: C_21  and  C_23
REMARK   11  A    between atoms: C_32  and  C_36
REMARK                            x       y       z     vdW  Elec       q    Type
REMARK                         _______ _______ _______ _____ _____    ______ ____
ROOT
ATOM      1  C   UNL     1      -1.259   2.274   0.069  0.00  0.00    +0.163 C 
ENDROOT
BRANCH   1   2
ATOM      2  C   UNL     1      -1.110   3.144  -1.152  0.00  0.00    +0.237 C 
ATOM      3  O   UNL     1      -0.149   3.010  -1.879  0.00  0.00    -0.274 OA
ATOM      4  N   UNL     1      -2.045   4.072  -1.435  0.00  0.00    -0.263 N 
ATOM      5  C   UNL     1      -1.961   4.804  -2.609  0.00  0.00    +0.165 A 
ATOM      6  N   UNL     1      -1.057   4.737  -3.558  0.00  0.00    -0.225 NA
ATOM      7  C   UNL     1      -1.101   5.518  -4.659  0.00  0.00    +0.080 A 
ATOM      8  C   UNL     1      -0.197   5.545  -5.747  0.00  0.00    +0.029 A 
ATOM      9  C   UNL     1      -0.389   6.407  -6.795  0.00  0.00    +0.005 A 
ATOM     10  C   UNL     1      -1.468   7.279  -6.829  0.00  0.00    -0.049 A 
ATOM     11  C   UNL     1      -2.372   7.279  -5.782  0.00  0.00    +0.020 A 
ATOM     12  C   UNL     1      -2.188   6.420  -4.728  0.00  0.00    +0.041 A 
ATOM     13  S   UNL     1      -3.061   6.074  -3.220  0.00  0.00    -0.052 S 
ATOM     14  C   UNL     1      -1.655   8.215  -7.995  0.00  0.00    +0.044 C 
ATOM     15  H   UNL     1      -2.777   4.229  -0.818  0.00  0.00    +0.157 HD
ENDBRANCH   1   2
BRANCH   1  16
ATOM     16  N   UNL     1      -0.316   1.155  -0.011  0.00  0.00    -0.178 NA
ATOM     17  H   UNL     1       0.563   1.289  -0.398  0.00  0.00    +0.149 HD
BRANCH  16  18
ATOM     18  S   UNL     1      -0.754  -0.339   0.554  0.00  0.00    +0.059 S 
ATOM     19  O   UNL     1       0.338  -1.209   0.289  0.00  0.00    -0.153 OA
ATOM     20  O   UNL     1      -1.272  -0.143   1.862  0.00  0.00    -0.153 OA
BRANCH  18  30
ATOM     21  C   UNL     1      -5.493  -2.839  -3.790  0.00  0.00    +0.220 C 
ATOM     22  O   UNL     1      -4.483  -3.230  -4.337  0.00  0.00    -0.275 OA
ATOM     23  N   UNL     1      -5.409  -2.127  -2.649  0.00  0.00    -0.271 N 
ATOM     24  C   UNL     1      -6.554  -1.602  -1.900  0.00  0.00    +0.118 C 
ATOM     25  C   UNL     1      -5.945  -0.872  -0.692  0.00  0.00    +0.056 C 
ATOM     26  C   UNL     1      -4.452  -1.046  -0.855  0.00  0.00    -0.023 A 
ATOM     27  C   UNL     1      -4.216  -1.780  -2.006  0.00  0.00    +0.040 A 
ATOM     28  C   UNL     1      -2.900  -2.071  -2.368  0.00  0.00    +0.026 A 
ATOM     29  C   UNL     1      -1.851  -1.631  -1.587  0.00  0.00    +0.030 A 
ATOM     30  C   UNL     1      -2.096  -0.899  -0.441  0.00  0.00    +0.106 A 
ATOM     31  C   UNL     1      -3.398  -0.612  -0.073  0.00  0.00    +0.034 A 
BRANCH  21  33
ATOM     32  C   UNL     1      -6.657  -3.964  -5.669  0.00  0.00    +0.013 C 
ATOM     33  C   UNL     1      -6.841  -3.150  -4.386  0.00  0.00    +0.093 C 
ENDBRANCH  21  33
ENDBRANCH  18  30
ENDBRANCH  16  18
ENDBRANCH   1  16
BRANCH   1  34
ATOM     34  C   UNL     1      -0.965   3.099   1.323  0.00  0.00    +0.032 C 
BRANCH  34  35
ATOM     35  C   UNL     1      -2.038   4.178   1.486  0.00  0.00    -0.015 C 
ATOM     36  C   UNL     1      -3.387   3.517   1.775  0.00  0.00    +0.007 C 
ATOM     37  C   UNL     1      -1.662   5.099   2.649  0.00  0.00    +0.007 C 
ENDBRANCH  34  35
ENDBRANCH   1  34
TORSDOF 7
