REMARK  Name = ZINC09410762
REMARK  5 active torsions:
REMARK  status: ('A' for Active; 'I' for Inactive)
REMARK    1  A    between atoms: C_3  and  C_6
REMARK    2  A    between atoms: C_9  and  C_30
REMARK    3  A    between atoms: C_13  and  C_16
REMARK    4  A    between atoms: N_18  and  C_19
REMARK    5  A    between atoms: C_20  and  C_27
REMARK                            x       y       z     vdW  Elec       q    Type
REMARK                         _______ _______ _______ _____ _____    ______ ____
ROOT
ATOM      1  C   UNL     1      -2.308  -0.062  -0.403  0.00  0.00    +0.111 C 
ATOM      2  C   UNL     1      -2.406   1.230   0.415  0.00  0.00    +0.063 C 
ATOM      3  C   UNL     1      -1.244   2.154   0.020  0.00  0.00    +0.215 C 
ATOM      4  N   UNL     1      -0.016   1.347   0.009  0.00  0.00    -0.238 N 
ATOM      5  C   UNL     1       0.002  -0.004   0.002  0.00  0.00    +0.130 A 
ATOM      6  C   UNL     1       1.335  -0.396  -0.013  0.00  0.00    +0.096 A 
ATOM      7  C   UNL     1       2.112   0.788  -0.014  0.00  0.00    +0.149 A 
ATOM      8  N   UNL     1       1.300   1.809  -0.001  0.00  0.00    -0.177 NA
ATOM      9  N   UNL     1      -1.113  -0.815   0.009  0.00  0.00    -0.321 N 
ATOM     10  H   UNL     1      -1.247  -1.238   0.915  0.00  0.00    +0.148 HD
ENDROOT
BRANCH   1  13
ATOM     11  C   UNL     1      -5.657  -1.872  -0.520  0.00  0.00    +0.008 A 
ATOM     12  C   UNL     1      -4.641  -1.036  -0.941  0.00  0.00    +0.013 A 
ATOM     13  C   UNL     1      -3.536  -0.901  -0.166  0.00  0.00    +0.010 A 
ATOM     14  S   UNL     1      -3.912  -1.983   1.203  0.00  0.00    -0.100 S 
ATOM     15  C   UNL     1      -5.520  -2.534   0.655  0.00  0.00    +0.045 A 
ENDBRANCH   1  13
BRANCH   6  16
ATOM     16  C   UNL     1       1.841  -1.773  -0.025  0.00  0.00    +0.253 C 
ATOM     17  O   UNL     1       1.061  -2.708  -0.021  0.00  0.00    -0.270 OA
ATOM     18  N   UNL     1       3.168  -2.003  -0.039  0.00  0.00    -0.275 N 
ATOM     19  H   UNL     1       3.790  -1.258  -0.041  0.00  0.00    +0.156 HD
BRANCH  18  20
ATOM     20  C   UNL     1       3.647  -3.305  -0.050  0.00  0.00    +0.090 A 
ATOM     21  C   UNL     1       4.961  -3.739  -0.065  0.00  0.00    +0.084 A 
ATOM     22  C   UNL     1       5.198  -5.181  -0.073  0.00  0.00    -0.018 A 
ATOM     23  C   UNL     1       4.089  -5.943  -0.068  0.00  0.00    -0.004 A 
ATOM     24  S   UNL     1       2.745  -4.782  -0.040  0.00  0.00    -0.077 S 
ATOM     25  C   UNL     1       4.413  -7.412  -0.081  0.00  0.00    +0.043 C 
ATOM     26  C   UNL     1       5.889  -7.481  -0.531  0.00  0.00    +0.010 C 
ATOM     27  C   UNL     1       6.418  -6.103  -0.085  0.00  0.00    +0.037 C 
BRANCH  21  28
ATOM     28  C   UNL     1       6.049  -2.808  -0.071  0.00  0.00    +0.102 C 
ATOM     29  N   UNL     1       6.912  -2.069  -0.076  0.00  0.00    -0.191 NA
ENDBRANCH  21  28
ENDBRANCH  18  20
ENDBRANCH   6  16
BRANCH   3  30
ATOM     30  C   UNL     1      -1.115   3.280   1.048  0.00  0.00    +0.412 C 
ATOM     31  F   UNL     1      -0.028   4.095   0.713  0.00  0.00    -0.168 F 
ATOM     32  F   UNL     1      -2.287   4.043   1.052  0.00  0.00    -0.168 F 
ATOM     33  F   UNL     1      -0.911   2.731   2.318  0.00  0.00    -0.168 F 
ENDBRANCH   3  30
TORSDOF 5
