REMARK  Name = ZINC19820964
REMARK  10 active torsions:
REMARK  status: ('A' for Active; 'I' for Inactive)
REMARK    1  A    between atoms: C_1  and  C_2
REMARK    2  A    between atoms: C_4  and  C_37
REMARK    3  A    between atoms: C_6  and  N_8
REMARK    4  A    between atoms: C_9  and  C_11
REMARK    5  A    between atoms: C_11  and  C_12
REMARK    6  A    between atoms: C_20  and  C_22
REMARK    7  A    between atoms: C_22  and  N_23
REMARK    8  A    between atoms: N_26  and  C_29
REMARK    9  A    between atoms: C_32  and  O_35
REMARK   10  A    between atoms: O_35  and  C_36
REMARK                            x       y       z     vdW  Elec       q    Type
REMARK                         _______ _______ _______ _____ _____    ______ ____
ROOT
ATOM      1  C   UNL     1      -0.666   3.958   8.087  0.00  0.00    +0.170 C 
ATOM      2  C   UNL     1       0.113   4.218   9.347  0.00  0.00    +0.234 C 
ATOM      3  O   UNL     1       0.461   3.269  10.018  0.00  0.00    -0.274 OA
ATOM      4  N   UNL     1       0.439   5.443   9.761  0.00  0.00    -0.312 N 
ATOM      5  C   UNL     1       0.015   6.676   9.111  0.00  0.00    +0.123 C 
ATOM      6  C   UNL     1      -0.367   6.416   7.652  0.00  0.00    +0.127 C 
ATOM      7  N   UNL     1      -1.236   5.227   7.610  0.00  0.00    -0.289 N 
ATOM      8  C   UNL     1      -2.501   5.300   7.152  0.00  0.00    +0.200 C 
ATOM      9  O   UNL     1      -3.195   4.305   7.127  0.00  0.00    -0.278 OA
ATOM     10  H   UNL     1       1.073   5.485  10.659  0.00  0.00    +0.149 HD
ENDROOT
BRANCH   1  11
ATOM     11  C   UNL     1       0.264   3.380   7.019  0.00  0.00    +0.128 C 
BRANCH  11  13
ATOM     12  N   UNL     1       0.075   2.490   4.719  0.00  0.00    -0.285 N 
ATOM     13  C   UNL     1      -0.538   3.021   5.795  0.00  0.00    +0.219 C 
ATOM     14  O   UNL     1      -1.736   3.208   5.779  0.00  0.00    -0.275 OA
ATOM     15  H   UNL     1       1.148   2.250   4.760  0.00  0.00    +0.155 HD
BRANCH  12  21
ATOM     16  C   UNL     1      -0.118   2.350  -0.192  0.00  0.00    +0.044 C 
ATOM     17  C   UNL     1      -0.770   2.170   1.155  0.00  0.00    -0.048 A 
ATOM     18  C   UNL     1      -2.091   1.767   1.234  0.00  0.00    +0.006 A 
ATOM     19  C   UNL     1      -2.691   1.596   2.468  0.00  0.00    -0.048 A 
ATOM     20  C   UNL     1      -1.976   1.837   3.625  0.00  0.00    +0.026 A 
ATOM     21  C   UNL     1      -0.652   2.246   3.549  0.00  0.00    +0.034 A 
ATOM     22  C   UNL     1      -0.050   2.412   2.308  0.00  0.00    +0.026 A 
ATOM     23  C   UNL     1      -4.129   1.151   2.550  0.00  0.00    +0.044 C 
ENDBRANCH  12  21
ENDBRANCH  11  13
ENDBRANCH   1  11
BRANCH   8  24
ATOM     24  C   UNL     1      -3.054   6.616   6.670  0.00  0.00    +0.019 C 
BRANCH  24  25
ATOM     25  N   UNL     1      -4.442   6.431   6.225  0.00  0.00    +0.387 N 
ATOM     26  C   UNL     1      -4.503   5.573   5.034  0.00  0.00    -0.059 C 
ATOM     27  C   UNL     1      -5.966   5.340   4.650  0.00  0.00    +0.086 C 
ATOM     28  N   UNL     1      -6.615   6.634   4.397  0.00  0.00    -0.333 N 
ATOM     29  C   UNL     1      -6.554   7.493   5.589  0.00  0.00    +0.086 C 
ATOM     30  C   UNL     1      -5.091   7.725   5.972  0.00  0.00    -0.059 C 
ATOM     31  H   UNL     1      -4.991   5.928   7.035  0.00  0.00    -0.081 HD
BRANCH  28  32
ATOM     32  C   UNL     1      -7.937   6.458   3.974  0.00  0.00    +0.030 A 
ATOM     33  C   UNL     1      -8.976   7.060   4.671  0.00  0.00    +0.027 A 
ATOM     34  C   UNL     1     -10.280   6.890   4.249  0.00  0.00    +0.047 A 
ATOM     35  C   UNL     1     -10.553   6.110   3.136  0.00  0.00    +0.120 A 
ATOM     36  C   UNL     1      -9.517   5.503   2.442  0.00  0.00    +0.047 A 
ATOM     37  C   UNL     1      -8.211   5.677   2.859  0.00  0.00    +0.027 A 
BRANCH  35  38
ATOM     38  O   UNL     1     -11.838   5.938   2.724  0.00  0.00    -0.495 OA
ATOM     39  C   UNL     1     -12.856   6.592   3.485  0.00  0.00    +0.277 C 
ENDBRANCH  35  38
ENDBRANCH  28  32
ENDBRANCH  24  25
ENDBRANCH   8  24
TORSDOF 7
