REMARK  Name = ZINC32774583
REMARK  7 active torsions:
REMARK  status: ('A' for Active; 'I' for Inactive)
REMARK    1  A    between atoms: C_3  and  C_6
REMARK    2  A    between atoms: N_15  and  C_16
REMARK    3  A    between atoms: C_16  and  C_17
REMARK    4  A    between atoms: N_19  and  C_20
REMARK    5  A    between atoms: N_19  and  C_25
REMARK    6  A    between atoms: C_20  and  C_21
REMARK    7  A    between atoms: C_21  and  C_22
REMARK                            x       y       z     vdW  Elec       q    Type
REMARK                         _______ _______ _______ _____ _____    ______ ____
ROOT
ATOM      1  C   UNL     1       3.512   3.775   3.143  0.00  0.00    +0.203 C 
ATOM      2  O   UNL     1       4.480   4.360   2.703  0.00  0.00    -0.277 OA
ATOM      3  N   UNL     1       3.566   3.207   4.364  0.00  0.00    -0.272 N 
ENDROOT
BRANCH   3   4
ATOM      4  C   UNL     1       4.768   3.203   5.082  0.00  0.00    +0.036 A 
ATOM      5  C   UNL     1       5.843   2.446   4.634  0.00  0.00    +0.026 A 
ATOM      6  C   UNL     1       7.030   2.449   5.341  0.00  0.00    +0.040 A 
ATOM      7  C   UNL     1       7.144   3.195   6.501  0.00  0.00    +0.124 A 
ATOM      8  C   UNL     1       6.071   3.945   6.953  0.00  0.00    +0.040 A 
ATOM      9  C   UNL     1       4.885   3.951   6.246  0.00  0.00    +0.026 A 
ATOM     10  F   UNL     1       8.304   3.192   7.194  0.00  0.00    -0.205 F 
ENDBRANCH   3   4
BRANCH   1  11
ATOM     11  C   UNL     1       2.250   3.685   2.324  0.00  0.00    +0.020 C 
BRANCH  11  20
ATOM     12  C   UNL     1       1.331   4.113   0.126  0.00  0.00    +0.002 C 
ATOM     13  C   UNL     1       1.578   4.875  -1.173  0.00  0.00    -0.046 A 
ATOM     14  C   UNL     1       0.946   4.580  -2.378  0.00  0.00    +0.010 A 
ATOM     15  C   UNL     1       1.226   5.307  -3.485  0.00  0.00    +0.045 A 
ATOM     16  S   UNL     1       2.426   6.477  -2.864  0.00  0.00    -0.101 S 
ATOM     17  C   UNL     1       2.463   5.911  -1.187  0.00  0.00    -0.010 A 
ATOM     18  C   UNL     1       3.259   6.420  -0.030  0.00  0.00    +0.024 C 
ATOM     19  C   UNL     1       2.660   5.818   1.252  0.00  0.00    -0.072 C 
ATOM     20  N   UNL     1       2.446   4.378   1.044  0.00  0.00    +0.393 N 
ATOM     21  H   UNL     1       3.356   3.980   0.572  0.00  0.00    -0.080 HD
BRANCH  12  24
ATOM     22  C   UNL     1       0.328   0.502  -0.560  0.00  0.00    +0.008 A 
ATOM     23  C   UNL     1       0.158   1.848  -0.292  0.00  0.00    +0.010 A 
ATOM     24  C   UNL     1       1.254   2.636  -0.161  0.00  0.00    -0.019 A 
ATOM     25  S   UNL     1       2.580   1.469  -0.418  0.00  0.00    -0.103 S 
ATOM     26  C   UNL     1       1.585   0.010  -0.683  0.00  0.00    +0.045 A 
ENDBRANCH  12  24
ENDBRANCH  11  20
ENDBRANCH   1  11
BRANCH   3  27
ATOM     27  C   UNL     1       2.367   2.593   4.939  0.00  0.00    +0.123 C 
BRANCH  27  28
ATOM     28  C   UNL     1       2.305   1.118   4.536  0.00  0.00    +0.115 C 
BRANCH  28  29
ATOM     29  C   UNL     1       1.072   0.486   5.128  0.00  0.00    +0.212 C 
ATOM     30  O   UNL     1       0.316   1.150   5.806  0.00  0.00    -0.276 OA
ATOM     31  N   UNL     1       0.808  -0.816   4.905  0.00  0.00    -0.329 N 
ATOM     32  H   UNL     1      -0.092  -1.277   5.337  0.00  0.00    +0.145 HD
ATOM     33  H   UNL     1       1.494  -1.419   4.290  0.00  0.00    +0.145 HD
ENDBRANCH  28  29
ENDBRANCH  27  28
ENDBRANCH   3  27
TORSDOF 7
