REMARK  Name = ZINC43410347
REMARK  4 active torsions:
REMARK  status: ('A' for Active; 'I' for Inactive)
REMARK    1  A    between atoms: C_5  and  S_9
REMARK    2  A    between atoms: C_6  and  C_7
REMARK    3  A    between atoms: S_9  and  C_10
REMARK    4  A    between atoms: C_14  and  N_16
REMARK                            x       y       z     vdW  Elec       q    Type
REMARK                         _______ _______ _______ _____ _____    ______ ____
ROOT
ATOM      1  S   UNL     1       1.317  -2.417  -0.034  0.00  0.00    -0.029 S 
ENDROOT
BRANCH   1   6
ATOM      2  C   UNL     1      -0.017   1.393   0.010  0.00  0.00    +0.027 A 
ATOM      3  C   UNL     1       1.191   2.081   0.002  0.00  0.00    -0.025 A 
ATOM      4  C   UNL     1       2.374   1.374  -0.010  0.00  0.00    +0.046 A 
ATOM      5  N   UNL     1       2.365   0.046  -0.022  0.00  0.00    -0.243 NA
ATOM      6  C   UNL     1       1.247  -0.656  -0.017  0.00  0.00    +0.122 A 
ATOM      7  C   UNL     1       0.002  -0.004   0.002  0.00  0.00    +0.084 A 
ATOM      8  C   UNL     1       3.719   2.056  -0.001  0.00  0.00    +0.056 C 
ATOM      9  C   UNL     1       3.583   3.517  -0.423  0.00  0.00    +0.006 C 
ATOM     10  C   UNL     1       2.486   4.168   0.427  0.00  0.00    +0.005 C 
ATOM     11  C   UNL     1       1.139   3.585   0.003  0.00  0.00    +0.037 C 
BRANCH   7  12
ATOM     12  C   UNL     1      -1.218  -0.754   0.013  0.00  0.00    +0.102 C 
ATOM     13  N   UNL     1      -2.186  -1.348   0.022  0.00  0.00    -0.191 NA
ENDBRANCH   7  12
ENDBRANCH   1   6
BRANCH   1  14
ATOM     14  C   UNL     1       3.042  -2.775  -0.055  0.00  0.00    +0.198 A 
ATOM     15  N   UNL     1       3.909  -1.774  -0.049  0.00  0.00    -0.207 NA
ATOM     16  C   UNL     1       5.219  -2.006  -0.064  0.00  0.00    +0.122 A 
ATOM     17  C   UNL     1       5.673  -3.322  -0.086  0.00  0.00    +0.086 A 
ATOM     18  C   UNL     1       4.733  -4.348  -0.092  0.00  0.00    +0.122 A 
ATOM     19  N   UNL     1       3.438  -4.039  -0.071  0.00  0.00    -0.207 NA
ATOM     20  N   UNL     1       6.120  -0.952  -0.059  0.00  0.00    -0.343 N 
ATOM     21  H   UNL     1       5.796  -0.038  -0.044  0.00  0.00    +0.144 HD
ATOM     22  H   UNL     1       7.073  -1.129  -0.070  0.00  0.00    +0.144 HD
BRANCH  18  23
ATOM     23  N   UNL     1       5.139  -5.673  -0.114  0.00  0.00    -0.343 N 
ATOM     24  H   UNL     1       6.084  -5.890  -0.125  0.00  0.00    +0.144 HD
ATOM     25  H   UNL     1       4.478  -6.383  -0.117  0.00  0.00    +0.144 HD
ENDBRANCH  18  23
ENDBRANCH   1  14
TORSDOF 4
