REMARK  Name = ZINC13022090
REMARK  10 active torsions:
REMARK  status: ('A' for Active; 'I' for Inactive)
REMARK    1  A    between atoms: C_1  and  C_2
REMARK    2  A    between atoms: C_5  and  C_8
REMARK    3  A    between atoms: C_10  and  N_19
REMARK    4  A    between atoms: N_11  and  C_13
REMARK    5  A    between atoms: C_20  and  C_22
REMARK    6  A    between atoms: C_22  and  S_23
REMARK    7  A    between atoms: S_23  and  C_24
REMARK    8  A    between atoms: C_25  and  C_32
REMARK    9  A    between atoms: C_26  and  C_31
REMARK   10  A    between atoms: C_28  and  C_30
REMARK                            x       y       z     vdW  Elec       q    Type
REMARK                         _______ _______ _______ _____ _____    ______ ____
ROOT
ATOM      1  C   UNL     1      -1.050   1.764   9.455  0.00  0.00    +0.095 A 
ATOM      2  C   UNL     1      -1.093   1.793   8.049  0.00  0.00    +0.074 A 
ATOM      3  C   UNL     1      -2.235   2.432   7.681  0.00  0.00    +0.129 A 
ATOM      4  N   UNL     1      -2.887   2.800   8.818  0.00  0.00    -0.218 N 
ATOM      5  N   UNL     1      -2.128   2.366   9.912  0.00  0.00    -0.165 NA
ENDROOT
BRANCH   1  10
ATOM      6  C   UNL     1       3.125  -0.577  12.659  0.00  0.00    +0.044 C 
ATOM      7  C   UNL     1       2.032   0.035  11.820  0.00  0.00    -0.050 A 
ATOM      8  C   UNL     1       0.949   0.638  12.434  0.00  0.00    +0.004 A 
ATOM      9  C   UNL     1      -0.054   1.201  11.671  0.00  0.00    +0.010 A 
ATOM     10  C   UNL     1       0.026   1.161  10.281  0.00  0.00    +0.002 A 
ATOM     11  C   UNL     1       1.116   0.547   9.668  0.00  0.00    +0.010 A 
ATOM     12  C   UNL     1       2.116  -0.008  10.441  0.00  0.00    +0.004 A 
ENDBRANCH   1  10
BRANCH   4  13
ATOM     13  C   UNL     1      -4.105   3.489   8.882  0.00  0.00    +0.067 A 
ATOM     14  C   UNL     1      -4.407   4.458   7.935  0.00  0.00    +0.028 A 
ATOM     15  C   UNL     1      -5.611   5.131   7.997  0.00  0.00    +0.002 A 
ATOM     16  C   UNL     1      -6.511   4.850   9.009  0.00  0.00    +0.000 A 
ATOM     17  C   UNL     1      -6.211   3.889   9.958  0.00  0.00    +0.002 A 
ATOM     18  C   UNL     1      -5.011   3.208   9.897  0.00  0.00    +0.028 A 
ENDBRANCH   4  13
BRANCH   3  19
ATOM     19  N   UNL     1      -2.658   2.672   6.374  0.00  0.00    -0.270 N 
ATOM     20  C   UNL     1      -1.908   2.256   5.335  0.00  0.00    +0.228 C 
ATOM     21  O   UNL     1      -0.865   1.671   5.536  0.00  0.00    -0.275 OA
ATOM     22  H   UNL     1      -3.493   3.140   6.214  0.00  0.00    +0.156 HD
BRANCH  20  23
ATOM     23  C   UNL     1      -2.366   2.516   3.923  0.00  0.00    +0.172 C 
BRANCH  23  24
ATOM     24  S   UNL     1      -1.154   1.841   2.761  0.00  0.00    -0.096 S 
BRANCH  24  25
ATOM     25  C   UNL     1      -1.919   2.273   1.234  0.00  0.00    +0.112 A 
ATOM     26  C   UNL     1      -1.299   1.930   0.019  0.00  0.00    +0.098 A 
ATOM     27  C   UNL     1      -1.925   2.290  -1.181  0.00  0.00    -0.032 A 
ATOM     28  C   UNL     1      -3.133   2.960  -1.117  0.00  0.00    +0.027 A 
ATOM     29  C   UNL     1      -3.681   3.263   0.117  0.00  0.00    +0.040 A 
ATOM     30  N   UNL     1      -3.075   2.920   1.236  0.00  0.00    -0.245 NA
ATOM     31  C   UNL     1      -4.995   3.998   0.182  0.00  0.00    +0.065 C 
ATOM     32  C   UNL     1      -1.299   1.951  -2.510  0.00  0.00    +0.045 C 
BRANCH  26  33
ATOM     33  C   UNL     1      -0.014   1.211   0.009  0.00  0.00    +0.389 C 
ATOM     34  O   UNL     1       0.002  -0.004   0.002  0.00  0.00    -0.240 OA
ATOM     35  O   UNL     1       1.143   1.901   0.001  0.00  0.00    -0.240 OA
ENDBRANCH  26  33
ENDBRANCH  24  25
ENDBRANCH  23  24
ENDBRANCH  20  23
ENDBRANCH   3  19
TORSDOF 7
