REMARK  Name = ZINC36050679
REMARK  9 active torsions:
REMARK  status: ('A' for Active; 'I' for Inactive)
REMARK    1  A    between atoms: C_1  and  C_2
REMARK    2  A    between atoms: C_7  and  C_8
REMARK    3  A    between atoms: C_10  and  C_30
REMARK    4  A    between atoms: C_11  and  C_29
REMARK    5  A    between atoms: C_15  and  C_18
REMARK    6  A    between atoms: C_19  and  N_21
REMARK    7  A    between atoms: N_21  and  C_22
REMARK    8  A    between atoms: C_30  and  O_32
REMARK    9  A    between atoms: O_32  and  C_33
REMARK                            x       y       z     vdW  Elec       q    Type
REMARK                         _______ _______ _______ _____ _____    ______ ____
ROOT
ATOM      1  C   UNL     1       0.929   0.145   2.772  0.00  0.00    +0.150 C 
ATOM      2  C   UNL     1      -0.380   0.636   3.350  0.00  0.00    +0.082 C 
ATOM      3  C   UNL     1      -0.450   0.825   4.717  0.00  0.00    +0.053 C 
ATOM      4  N   UNL     1       0.601   0.580   5.483  0.00  0.00    -0.230 NA
ATOM      5  C   UNL     1       1.766   0.151   5.044  0.00  0.00    +0.166 C 
ATOM      6  N   UNL     1       2.041  -0.097   3.729  0.00  0.00    -0.267 N 
ATOM      7  C   UNL     1       3.313  -0.543   3.429  0.00  0.00    +0.048 C 
ATOM      8  C   UNL     1       4.181  -0.698   4.453  0.00  0.00    +0.072 C 
ATOM      9  S   UNL     1       3.193  -0.209   5.851  0.00  0.00    -0.060 S 
ATOM     10  C   UNL     1      -1.733   1.313   5.340  0.00  0.00    +0.066 C 
ENDROOT
BRANCH   1  17
ATOM     11  C   UNL     1       0.850   0.115  -0.116  0.00  0.00    +0.044 C 
ATOM     12  C   UNL     1       0.620  -1.158   0.658  0.00  0.00    -0.045 A 
ATOM     13  C   UNL     1       0.377  -2.342  -0.014  0.00  0.00    +0.004 A 
ATOM     14  C   UNL     1       0.167  -3.509   0.695  0.00  0.00    +0.000 A 
ATOM     15  C   UNL     1       0.200  -3.493   2.078  0.00  0.00    +0.000 A 
ATOM     16  C   UNL     1       0.443  -2.310   2.750  0.00  0.00    +0.006 A 
ATOM     17  C   UNL     1       0.658  -1.143   2.040  0.00  0.00    -0.019 A 
ENDBRANCH   1  17
BRANCH   7  18
ATOM     18  C   UNL     1       3.709  -0.839   2.045  0.00  0.00    +0.091 C 
ATOM     19  C   UNL     1       4.919  -1.374   1.790  0.00  0.00    +0.243 C 
ATOM     20  O   UNL     1       5.713  -1.771   2.814  0.00  0.00    -0.270 OA
BRANCH  19  21
ATOM     21  N   UNL     1       5.350  -1.519   0.482  0.00  0.00    -0.282 N 
ATOM     22  H   UNL     1       4.810  -1.177  -0.248  0.00  0.00    +0.155 HD
BRANCH  21  23
ATOM     23  C   UNL     1       6.564  -2.158   0.213  0.00  0.00    +0.034 A 
ATOM     24  C   UNL     1       6.993  -3.204   1.020  0.00  0.00    +0.026 A 
ATOM     25  C   UNL     1       8.193  -3.835   0.752  0.00  0.00    +0.040 A 
ATOM     26  C   UNL     1       8.967  -3.425  -0.321  0.00  0.00    +0.124 A 
ATOM     27  C   UNL     1       8.541  -2.382  -1.126  0.00  0.00    +0.040 A 
ATOM     28  C   UNL     1       7.340  -1.752  -0.866  0.00  0.00    +0.026 A 
ATOM     29  F   UNL     1      10.140  -4.043  -0.580  0.00  0.00    -0.205 F 
ENDBRANCH  21  23
ENDBRANCH  19  21
ENDBRANCH   7  18
BRANCH   2  30
ATOM     30  C   UNL     1      -1.483   0.892   2.527  0.00  0.00    +0.339 C 
ATOM     31  O   UNL     1      -2.534   1.269   3.016  0.00  0.00    -0.245 OA
BRANCH  30  32
ATOM     32  O   UNL     1      -1.383   0.720   1.190  0.00  0.00    -0.465 OA
ATOM     33  C   UNL     1      -2.510   1.105   0.400  0.00  0.00    +0.280 C 
ENDBRANCH  30  32
ENDBRANCH   2  30
TORSDOF 6
