REMARK  Name = ZINC36028118
REMARK  13 active torsions:
REMARK  status: ('A' for Active; 'I' for Inactive)
REMARK    1  A    between atoms: C_1  and  C_2
REMARK    2  A    between atoms: C_2  and  C_3
REMARK    3  A    between atoms: C_3  and  C_5
REMARK    4  A    between atoms: C_3  and  C_6
REMARK    5  A    between atoms: N_10  and  C_28
REMARK    6  A    between atoms: N_15  and  S_18
REMARK    7  A    between atoms: S_18  and  C_21
REMARK    8  A    between atoms: C_28  and  C_29
REMARK    9  A    between atoms: C_29  and  C_30
REMARK   10  A    between atoms: C_33  and  O_38
REMARK   11  A    between atoms: C_34  and  O_36
REMARK   12  A    between atoms: O_36  and  C_37
REMARK   13  A    between atoms: O_38  and  C_39
REMARK                            x       y       z     vdW  Elec       q    Type
REMARK                         _______ _______ _______ _____ _____    ______ ____
ROOT
ATOM      1  C   UNL     1       0.066  -1.271  -0.517  0.00  0.00    +0.022 C 
ATOM      2  C   UNL     1       0.442  -2.014  -1.781  0.00  0.00    +0.201 C 
ATOM      3  O   UNL     1       1.333  -1.708  -2.545  0.00  0.00    -0.277 OA
ATOM      4  N   UNL     1      -0.381  -3.075  -1.915  0.00  0.00    -0.313 N 
ATOM      5  C   UNL     1      -1.319  -3.111  -0.790  0.00  0.00    +0.006 C 
ATOM      6  N   UNL     1      -1.289  -1.766  -0.174  0.00  0.00    +0.401 N 
ATOM      7  C   UNL     1      -2.729  -3.421  -1.287  0.00  0.00    +0.023 C 
ATOM      8  C   UNL     1      -2.742  -4.800  -1.955  0.00  0.00    +0.109 C 
ATOM      9  N   UNL     1      -2.193  -5.786  -1.013  0.00  0.00    -0.177 NA
ATOM     10  C   UNL     1      -0.871  -5.540  -0.421  0.00  0.00    +0.109 C 
ATOM     11  C   UNL     1      -0.875  -4.154   0.234  0.00  0.00    +0.023 C 
ATOM     12  H   UNL     1      -1.402  -1.828   0.827  0.00  0.00    -0.082 HD
ATOM     13  H   UNL     1      -1.998  -1.173  -0.579  0.00  0.00    -0.082 HD
ENDROOT
BRANCH   9  14
ATOM     14  S   UNL     1      -3.050  -7.149  -0.626  0.00  0.00    +0.061 S 
ATOM     15  O   UNL     1      -2.689  -7.491   0.705  0.00  0.00    -0.153 OA
ATOM     16  O   UNL     1      -4.396  -6.906  -1.011  0.00  0.00    -0.153 OA
BRANCH  14  17
ATOM     17  C   UNL     1      -2.458  -8.448  -1.659  0.00  0.00    +0.106 A 
ATOM     18  C   UNL     1      -3.008  -8.639  -2.912  0.00  0.00    +0.031 A 
ATOM     19  C   UNL     1      -2.544  -9.657  -3.723  0.00  0.00    +0.040 A 
ATOM     20  C   UNL     1      -1.527 -10.486  -3.280  0.00  0.00    +0.124 A 
ATOM     21  C   UNL     1      -0.977 -10.293  -2.024  0.00  0.00    +0.040 A 
ATOM     22  C   UNL     1      -1.439  -9.271  -1.217  0.00  0.00    +0.031 A 
ATOM     23  F   UNL     1      -1.073 -11.481  -4.072  0.00  0.00    -0.205 F 
ENDBRANCH  14  17
ENDBRANCH   9  14
BRANCH   1  24
ATOM     24  C   UNL     1       0.034   0.237  -0.775  0.00  0.00    -0.020 C 
ATOM     25  C   UNL     1      -0.945   0.539  -1.912  0.00  0.00    +0.006 C 
BRANCH  24  27
ATOM     26  C   UNL     1       1.428   2.242  -1.302  0.00  0.00    +0.004 C 
ATOM     27  C   UNL     1       1.433   0.718  -1.165  0.00  0.00    -0.001 C 
ENDBRANCH  24  27
ENDBRANCH   1  24
BRANCH   4  28
ATOM     28  C   UNL     1      -0.343  -4.040  -3.016  0.00  0.00    +0.110 C 
BRANCH  28  29
ATOM     29  C   UNL     1      -1.196  -3.524  -4.177  0.00  0.00    +0.054 C 
BRANCH  29  30
ATOM     30  C   UNL     1      -1.050  -4.449  -5.358  0.00  0.00    -0.042 A 
ATOM     31  C   UNL     1       0.033  -4.316  -6.208  0.00  0.00    +0.007 A 
ATOM     32  C   UNL     1       0.172  -5.162  -7.292  0.00  0.00    +0.049 A 
ATOM     33  C   UNL     1      -0.775  -6.146  -7.529  0.00  0.00    +0.161 A 
ATOM     34  C   UNL     1      -1.865  -6.279  -6.674  0.00  0.00    +0.162 A 
ATOM     35  C   UNL     1      -1.995  -5.431  -5.586  0.00  0.00    +0.053 A 
BRANCH  34  36
ATOM     36  O   UNL     1      -2.796  -7.243  -6.903  0.00  0.00    -0.491 OA
ATOM     37  C   UNL     1      -3.942  -7.253  -6.048  0.00  0.00    +0.277 C 
ENDBRANCH  34  36
BRANCH  33  38
ATOM     38  O   UNL     1      -0.640  -6.978  -8.596  0.00  0.00    -0.491 OA
ATOM     39  C   UNL     1       0.502  -6.783  -9.431  0.00  0.00    +0.277 C 
ENDBRANCH  33  38
ENDBRANCH  29  30
ENDBRANCH  28  29
ENDBRANCH   4  28
TORSDOF 9
