REMARK  Name = ZINC33633865
REMARK  5 active torsions:
REMARK  status: ('A' for Active; 'I' for Inactive)
REMARK    1  A    between atoms: C_6  and  C_7
REMARK    2  A    between atoms: C_10  and  C_12
REMARK    3  A    between atoms: N_20  and  C_23
REMARK    4  A    between atoms: N_30  and  C_31
REMARK    5  A    between atoms: C_31  and  C_32
REMARK                            x       y       z     vdW  Elec       q    Type
REMARK                         _______ _______ _______ _____ _____    ______ ____
ROOT
ATOM      1  C   UNL     1       6.087   4.332  -0.299  0.00  0.00    +0.166 C 
ATOM      2  C   UNL     1       6.453   4.354   1.129  0.00  0.00    +0.142 C 
ATOM      3  C   UNL     1       7.697   3.380   1.167  0.00  0.00    +0.242 C 
ATOM      4  C   UNL     1       7.833   3.357   2.666  0.00  0.00    +0.254 C 
ATOM      5  O   UNL     1       8.176   2.420   3.355  0.00  0.00    -0.272 OA
ATOM      6  N   UNL     1       7.491   4.608   3.091  0.00  0.00    -0.236 N 
ATOM      7  C   UNL     1       6.820   5.328   2.135  0.00  0.00    +0.230 C 
ATOM      8  O   UNL     1       6.587   6.517   2.132  0.00  0.00    -0.275 OA
ATOM      9  O   UNL     1       7.081   2.292   0.472  0.00  0.00    -0.282 OA
ATOM     10  N   UNL     1       6.439   2.928  -0.700  0.00  0.00    -0.167 NA
ENDROOT
BRANCH   6  11
ATOM     11  C   UNL     1       7.806   5.127   4.424  0.00  0.00    +0.084 C 
ATOM     12  C   UNL     1       9.322   5.126   4.627  0.00  0.00    +0.023 C 
ATOM     13  C   UNL     1       9.651   5.668   6.020  0.00  0.00    +0.002 C 
ATOM     14  C   UNL     1       8.994   4.782   7.080  0.00  0.00    +0.000 C 
ATOM     15  C   UNL     1       7.477   4.783   6.877  0.00  0.00    +0.002 C 
ATOM     16  C   UNL     1       7.149   4.241   5.485  0.00  0.00    +0.023 C 
ENDBRANCH   6  11
BRANCH   1  20
ATOM     17  C   UNL     1       2.434   4.332  -0.377  0.00  0.00    +0.135 A 
ATOM     18  C   UNL     1       2.670   5.490  -1.049  0.00  0.00    +0.050 A 
ATOM     19  C   UNL     1       4.069   5.649  -1.105  0.00  0.00    +0.047 A 
ATOM     20  C   UNL     1       4.612   4.587  -0.478  0.00  0.00    +0.126 A 
ATOM     21  O   UNL     1       3.622   3.793  -0.040  0.00  0.00    -0.458 OA
BRANCH  17  27
ATOM     22  C   UNL     1       1.003   2.555   0.623  0.00  0.00    +0.012 A 
ATOM     23  C   UNL     1      -0.240   2.027   0.903  0.00  0.00    +0.016 A 
ATOM     24  C   UNL     1      -1.385   2.687   0.490  0.00  0.00    +0.018 A 
ATOM     25  C   UNL     1      -1.290   3.885  -0.197  0.00  0.00    +0.016 A 
ATOM     26  C   UNL     1      -0.053   4.424  -0.483  0.00  0.00    +0.012 A 
ATOM     27  C   UNL     1       1.105   3.760  -0.074  0.00  0.00    +0.017 A 
ATOM     28 BR   UNL     1      -3.085   1.952   0.871  0.00  0.00    -0.050 Br
ENDBRANCH  17  27
ENDBRANCH   1  20
BRANCH  10  29
ATOM     29  C   UNL     1       5.244   2.186  -1.123  0.00  0.00    +0.211 C 
BRANCH  29  30
ATOM     30  C   UNL     1       5.661   0.899  -1.788  0.00  0.00    +0.227 C 
ATOM     31  O   UNL     1       6.837   0.627  -1.898  0.00  0.00    -0.275 OA
ATOM     32  N   UNL     1       4.726   0.051  -2.259  0.00  0.00    -0.328 N 
ATOM     33  H   UNL     1       5.030  -0.889  -2.745  0.00  0.00    +0.145 HD
ATOM     34  H   UNL     1       3.658   0.297  -2.159  0.00  0.00    +0.145 HD
ENDBRANCH  29  30
ENDBRANCH  10  29
TORSDOF 5
