REMARK  Name = ZINC34944385
REMARK  9 active torsions:
REMARK  status: ('A' for Active; 'I' for Inactive)
REMARK    1  A    between atoms: C_4  and  C_7
REMARK    2  A    between atoms: C_7  and  O_8
REMARK    3  A    between atoms: O_8  and  C_9
REMARK    4  A    between atoms: C_18  and  C_30
REMARK    5  A    between atoms: C_20  and  C_26
REMARK    6  A    between atoms: C_20  and  C_28
REMARK    7  A    between atoms: C_21  and  N_25
REMARK    8  A    between atoms: C_22  and  C_23
REMARK    9  A    between atoms: C_34  and  C_36
REMARK                            x       y       z     vdW  Elec       q    Type
REMARK                         _______ _______ _______ _____ _____    ______ ____
ROOT
ATOM      1  C   UNL     1       4.680  -2.544   0.662  0.00  0.00    +0.403 C 
ATOM      2  O   UNL     1       5.394  -3.012  -0.203  0.00  0.00    -0.226 OA
ATOM      3  N   UNL     1       5.159  -2.368   1.909  0.00  0.00    -0.263 N 
ATOM      4  C   UNL     1       4.317  -1.808   2.983  0.00  0.00    +0.138 C 
ATOM      5  C   UNL     1       4.319  -2.808   4.112  0.00  0.00    -0.003 C 
ATOM      6  C   UNL     1       5.339  -3.623   4.300  0.00  0.00    -0.026 C 
ATOM      7  C   UNL     1       6.585  -3.626   3.467  0.00  0.00    +0.048 C 
ATOM      8  C   UNL     1       6.537  -2.729   2.257  0.00  0.00    +0.120 C 
ATOM      9  C   UNL     1       6.912  -5.072   3.095  0.00  0.00    +0.068 C 
ATOM     10  C   UNL     1       7.213  -5.855   4.375  0.00  0.00    +0.188 C 
ATOM     11  C   UNL     1       6.144  -5.661   5.407  0.00  0.00    +0.054 C 
ATOM     12  C   UNL     1       5.269  -4.624   5.399  0.00  0.00    +0.074 C 
ENDROOT
BRANCH   9  13
ATOM     13  C   UNL     1       8.116  -5.101   2.188  0.00  0.00    -0.040 A 
ATOM     14  C   UNL     1       9.220  -4.322   2.480  0.00  0.00    +0.004 A 
ATOM     15  C   UNL     1      10.323  -4.349   1.648  0.00  0.00    +0.001 A 
ATOM     16  C   UNL     1      10.323  -5.155   0.525  0.00  0.00    +0.012 A 
ATOM     17  C   UNL     1       9.220  -5.934   0.234  0.00  0.00    +0.055 A 
ATOM     18  C   UNL     1       8.117  -5.911   1.068  0.00  0.00    +0.016 A 
BRANCH  17  19
ATOM     19  C   UNL     1       9.219  -6.812  -0.991  0.00  0.00    +0.417 C 
ATOM     20  F   UNL     1      10.435  -6.669  -1.668  0.00  0.00    -0.166 F 
ATOM     21  F   UNL     1       9.054  -8.148  -0.607  0.00  0.00    -0.166 F 
ATOM     22  F   UNL     1       8.168  -6.436  -1.834  0.00  0.00    -0.166 F 
ENDBRANCH  17  19
ENDBRANCH   9  13
BRANCH  11  23
ATOM     23  N   UNL     1       6.045  -6.580   6.413  0.00  0.00    -0.358 N 
ATOM     24  H   UNL     1       6.656  -7.332   6.445  0.00  0.00    +0.142 HD
ATOM     25  H   UNL     1       5.363  -6.481   7.096  0.00  0.00    +0.142 HD
ENDBRANCH  11  23
BRANCH  12  26
ATOM     26  C   UNL     1       4.291  -4.493   6.436  0.00  0.00    +0.101 C 
ATOM     27  N   UNL     1       3.515  -4.390   7.259  0.00  0.00    -0.191 NA
ENDBRANCH  12  26
BRANCH  10  28
ATOM     28  C   UNL     1       7.312  -7.287   4.049  0.00  0.00    +0.091 C 
ATOM     29  N   UNL     1       7.388  -8.392   3.798  0.00  0.00    -0.194 NA
ENDBRANCH  10  28
BRANCH  10  30
ATOM     30  C   UNL     1       8.500  -5.400   4.925  0.00  0.00    +0.091 C 
ATOM     31  N   UNL     1       9.493  -5.048   5.349  0.00  0.00    -0.194 NA
ENDBRANCH  10  30
BRANCH   1  32
ATOM     32  O   UNL     1       3.410  -2.203   0.374  0.00  0.00    -0.445 OA
BRANCH  32  33
ATOM     33  C   UNL     1       2.969  -2.417  -0.968  0.00  0.00    +0.269 C 
BRANCH  33  37
ATOM     34  C   UNL     1      -1.101  -1.176  -1.348  0.00  0.00    +0.000 A 
ATOM     35  C   UNL     1      -0.079  -0.275  -1.581  0.00  0.00    +0.000 A 
ATOM     36  C   UNL     1       1.238  -0.676  -1.458  0.00  0.00    +0.007 A 
ATOM     37  C   UNL     1       1.533  -1.979  -1.101  0.00  0.00    -0.010 A 
ATOM     38  C   UNL     1       0.511  -2.880  -0.867  0.00  0.00    +0.007 A 
ATOM     39  C   UNL     1      -0.806  -2.478  -0.992  0.00  0.00    +0.000 A 
ENDBRANCH  33  37
ENDBRANCH  32  33
ENDBRANCH   1  32
TORSDOF 9
