REMARK  Name = ZINC09492092
REMARK  9 active torsions:
REMARK  status: ('A' for Active; 'I' for Inactive)
REMARK    1  A    between atoms: C_4  and  C_7
REMARK    2  A    between atoms: C_7  and  N_8
REMARK    3  A    between atoms: N_8  and  C_9
REMARK    4  A    between atoms: C_9  and  C_10
REMARK    5  A    between atoms: C_16  and  C_18
REMARK    6  A    between atoms: C_18  and  O_19
REMARK    7  A    between atoms: O_19  and  C_20
REMARK    8  A    between atoms: C_20  and  C_22
REMARK    9  A    between atoms: C_24  and  N_29
REMARK                            x       y       z     vdW  Elec       q    Type
REMARK                         _______ _______ _______ _____ _____    ______ ____
ROOT
ATOM      1  N   UNL     1       0.166  -0.499   1.344  0.00  0.00    -0.290 N 
ATOM      2  C   UNL     1      -0.934  -0.654   2.107  0.00  0.00    +0.254 C 
ATOM      3  O   UNL     1      -2.033  -0.656   1.593  0.00  0.00    -0.272 OA
ENDROOT
BRANCH   1   4
ATOM      4  C   UNL     1       0.031  -0.229  -0.090  0.00  0.00    +0.143 C 
BRANCH   4   8
ATOM      5  C   UNL     1      -0.090   3.992  -0.739  0.00  0.00    +0.000 A 
ATOM      6  C   UNL     1       1.125   3.333  -0.700  0.00  0.00    +0.000 A 
ATOM      7  C   UNL     1       1.164   1.967  -0.490  0.00  0.00    +0.005 A 
ATOM      8  C   UNL     1      -0.012   1.260  -0.319  0.00  0.00    -0.030 A 
ATOM      9  C   UNL     1      -1.226   1.918  -0.362  0.00  0.00    +0.005 A 
ATOM     10  C   UNL     1      -1.266   3.285  -0.567  0.00  0.00    +0.000 A 
ENDBRANCH   4   8
ENDBRANCH   1   4
BRANCH   1  11
ATOM     11  C   UNL     1       1.496  -0.600   1.948  0.00  0.00    +0.143 C 
BRANCH  11  12
ATOM     12  C   UNL     1       2.027  -1.999   1.763  0.00  0.00    -0.030 A 
ATOM     13  C   UNL     1       1.689  -2.991   2.664  0.00  0.00    +0.005 A 
ATOM     14  C   UNL     1       2.171  -4.275   2.491  0.00  0.00    +0.000 A 
ATOM     15  C   UNL     1       3.001  -4.564   1.423  0.00  0.00    +0.000 A 
ATOM     16  C   UNL     1       3.344  -3.570   0.526  0.00  0.00    +0.000 A 
ATOM     17  C   UNL     1       2.857  -2.287   0.696  0.00  0.00    +0.005 A 
ENDBRANCH  11  12
ENDBRANCH   1  11
BRANCH   2  18
ATOM     18  C   UNL     1      -0.799  -0.826   3.598  0.00  0.00    +0.328 C 
BRANCH  18  19
ATOM     19  O   UNL     1      -2.108  -1.071   4.177  0.00  0.00    -0.451 OA
BRANCH  19  20
ATOM     20  C   UNL     1      -2.163  -1.248   5.511  0.00  0.00    +0.358 C 
ATOM     21  O   UNL     1      -1.145  -1.198   6.173  0.00  0.00    -0.243 OA
BRANCH  20  22
ATOM     22  C   UNL     1      -3.462  -1.502   6.171  0.00  0.00    +0.146 A 
ATOM     23  C   UNL     1      -3.510  -1.690   7.550  0.00  0.00    +0.093 A 
ATOM     24  C   UNL     1      -4.745  -1.924   8.157  0.00  0.00    +0.067 A 
ATOM     25  C   UNL     1      -5.881  -1.970   7.351  0.00  0.00    +0.098 A 
ATOM     26  C   UNL     1      -5.750  -1.780   5.984  0.00  0.00    +0.128 A 
ATOM     27 CL   UNL     1      -7.161  -1.837   4.974  0.00  0.00    -0.062 Cl
ATOM     28 CL   UNL     1      -7.442  -2.265   8.051  0.00  0.00    -0.079 Cl
ATOM     29 CL   UNL     1      -2.058  -1.627   8.499  0.00  0.00    -0.079 Cl
ATOM     30  N   UNL     1      -4.567  -1.545   5.362  0.00  0.00    -0.338 N 
ATOM     31  H   UNL     1      -4.504  -1.407   4.346  0.00  0.00    +0.167 HD
BRANCH  24  32
ATOM     32  N   UNL     1      -4.838  -2.111   9.535  0.00  0.00    -0.356 N 
ATOM     33  H   UNL     1      -5.702  -2.276   9.944  0.00  0.00    +0.142 HD
ATOM     34  H   UNL     1      -4.040  -2.076  10.085  0.00  0.00    +0.142 HD
ENDBRANCH  24  32
ENDBRANCH  20  22
ENDBRANCH  19  20
ENDBRANCH  18  19
ENDBRANCH   2  18
TORSDOF 9
