REMARK  Name = ZINC13131382
REMARK  2 active torsions:
REMARK  status: ('A' for Active; 'I' for Inactive)
REMARK    1  A    between atoms: C_4  and  C_7
REMARK    2  A    between atoms: C_10  and  C_19
REMARK                            x       y       z     vdW  Elec       q    Type
REMARK                         _______ _______ _______ _____ _____    ______ ____
ROOT
ATOM      1  C   UNL     1       3.711  -0.707  -0.038  0.00  0.00    +0.143 C 
ATOM      2  C   UNL     1       3.817  -1.600   1.205  0.00  0.00    +0.058 C 
ATOM      3  C   UNL     1       5.012  -2.549   1.060  0.00  0.00    +0.106 C 
ATOM      4  N   UNL     1       4.779  -3.425  -0.105  0.00  0.00    -0.307 N 
ATOM      5  C   UNL     1       4.282  -2.809  -1.246  0.00  0.00    +0.216 A 
ATOM      6  N   UNL     1       3.787  -1.547  -1.233  0.00  0.00    -0.224 N 
ATOM      7  N   UNL     1       3.390  -1.257  -2.539  0.00  0.00    -0.132 NA
ATOM      8  C   UNL     1       3.655  -2.323  -3.261  0.00  0.00    +0.233 A 
ATOM      9  N   UNL     1       4.194  -3.267  -2.467  0.00  0.00    -0.180 NA
ATOM     10  N   UNL     1       3.410  -2.457  -4.628  0.00  0.00    -0.326 N 
ATOM     11  H   UNL     1       4.962  -4.377  -0.075  0.00  0.00    +0.149 HD
ATOM     12  H   UNL     1       3.013  -1.724  -5.124  0.00  0.00    +0.145 HD
ATOM     13  H   UNL     1       3.638  -3.283  -5.083  0.00  0.00    +0.145 HD
ENDROOT
BRANCH   3  14
ATOM     14  C   UNL     1       5.149  -3.385   2.306  0.00  0.00    -0.027 A 
ATOM     15  C   UNL     1       4.343  -4.494   2.486  0.00  0.00    +0.008 A 
ATOM     16  C   UNL     1       4.467  -5.261   3.629  0.00  0.00    +0.038 A 
ATOM     17  C   UNL     1       5.400  -4.919   4.593  0.00  0.00    +0.123 A 
ATOM     18  C   UNL     1       6.207  -3.809   4.412  0.00  0.00    +0.038 A 
ATOM     19  C   UNL     1       6.084  -3.046   3.266  0.00  0.00    +0.008 A 
ATOM     20  F   UNL     1       5.522  -5.668   5.711  0.00  0.00    -0.205 F 
ENDBRANCH   3  14
BRANCH   1  24
ATOM     21  C   UNL     1      -0.017   1.378   0.010  0.00  0.00    +0.000 A 
ATOM     22  C   UNL     1       1.171   2.086   0.002  0.00  0.00    +0.000 A 
ATOM     23  C   UNL     1       2.377   1.411  -0.013  0.00  0.00    +0.006 A 
ATOM     24  C   UNL     1       2.396   0.029  -0.020  0.00  0.00    -0.023 A 
ATOM     25  C   UNL     1       1.208  -0.679  -0.012  0.00  0.00    +0.006 A 
ATOM     26  C   UNL     1       0.002  -0.004   0.002  0.00  0.00    +0.000 A 
ENDBRANCH   1  24
TORSDOF 2
