REMARK  Name = ZINC11812975
REMARK  7 active torsions:
REMARK  status: ('A' for Active; 'I' for Inactive)
REMARK    1  A    between atoms: C_6  and  C_7
REMARK    2  A    between atoms: C_7  and  N_8
REMARK    3  A    between atoms: C_9  and  C_11
REMARK    4  A    between atoms: C_15  and  C_20
REMARK    5  A    between atoms: C_20  and  O_33
REMARK    6  A    between atoms: C_25  and  C_26
REMARK    7  A    between atoms: C_25  and  N_68
REMARK                            x       y       z     vdW  Elec       q    Type
REMARK                         _______ _______ _______ _____ _____    ______ ____
ROOT
ATOM      1  C   UNL     1       2.051   1.117  -1.116  0.00  0.00    +0.190 A 
ATOM      2  C   UNL     1       1.391  -0.069  -1.151  0.00  0.00    +0.063 A 
ATOM      3  C   UNL     1      -0.015   0.242  -0.900  0.00  0.00    +0.021 A 
ATOM      4  C   UNL     1      -1.181  -0.522  -0.809  0.00  0.00    +0.018 A 
ATOM      5  C   UNL     1      -2.375   0.091  -0.556  0.00  0.00    -0.015 A 
ATOM      6  C   UNL     1      -2.438   1.468  -0.389  0.00  0.00    +0.010 A 
ATOM      7  C   UNL     1      -1.299   2.239  -0.470  0.00  0.00    +0.047 A 
ATOM      8  C   UNL     1      -0.073   1.638  -0.732  0.00  0.00    +0.136 A 
ATOM      9  O   UNL     1       1.179   2.117  -0.868  0.00  0.00    -0.450 OA
ENDROOT
BRANCH   5  10
ATOM     10  C   UNL     1      -3.634  -0.733  -0.458  0.00  0.00    +0.088 C 
ATOM     11  C   UNL     1      -4.279  -0.848  -1.841  0.00  0.00    +0.021 C 
ATOM     12  C   UNL     1      -5.588  -1.632  -1.724  0.00  0.00    -0.076 C 
ATOM     13  C   UNL     1      -5.914  -0.863   0.551  0.00  0.00    -0.076 C 
ATOM     14  C   UNL     1      -4.615  -0.054   0.502  0.00  0.00    +0.021 C 
ATOM     15  N   UNL     1      -6.498  -0.914  -0.806  0.00  0.00    +0.380 N 
ATOM     16  H   UNL     1      -6.629   0.045  -1.149  0.00  0.00    -0.082 HD
BRANCH  10  17
ATOM     17  O   UNL     1      -3.313  -2.037   0.030  0.00  0.00    -0.384 OA
ATOM     18  H   UNL     1      -2.696  -2.526  -0.531  0.00  0.00    +0.211 HD
ENDBRANCH  10  17
BRANCH  15  19
ATOM     19  C   UNL     1      -7.811  -1.592  -0.765  0.00  0.00    -0.075 C 
BRANCH  19  20
ATOM     20  C   UNL     1      -8.850  -0.612  -0.217  0.00  0.00    -0.024 C 
ATOM     21  C   UNL     1     -10.204  -1.319  -0.080  0.00  0.00    +0.006 C 
ATOM     22  C   UNL     1     -11.175  -0.373   0.628  0.00  0.00    +0.027 C 
ATOM     23  C   UNL     1     -11.146   0.982  -0.016  0.00  0.00    -0.031 C 
ATOM     24  C   UNL     1     -10.201   1.391  -0.801  0.00  0.00    -0.031 C 
ATOM     25  C   UNL     1      -9.009   0.564  -1.184  0.00  0.00    +0.028 C 
ENDBRANCH  19  20
ENDBRANCH  15  19
ENDBRANCH   5  10
BRANCH   1  27
ATOM     26  N   UNL     1       4.046   2.517  -1.261  0.00  0.00    -0.305 N 
ATOM     27  C   UNL     1       3.497   1.287  -1.317  0.00  0.00    +0.280 C 
ATOM     28  O   UNL     1       4.199   0.317  -1.535  0.00  0.00    -0.267 OA
ATOM     29  H   UNL     1       3.486   3.290  -1.087  0.00  0.00    +0.149 HD
BRANCH  26  30
ATOM     30  C   UNL     1       5.487   2.686  -1.462  0.00  0.00    +0.140 C 
BRANCH  30  36
ATOM     31  C   UNL     1       5.830   4.947  -2.475  0.00  0.00    +0.009 A 
ATOM     32  C   UNL     1       6.150   6.289  -2.376  0.00  0.00    +0.050 A 
ATOM     33  C   UNL     1       6.495   6.831  -1.149  0.00  0.00    +0.166 A 
ATOM     34  C   UNL     1       6.512   6.022  -0.015  0.00  0.00    +0.167 A 
ATOM     35  C   UNL     1       6.184   4.680  -0.120  0.00  0.00    +0.054 A 
ATOM     36  C   UNL     1       5.842   4.146  -1.349  0.00  0.00    -0.027 A 
ATOM     37  O   UNL     1       6.878   6.782   1.058  0.00  0.00    -0.453 OA
ATOM     38  C   UNL     1       7.480   7.966   0.502  0.00  0.00    +0.466 C 
ATOM     39  O   UNL     1       6.851   8.098  -0.786  0.00  0.00    -0.453 OA
ENDBRANCH  30  36
ENDBRANCH  26  30
ENDBRANCH   1  27
TORSDOF 7
