REMARK  Name = ZINC13352918
REMARK  7 active torsions:
REMARK  status: ('A' for Active; 'I' for Inactive)
REMARK    1  A    between atoms: C_4  and  S_7
REMARK    2  A    between atoms: S_7  and  N_10
REMARK    3  A    between atoms: N_10  and  C_11
REMARK    4  A    between atoms: C_14  and  C_17
REMARK    5  A    between atoms: C_22  and  C_25
REMARK    6  A    between atoms: N_27  and  C_28
REMARK    7  A    between atoms: C_28  and  C_29
REMARK                            x       y       z     vdW  Elec       q    Type
REMARK                         _______ _______ _______ _____ _____    ______ ____
ROOT
ATOM      1  C   UNL     1       0.801   5.679  -2.010  0.00  0.00    +0.247 C 
ATOM      2  O   UNL     1      -0.028   6.512  -2.323  0.00  0.00    -0.270 OA
ATOM      3  N   UNL     1       0.440   4.387  -1.873  0.00  0.00    -0.297 N 
ATOM      4  C   UNL     1       1.447   3.354  -1.595  0.00  0.00    +0.109 C 
ATOM      5  C   UNL     1       1.317   2.244  -2.643  0.00  0.00    +0.032 C 
ATOM      6  C   UNL     1      -0.124   1.729  -2.659  0.00  0.00    +0.078 C 
ATOM      7  C   UNL     1      -1.070   2.869  -3.043  0.00  0.00    +0.032 C 
ATOM      8  C   UNL     1      -0.968   3.986  -1.999  0.00  0.00    +0.109 C 
ENDROOT
BRANCH   1  12
ATOM      9  C   UNL     1       4.831   6.839  -1.346  0.00  0.00    +0.048 A 
ATOM     10  C   UNL     1       4.089   7.450  -2.353  0.00  0.00    +0.025 A 
ATOM     11  C   UNL     1       2.783   7.076  -2.571  0.00  0.00    +0.015 A 
ATOM     12  C   UNL     1       2.201   6.082  -1.779  0.00  0.00    +0.037 A 
ATOM     13  C   UNL     1       2.946   5.475  -0.765  0.00  0.00    +0.015 A 
ATOM     14  C   UNL     1       4.254   5.849  -0.555  0.00  0.00    +0.025 A 
BRANCH   9  15
ATOM     15  N   UNL     1       6.151   7.220  -1.128  0.00  0.00    -0.216 N 
ATOM     16  H   UNL     1       6.758   7.314  -1.878  0.00  0.00    +0.174 HD
BRANCH  15  17
ATOM     17  S   UNL     1       6.685   7.512   0.412  0.00  0.00    +0.072 S 
ATOM     18  O   UNL     1       6.348   6.367   1.183  0.00  0.00    -0.150 OA
ATOM     19  O   UNL     1       8.019   7.986   0.296  0.00  0.00    -0.150 OA
BRANCH  17  23
ATOM     20  C   UNL     1       4.231  10.944   2.052  0.00  0.00    +0.000 A 
ATOM     21  C   UNL     1       3.861   9.640   2.320  0.00  0.00    +0.002 A 
ATOM     22  C   UNL     1       4.610   8.591   1.819  0.00  0.00    +0.029 A 
ATOM     23  C   UNL     1       5.730   8.848   1.050  0.00  0.00    +0.108 A 
ATOM     24  C   UNL     1       6.103  10.152   0.786  0.00  0.00    +0.029 A 
ATOM     25  C   UNL     1       5.351  11.200   1.282  0.00  0.00    +0.002 A 
ENDBRANCH  17  23
ENDBRANCH  15  17
ENDBRANCH   9  15
ENDBRANCH   1  12
BRANCH   6  26
ATOM     26  C   UNL     1      -0.247   0.614  -3.665  0.00  0.00    +0.216 C 
ATOM     27  O   UNL     1       0.722   0.265  -4.306  0.00  0.00    -0.276 OA
ATOM     28  N   UNL     1      -1.434   0.004  -3.852  0.00  0.00    -0.315 N 
ATOM     29  H   UNL     1      -2.209   0.283  -3.340  0.00  0.00    +0.149 HD
BRANCH  28  30
ATOM     30  C   UNL     1      -1.554  -1.081  -4.830  0.00  0.00    +0.107 C 
BRANCH  30  31
ATOM     31  C   UNL     1      -2.995  -1.596  -4.846  0.00  0.00    +0.006 C 
ATOM     32  C   UNL     1      -3.324  -2.232  -3.494  0.00  0.00    +0.005 C 
ATOM     33  C   UNL     1      -4.765  -2.747  -3.510  0.00  0.00    +0.000 C 
ATOM     34  C   UNL     1      -4.920  -3.792  -4.617  0.00  0.00    +0.000 C 
ATOM     35  C   UNL     1      -4.591  -3.156  -5.969  0.00  0.00    +0.000 C 
ATOM     36  C   UNL     1      -3.150  -2.641  -5.953  0.00  0.00    +0.005 C 
ENDBRANCH  30  31
ENDBRANCH  28  30
ENDBRANCH   6  26
TORSDOF 7
