REMARK  Name = ZINC09236266
REMARK  8 active torsions:
REMARK  status: ('A' for Active; 'I' for Inactive)
REMARK    1  A    between atoms: C_1  and  C_2
REMARK    2  A    between atoms: C_5  and  N_8
REMARK    3  A    between atoms: C_9  and  C_11
REMARK    4  A    between atoms: C_13  and  C_28
REMARK    5  A    between atoms: C_17  and  C_22
REMARK    6  A    between atoms: C_31  and  C_34
REMARK    7  A    between atoms: C_34  and  O_36
REMARK    8  A    between atoms: O_36  and  C_37
REMARK                            x       y       z     vdW  Elec       q    Type
REMARK                         _______ _______ _______ _____ _____    ______ ____
ROOT
ATOM      1  C   UNL     1      -1.262   7.830  -0.159  0.00  0.00    +0.166 C 
ATOM      2  C   UNL     1      -2.488   8.390   0.573  0.00  0.00    +0.140 C 
ATOM      3  N   UNL     1      -2.373   9.841   0.728  0.00  0.00    -0.272 N 
ATOM      4  N   UNL     1      -2.271  10.510  -0.450  0.00  0.00    -0.221 N 
ATOM      5  C   UNL     1      -2.555  11.832  -0.691  0.00  0.00    +0.182 A 
ATOM      6  N   UNL     1      -2.300  12.056  -1.960  0.00  0.00    -0.127 NA
ATOM      7  N   UNL     1      -1.883  10.976  -2.524  0.00  0.00    -0.121 NA
ATOM      8  C   UNL     1      -1.853  10.006  -1.650  0.00  0.00    +0.210 A 
ATOM      9  S   UNL     1      -1.379   8.324  -1.905  0.00  0.00    -0.069 S 
ATOM     10  H   UNL     1      -1.612  10.080   1.346  0.00  0.00    +0.167 HD
ENDROOT
BRANCH   5  11
ATOM     11  C   UNL     1      -3.056  12.816   0.292  0.00  0.00    +0.021 A 
ATOM     12  C   UNL     1      -3.583  12.384   1.510  0.00  0.00    +0.011 A 
ATOM     13  C   UNL     1      -4.044  13.309   2.425  0.00  0.00    +0.001 A 
ATOM     14  C   UNL     1      -3.994  14.660   2.133  0.00  0.00    +0.000 A 
ATOM     15  C   UNL     1      -3.477  15.094   0.925  0.00  0.00    +0.001 A 
ATOM     16  C   UNL     1      -3.008  14.181   0.004  0.00  0.00    +0.011 A 
ENDBRANCH   5  11
BRANCH   2  17
ATOM     17  C   UNL     1      -2.591   7.751   1.934  0.00  0.00    -0.024 A 
ATOM     18  C   UNL     1      -1.796   8.206   2.971  0.00  0.00    +0.006 A 
ATOM     19  C   UNL     1      -1.890   7.629   4.220  0.00  0.00    +0.015 A 
ATOM     20  C   UNL     1      -2.781   6.576   4.434  0.00  0.00    +0.059 A 
ATOM     21  C   UNL     1      -3.576   6.118   3.382  0.00  0.00    +0.015 A 
ATOM     22  C   UNL     1      -3.476   6.707   2.139  0.00  0.00    +0.006 A 
BRANCH  20  23
ATOM     23  C   UNL     1      -2.882   5.949   5.768  0.00  0.00    +0.339 C 
ATOM     24  O   UNL     1      -3.659   5.033   5.951  0.00  0.00    -0.245 OA
BRANCH  23  25
ATOM     25  O   UNL     1      -2.114   6.394   6.781  0.00  0.00    -0.464 OA
ATOM     26  C   UNL     1      -2.267   5.731   8.064  0.00  0.00    +0.280 C 
ENDBRANCH  23  25
ENDBRANCH  20  23
ENDBRANCH   2  17
BRANCH   1  28
ATOM     27  N   UNL     1      -0.075   5.668   0.033  0.00  0.00    -0.285 N 
ATOM     28  C   UNL     1      -1.248   6.327  -0.054  0.00  0.00    +0.233 C 
ATOM     29  O   UNL     1      -2.292   5.710  -0.049  0.00  0.00    -0.274 OA
ATOM     30  H   UNL     1       0.756   6.164   0.106  0.00  0.00    +0.155 HD
BRANCH  27  35
ATOM     31  C   UNL     1       0.005  -0.004  -0.025  0.00  0.00    +0.044 C 
ATOM     32  C   UNL     1      -0.016   1.503  -0.009  0.00  0.00    -0.050 A 
ATOM     33  C   UNL     1       0.916   2.199   0.738  0.00  0.00    +0.005 A 
ATOM     34  C   UNL     1       0.903   3.579   0.750  0.00  0.00    +0.023 A 
ATOM     35  C   UNL     1      -0.055   4.269   0.019  0.00  0.00    +0.033 A 
ATOM     36  C   UNL     1      -0.994   3.568  -0.726  0.00  0.00    +0.023 A 
ATOM     37  C   UNL     1      -0.972   2.187  -0.738  0.00  0.00    +0.005 A 
ENDBRANCH  27  35
ENDBRANCH   1  28
TORSDOF 6
