REMARK  Name = ZINC09284107
REMARK  8 active torsions:
REMARK  status: ('A' for Active; 'I' for Inactive)
REMARK    1  A    between atoms: C_1  and  C_2
REMARK    2  A    between atoms: C_7  and  C_9
REMARK    3  A    between atoms: C_7  and  C_10
REMARK    4  A    between atoms: N_13  and  C_17
REMARK    5  A    between atoms: C_17  and  C_18
REMARK    6  A    between atoms: N_20  and  C_21
REMARK    7  A    between atoms: C_28  and  S_30
REMARK    8  A    between atoms: S_30  and  C_31
REMARK                            x       y       z     vdW  Elec       q    Type
REMARK                         _______ _______ _______ _____ _____    ______ ____
ROOT
ATOM      1  C   UNL     1      -0.672   1.282   0.634  0.00  0.00    +0.007 C 
ATOM      2  C   UNL     1      -0.615  -0.245   0.531  0.00  0.00    -0.011 C 
ATOM      3  C   UNL     1      -2.031  -0.792   0.341  0.00  0.00    +0.038 C 
ATOM      4  C   UNL     1      -1.980  -2.306   0.188  0.00  0.00    +0.113 C 
ATOM      5  C   UNL     1      -1.251  -2.989   1.329  0.00  0.00    +0.041 C 
ATOM      6  C   UNL     1       0.053  -2.338   1.755  0.00  0.00    -0.032 C 
ATOM      7  C   UNL     1      -0.044  -0.819   1.826  0.00  0.00    +0.009 C 
ATOM      8  C   UNL     1       0.404  -2.853   3.168  0.00  0.00    +0.011 C 
ATOM      9  C   UNL     1       1.195  -2.749   0.822  0.00  0.00    +0.011 C 
ATOM     10  C   UNL     1      -1.422  -2.693  -1.159  0.00  0.00    +0.247 C 
ATOM     11  O   UNL     1      -0.371  -2.354  -1.661  0.00  0.00    -0.273 OA
ATOM     12  N   UNL     1      -2.353  -3.490  -1.727  0.00  0.00    -0.215 N 
ATOM     13  C   UNL     1      -3.464  -3.551  -0.986  0.00  0.00    +0.310 C 
ATOM     14  O   UNL     1      -4.449  -4.193  -1.295  0.00  0.00    -0.252 OA
ATOM     15  N   UNL     1      -3.366  -2.824   0.141  0.00  0.00    -0.285 N 
ATOM     16  H   UNL     1      -4.057  -2.662   0.800  0.00  0.00    +0.151 HD
ENDROOT
BRANCH  12  17
ATOM     17  C   UNL     1      -2.165  -4.197  -2.996  0.00  0.00    +0.214 C 
BRANCH  17  18
ATOM     18  C   UNL     1      -1.572  -5.557  -2.730  0.00  0.00    +0.235 C 
ATOM     19  O   UNL     1      -1.330  -5.901  -1.593  0.00  0.00    -0.274 OA
ATOM     20  N   UNL     1      -1.311  -6.390  -3.757  0.00  0.00    -0.284 N 
ATOM     21  H   UNL     1      -1.575  -6.147  -4.658  0.00  0.00    +0.155 HD
BRANCH  20  22
ATOM     22  C   UNL     1      -0.659  -7.608  -3.522  0.00  0.00    +0.035 A 
ATOM     23  C   UNL     1      -0.949  -8.725  -4.302  0.00  0.00    +0.025 A 
ATOM     24  C   UNL     1      -0.323  -9.925  -4.091  0.00  0.00    +0.031 A 
ATOM     25  C   UNL     1       0.641 -10.070  -3.067  0.00  0.00    +0.080 A 
ATOM     26  C   UNL     1       0.912  -8.918  -2.294  0.00  0.00    +0.042 A 
ATOM     27  C   UNL     1       0.288  -7.715  -2.512  0.00  0.00    +0.040 A 
ATOM     28  S   UNL     1       2.142  -9.506  -1.155  0.00  0.00    -0.061 S 
ATOM     29  C   UNL     1       2.219 -11.187  -1.754  0.00  0.00    +0.135 A 
ATOM     30  N   UNL     1       1.342 -11.177  -2.733  0.00  0.00    -0.233 NA
BRANCH  29  31
ATOM     31  S   UNL     1       3.217 -12.521  -1.179  0.00  0.00    -0.102 S 
ATOM     32  C   UNL     1       2.760 -13.907  -2.257  0.00  0.00    +0.092 C 
ENDBRANCH  29  31
ENDBRANCH  20  22
ENDBRANCH  17  18
ENDBRANCH  12  17
TORSDOF 4
