REMARK  Name = ZINC08829070
REMARK  10 active torsions:
REMARK  status: ('A' for Active; 'I' for Inactive)
REMARK    1  A    between atoms: C_1  and  C_2
REMARK    2  A    between atoms: C_7  and  C_8
REMARK    3  A    between atoms: C_10  and  C_13
REMARK    4  A    between atoms: C_16  and  S_19
REMARK    5  A    between atoms: S_19  and  C_20
REMARK    6  A    between atoms: C_20  and  C_21
REMARK    7  A    between atoms: N_23  and  C_24
REMARK    8  A    between atoms: C_27  and  S_30
REMARK    9  A    between atoms: S_30  and  N_33
REMARK   10  A    between atoms: N_33  and  C_34
REMARK                            x       y       z     vdW  Elec       q    Type
REMARK                         _______ _______ _______ _____ _____    ______ ____
ROOT
ATOM      1  S   UNL     1       0.108  -9.411  -4.584  0.00  0.00    -0.097 S 
ENDROOT
BRANCH   1   5
ATOM      2  C   UNL     1       0.038  -5.545  -2.314  0.00  0.00    +0.035 A 
ATOM      3  C   UNL     1       0.062  -6.747  -1.593  0.00  0.00    +0.015 A 
ATOM      4  C   UNL     1       0.083  -7.926  -2.290  0.00  0.00    +0.035 A 
ATOM      5  C   UNL     1       0.081  -7.897  -3.683  0.00  0.00    +0.097 A 
ATOM      6  N   UNL     1       0.058  -6.745  -4.340  0.00  0.00    -0.248 NA
ATOM      7  C   UNL     1       0.032  -5.590  -3.708  0.00  0.00    +0.123 A 
BRANCH   2  17
ATOM      8  C   UNL     1      -0.099   1.502   0.009  0.00  0.00    +0.044 C 
ATOM      9  C   UNL     1      -0.068  -0.004   0.001  0.00  0.00    -0.045 A 
ATOM     10  C   UNL     1      -0.059  -0.682  -1.200  0.00  0.00    +0.031 A 
ATOM     11  C   UNL     1      -0.030  -2.069  -1.210  0.00  0.00    +0.067 A 
ATOM     12  C   UNL     1      -0.008  -2.779   0.004  0.00  0.00    +0.090 A 
ATOM     13  C   UNL     1      -0.016  -2.075   1.212  0.00  0.00    +0.033 A 
ATOM     14  C   UNL     1      -0.041  -0.699   1.202  0.00  0.00    -0.045 A 
ATOM     15  C   UNL     1      -0.044   0.059   2.504  0.00  0.00    +0.044 C 
ATOM     16  N   UNL     1       0.018  -4.099  -0.304  0.00  0.00    -0.228 NA
ATOM     17  C   UNL     1       0.014  -4.248  -1.606  0.00  0.00    +0.141 A 
ATOM     18  N   UNL     1      -0.015  -3.020  -2.212  0.00  0.00    -0.338 N 
ATOM     19  H   UNL     1      -0.024  -2.850  -3.167  0.00  0.00    +0.167 HD
ENDBRANCH   2  17
ENDBRANCH   1   5
BRANCH   1  20
ATOM     20  C   UNL     1       0.096  -8.888  -6.321  0.00  0.00    +0.171 C 
BRANCH  20  21
ATOM     21  C   UNL     1       0.118 -10.104  -7.211  0.00  0.00    +0.227 C 
ATOM     22  O   UNL     1       0.140 -11.213  -6.722  0.00  0.00    -0.275 OA
ATOM     23  N   UNL     1       0.113  -9.958  -8.551  0.00  0.00    -0.285 N 
ATOM     24  H   UNL     1       0.028  -9.074  -8.943  0.00  0.00    +0.155 HD
BRANCH  23  25
ATOM     25  C   UNL     1       0.231 -11.081  -9.378  0.00  0.00    +0.034 A 
ATOM     26  C   UNL     1       0.930 -10.993 -10.575  0.00  0.00    +0.025 A 
ATOM     27  C   UNL     1       1.045 -12.104 -11.388  0.00  0.00    +0.030 A 
ATOM     28  C   UNL     1       0.464 -13.301 -11.012  0.00  0.00    +0.105 A 
ATOM     29  C   UNL     1      -0.233 -13.391  -9.822  0.00  0.00    +0.030 A 
ATOM     30  C   UNL     1      -0.346 -12.286  -9.001  0.00  0.00    +0.025 A 
BRANCH  28  31
ATOM     31  S   UNL     1       0.613 -14.715 -12.053  0.00  0.00    +0.059 S 
ATOM     32  O   UNL     1      -0.481 -15.567 -11.739  0.00  0.00    -0.153 OA
ATOM     33  O   UNL     1       0.847 -14.229 -13.368  0.00  0.00    -0.153 OA
BRANCH  31  34
ATOM     34  N   UNL     1       1.986 -15.519 -11.594  0.00  0.00    -0.187 NA
ATOM     35  H   UNL     1       2.734 -15.590 -12.207  0.00  0.00    +0.148 HD
BRANCH  34  36
ATOM     36  C   UNL     1       2.071 -16.122 -10.262  0.00  0.00    +0.077 C 
ATOM     37  C   UNL     1       3.440 -16.138  -9.579  0.00  0.00    +0.022 C 
ATOM     38  C   UNL     1       2.844 -17.435 -10.129  0.00  0.00    +0.022 C 
ENDBRANCH  34  36
ENDBRANCH  31  34
ENDBRANCH  28  31
ENDBRANCH  23  25
ENDBRANCH  20  21
ENDBRANCH   1  20
TORSDOF 8
