REMARK  Name = ZINC40826839
REMARK  10 active torsions:
REMARK  status: ('A' for Active; 'I' for Inactive)
REMARK    1  A    between atoms: C_1  and  C_2
REMARK    2  A    between atoms: C_4  and  C_37
REMARK    3  A    between atoms: C_10  and  C_11
REMARK    4  A    between atoms: C_11  and  C_12
REMARK    5  A    between atoms: N_14  and  N_15
REMARK    6  A    between atoms: C_22  and  C_36
REMARK    7  A    between atoms: C_23  and  C_25
REMARK    8  A    between atoms: N_27  and  C_28
REMARK    9  A    between atoms: N_27  and  C_29
REMARK   10  A    between atoms: N_32  and  C_35
REMARK                            x       y       z     vdW  Elec       q    Type
REMARK                         _______ _______ _______ _____ _____    ______ ____
ROOT
ATOM      1  N   UNL     1       3.433  -7.454  -2.884  0.00  0.00    -0.184 NA
ATOM      2  C   UNL     1       3.426  -8.328  -3.843  0.00  0.00    +0.070 C 
ATOM      3  C   UNL     1       2.146  -8.765  -4.540  0.00  0.00    +0.058 C 
ATOM      4  C   UNL     1       2.200 -10.284  -4.735  0.00  0.00    +0.014 C 
ATOM      5  C   UNL     1       3.341 -10.666  -5.681  0.00  0.00    +0.075 C 
ATOM      6  C   UNL     1       4.627 -10.051  -5.190  0.00  0.00    +0.115 A 
ATOM      7  C   UNL     1       4.663  -8.967  -4.343  0.00  0.00    +0.042 A 
ATOM      8  C   UNL     1       6.009  -8.665  -4.101  0.00  0.00    +0.009 A 
ATOM      9  C   UNL     1       6.739  -9.572  -4.817  0.00  0.00    +0.193 A 
ATOM     10  O   UNL     1       5.882 -10.402  -5.461  0.00  0.00    -0.454 OA
ATOM     11  C   UNL     1       6.545  -7.560  -3.228  0.00  0.00    +0.048 C 
ENDROOT
BRANCH   1  14
ATOM     12  C   UNL     1       2.237  -5.973  -1.454  0.00  0.00    +0.237 C 
ATOM     13  O   UNL     1       3.285  -5.652  -0.932  0.00  0.00    -0.274 OA
ATOM     14  N   UNL     1       2.230  -6.881  -2.450  0.00  0.00    -0.206 N 
ATOM     15  H   UNL     1       1.393  -7.137  -2.867  0.00  0.00    +0.177 HD
BRANCH  12  16
ATOM     16  C   UNL     1       0.944  -5.356  -0.987  0.00  0.00    +0.136 C 
BRANCH  16  26
ATOM     17  C   UNL     1       1.879  -4.546   5.790  0.00  0.00    +0.044 C 
ATOM     18  C   UNL     1       1.693  -4.589   4.295  0.00  0.00    -0.047 A 
ATOM     19  C   UNL     1       1.434  -5.800   3.670  0.00  0.00    +0.007 A 
ATOM     20  C   UNL     1       1.263  -5.857   2.314  0.00  0.00    -0.039 A 
ATOM     21  C   UNL     1       1.349  -4.690   1.557  0.00  0.00    +0.027 A 
ATOM     22  C   UNL     1       1.612  -3.460   2.184  0.00  0.00    +0.136 A 
ATOM     23  C   UNL     1       1.777  -3.424   3.563  0.00  0.00    +0.050 A 
ATOM     24  O   UNL     1       1.640  -2.517   1.221  0.00  0.00    -0.463 OA
ATOM     25  C   UNL     1       1.412  -3.060   0.012  0.00  0.00    +0.200 A 
ATOM     26  C   UNL     1       1.225  -4.382   0.127  0.00  0.00    +0.007 A 
ATOM     27  C   UNL     1       0.982  -7.176   1.642  0.00  0.00    +0.044 C 
ENDBRANCH  16  26
ENDBRANCH  12  16
ENDBRANCH   1  14
BRANCH   9  28
ATOM     28  C   UNL     1       8.203  -9.643  -4.871  0.00  0.00    +0.282 C 
ATOM     29  O   UNL     1       8.874  -8.781  -4.334  0.00  0.00    -0.267 OA
ATOM     30  N   UNL     1       8.806 -10.663  -5.513  0.00  0.00    -0.295 N 
ATOM     31  C   UNL     1       8.003 -11.760  -6.060  0.00  0.00    +0.132 C 
BRANCH  30  32
ATOM     32  C   UNL     1      10.263 -10.675  -5.665  0.00  0.00    +0.073 C 
ATOM     33  C   UNL     1      10.837 -11.929  -5.000  0.00  0.00    +0.004 C 
ATOM     34  C   UNL     1      12.349 -11.976  -5.231  0.00  0.00    -0.077 C 
ATOM     35  N   UNL     1      12.626 -12.014  -6.672  0.00  0.00    +0.378 N 
ATOM     36  C   UNL     1      12.142 -10.781  -7.305  0.00  0.00    -0.077 C 
ATOM     37  C   UNL     1      10.622 -10.689  -7.154  0.00  0.00    +0.004 C 
ATOM     38  C   UNL     1      14.074 -12.137  -6.887  0.00  0.00    -0.096 C 
ATOM     39  H   UNL     1      12.159 -12.808  -7.083  0.00  0.00    -0.082 HD
ENDBRANCH  30  32
ENDBRANCH   9  28
TORSDOF 5
