REMARK  Name = ZINC24639400
REMARK  7 active torsions:
REMARK  status: ('A' for Active; 'I' for Inactive)
REMARK    1  A    between atoms: C_4  and  N_17
REMARK    2  A    between atoms: C_5  and  N_7
REMARK    3  A    between atoms: C_8  and  C_10
REMARK    4  A    between atoms: C_18  and  C_20
REMARK    5  A    between atoms: C_24  and  S_26
REMARK    6  A    between atoms: S_26  and  N_29
REMARK    7  A    between atoms: N_29  and  C_30
REMARK                            x       y       z     vdW  Elec       q    Type
REMARK                         _______ _______ _______ _____ _____    ______ ____
ROOT
ATOM      1  N   UNL     1      -0.053   1.044   0.211  0.00  0.00    -0.280 N 
ATOM      2  C   UNL     1       1.112   1.721   0.231  0.00  0.00    +0.248 C 
ATOM      3  O   UNL     1       1.113   2.934   0.150  0.00  0.00    -0.270 OA
ATOM      4  H   UNL     1      -0.051  -0.055   0.196  0.00  0.00    +0.155 HD
ENDROOT
BRANCH   1   8
ATOM      5  C   UNL     1      -3.669   3.124   0.209  0.00  0.00    +0.002 A 
ATOM      6  C   UNL     1      -2.531   3.713   0.730  0.00  0.00    +0.002 A 
ATOM      7  C   UNL     1      -1.332   3.026   0.732  0.00  0.00    +0.025 A 
ATOM      8  C   UNL     1      -1.267   1.742   0.211  0.00  0.00    +0.055 A 
ATOM      9  C   UNL     1      -2.414   1.150  -0.319  0.00  0.00    +0.055 A 
ATOM     10  C   UNL     1      -3.614   1.846  -0.313  0.00  0.00    +0.025 A 
BRANCH   9  11
ATOM     11  N   UNL     1      -2.354  -0.143  -0.852  0.00  0.00    -0.280 N 
ATOM     12  C   UNL     1      -3.465  -0.905  -0.896  0.00  0.00    +0.248 C 
ATOM     13  O   UNL     1      -4.494  -0.511  -0.382  0.00  0.00    -0.270 OA
ATOM     14  H   UNL     1      -1.401  -0.537  -1.234  0.00  0.00    +0.155 HD
BRANCH  12  15
ATOM     15  C   UNL     1      -3.432  -2.221  -1.568  0.00  0.00    +0.037 A 
ATOM     16  C   UNL     1      -2.253  -2.674  -2.164  0.00  0.00    +0.014 A 
ATOM     17  C   UNL     1      -2.228  -3.904  -2.787  0.00  0.00    +0.021 A 
ATOM     18  C   UNL     1      -3.371  -4.685  -2.830  0.00  0.00    +0.041 A 
ATOM     19  C   UNL     1      -4.544  -4.239  -2.245  0.00  0.00    +0.021 A 
ATOM     20  C   UNL     1      -4.581  -3.013  -1.615  0.00  0.00    +0.014 A 
ATOM     21 CL   UNL     1      -3.332  -6.231  -3.620  0.00  0.00    -0.084 Cl
ENDBRANCH  12  15
ENDBRANCH   9  11
ENDBRANCH   1   8
BRANCH   2  22
ATOM     22  C   UNL     1       2.390   0.987   0.351  0.00  0.00    +0.039 A 
ATOM     23  C   UNL     1       2.393  -0.405   0.450  0.00  0.00    +0.013 A 
ATOM     24  C   UNL     1       3.589  -1.084   0.557  0.00  0.00    +0.003 A 
ATOM     25  C   UNL     1       4.784  -0.387   0.577  0.00  0.00    +0.028 A 
ATOM     26  C   UNL     1       4.788   0.994   0.484  0.00  0.00    +0.106 A 
ATOM     27  C   UNL     1       3.599   1.684   0.371  0.00  0.00    +0.041 A 
BRANCH  26  28
ATOM     28  S   UNL     1       6.316   1.872   0.510  0.00  0.00    +0.059 S 
ATOM     29  O   UNL     1       7.315   0.961   0.073  0.00  0.00    -0.153 OA
ATOM     30  O   UNL     1       6.081   3.114  -0.140  0.00  0.00    -0.153 OA
BRANCH  28  31
ATOM     31  N   UNL     1       6.652   2.222   2.093  0.00  0.00    -0.187 NA
ATOM     32  H   UNL     1       6.513   3.250   2.457  0.00  0.00    +0.148 HD
BRANCH  31  33
ATOM     33  C   UNL     1       6.918   1.138   3.042  0.00  0.00    +0.077 C 
ATOM     34  C   UNL     1       6.461   1.337   4.488  0.00  0.00    +0.022 C 
ATOM     35  C   UNL     1       7.950   1.399   4.141  0.00  0.00    +0.022 C 
ENDBRANCH  31  33
ENDBRANCH  28  31
ENDBRANCH  26  28
ENDBRANCH   2  22
TORSDOF 7
