REMARK  Name = ZINC63637695
REMARK  2 active torsions:
REMARK  status: ('A' for Active; 'I' for Inactive)
REMARK    1  A    between atoms: C_3  and  C_6
REMARK    2  A    between atoms: C_11  and  C_23
REMARK                            x       y       z     vdW  Elec       q    Type
REMARK                         _______ _______ _______ _____ _____    ______ ____
ROOT
ATOM      1  C   UNL     1       3.599   0.625  -0.029  0.00  0.00    +0.068 C 
ATOM      2  C   UNL     1       4.110  -0.126   1.202  0.00  0.00    +0.062 C 
ATOM      3  C   UNL     1       5.618  -0.194   1.165  0.00  0.00    +0.017 C 
ATOM      4  C   UNL     1       6.282  -0.236  -0.006  0.00  0.00    +0.021 C 
ATOM      5  C   UNL     1       7.790  -0.293  -0.075  0.00  0.00    +0.073 C 
ATOM      6  C   UNL     1       8.364  -0.823   1.241  0.00  0.00    +0.148 C 
ATOM      7  C   UNL     1       7.644  -0.118   2.366  0.00  0.00    +0.106 C 
ATOM      8  N   UNL     1       8.271   0.564   3.273  0.00  0.00    -0.151 NA
ATOM      9  C   UNL     1       9.603   0.716   3.268  0.00  0.00    +0.331 C 
ATOM     10  O   UNL     1      10.132   1.347   4.164  0.00  0.00    -0.250 OA
ATOM     11  N   UNL     1      10.368   0.188   2.300  0.00  0.00    -0.238 N 
ATOM     12  C   UNL     1       9.839  -0.552   1.306  0.00  0.00    +0.231 C 
ATOM     13  O   UNL     1      10.563  -1.006   0.445  0.00  0.00    -0.275 OA
ATOM     14  N   UNL     1       6.280  -0.223   2.373  0.00  0.00    -0.307 N 
ATOM     15  C   UNL     1       5.585  -0.219  -1.232  0.00  0.00    +0.162 C 
ATOM     16  O   UNL     1       6.209  -0.291  -2.272  0.00  0.00    -0.292 OA
ATOM     17  C   UNL     1       4.086  -0.114  -1.280  0.00  0.00    +0.091 C 
ATOM     18  H   UNL     1      11.326   0.340   2.316  0.00  0.00    +0.159 HD
ATOM     19  H   UNL     1       5.792  -0.316   3.206  0.00  0.00    +0.153 HD
ENDROOT
BRANCH   5  20
ATOM     20  C   UNL     1       8.331   1.090  -0.329  0.00  0.00    -0.037 A 
ATOM     21  C   UNL     1       8.079   2.107   0.573  0.00  0.00    +0.007 A 
ATOM     22  C   UNL     1       8.574   3.376   0.342  0.00  0.00    +0.040 A 
ATOM     23  C   UNL     1       9.323   3.630  -0.794  0.00  0.00    +0.137 A 
ATOM     24  C   UNL     1       9.576   2.611  -1.698  0.00  0.00    +0.053 A 
ATOM     25  C   UNL     1       9.084   1.341  -1.461  0.00  0.00    +0.022 A 
ATOM     26 BR   UNL     1      10.600   2.955  -3.250  0.00  0.00    -0.047 Br
ATOM     27  F   UNL     1       9.808   4.871  -1.022  0.00  0.00    -0.204 F 
ENDBRANCH   5  20
BRANCH   1  30
ATOM     28  C   UNL     1      -0.016   1.341   0.009  0.00  0.00    +0.041 A 
ATOM     29  C   UNL     1       1.331   1.769  -0.001  0.00  0.00    +0.045 A 
ATOM     30  C   UNL     1       2.092   0.660  -0.014  0.00  0.00    +0.109 A 
ATOM     31  O   UNL     1       1.282  -0.411  -0.012  0.00  0.00    -0.468 OA
ATOM     32  C   UNL     1       0.002  -0.004   0.002  0.00  0.00    +0.195 A 
ENDBRANCH   1  30
TORSDOF 2
