REMARK  Name = ZINC36737146
REMARK  5 active torsions:
REMARK  status: ('A' for Active; 'I' for Inactive)
REMARK    1  A    between atoms: C_1  and  C_2
REMARK    2  A    between atoms: C_5  and  C_9
REMARK    3  A    between atoms: C_7  and  O_8
REMARK    4  A    between atoms: N_11  and  C_12
REMARK    5  A    between atoms: C_17  and  N_18
REMARK                            x       y       z     vdW  Elec       q    Type
REMARK                         _______ _______ _______ _____ _____    ______ ____
ROOT
ATOM      1  C   UNL     1       0.062  -4.254  -0.028  0.00  0.00    +0.248 C 
ATOM      2  O   UNL     1       0.069  -4.871   1.020  0.00  0.00    -0.270 OA
ATOM      3  N   UNL     1       0.062  -4.918  -1.200  0.00  0.00    -0.280 N 
ATOM      4  H   UNL     1      -0.024  -4.430  -2.034  0.00  0.00    +0.155 HD
ENDROOT
BRANCH   3   5
ATOM      5  C   UNL     1       0.187  -6.315  -1.215  0.00  0.00    +0.058 A 
ATOM      6  C   UNL     1       0.806  -6.968  -0.159  0.00  0.00    +0.074 A 
ATOM      7  C   UNL     1       0.929  -8.348  -0.173  0.00  0.00    +0.168 A 
ATOM      8  C   UNL     1       0.431  -9.081  -1.248  0.00  0.00    +0.168 A 
ATOM      9  C   UNL     1      -0.188  -8.430  -2.303  0.00  0.00    +0.074 A 
ATOM     10  C   UNL     1      -0.317  -7.049  -2.288  0.00  0.00    +0.050 A 
ATOM     11  O   UNL     1       0.676 -10.406  -1.023  0.00  0.00    -0.453 OA
ATOM     12  C   UNL     1       1.688 -10.442   0.000  0.00  0.00    +0.466 C 
ATOM     13  O   UNL     1       1.486  -9.214   0.725  0.00  0.00    -0.453 OA
BRANCH  10  14
ATOM     14  N   UNL     1      -0.948  -6.392  -3.352  0.00  0.00    -0.356 N 
ATOM     15  H   UNL     1      -1.035  -5.426  -3.343  0.00  0.00    +0.142 HD
ATOM     16  H   UNL     1      -1.299  -6.903  -4.098  0.00  0.00    +0.142 HD
ENDBRANCH  10  14
ENDBRANCH   3   5
BRANCH   1  21
ATOM     17  C   UNL     1       0.031   1.504   0.009  0.00  0.00    +0.047 C 
ATOM     18  C   UNL     1       0.039  -0.004   0.001  0.00  0.00    -0.009 A 
ATOM     19  C   UNL     1       0.040  -0.686  -1.202  0.00  0.00    +0.007 A 
ATOM     20  C   UNL     1       0.047  -2.066  -1.217  0.00  0.00    +0.013 A 
ATOM     21  C   UNL     1       0.055  -2.776  -0.015  0.00  0.00    +0.040 A 
ATOM     22  C   UNL     1       0.054  -2.086   1.197  0.00  0.00    +0.058 A 
ATOM     23  C   UNL     1       0.052  -0.701   1.201  0.00  0.00    +0.120 A 
BRANCH  23  24
ATOM     24  O   UNL     1       0.058  -0.025   2.380  0.00  0.00    -0.506 OA
ATOM     25  H   UNL     1      -0.824   0.166   2.728  0.00  0.00    +0.292 HD
ENDBRANCH  23  24
ENDBRANCH   1  21
TORSDOF 4
