REMARK  Name = ZINC40475512
REMARK  7 active torsions:
REMARK  status: ('A' for Active; 'I' for Inactive)
REMARK    1  A    between atoms: C_1  and  C_2
REMARK    2  A    between atoms: C_2  and  O_3
REMARK    3  A    between atoms: O_3  and  C_4
REMARK    4  A    between atoms: C_4  and  C_6
REMARK    5  A    between atoms: C_9  and  N_12
REMARK    6  A    between atoms: C_17  and  C_30
REMARK    7  A    between atoms: C_35  and  O_36
REMARK                            x       y       z     vdW  Elec       q    Type
REMARK                         _______ _______ _______ _____ _____    ______ ____
ROOT
ATOM      1  N   UNL     1      -7.277  -5.218  -2.799  0.00  0.00    -0.209 N 
ATOM      2  C   UNL     1      -7.386  -6.254  -1.933  0.00  0.00    +0.232 C 
ATOM      3  O   UNL     1      -6.805  -7.316  -1.989  0.00  0.00    -0.274 OA
ATOM      4  C   UNL     1      -8.369  -5.817  -0.893  0.00  0.00    +0.110 C 
ATOM      5  C   UNL     1      -9.040  -6.839  -0.055  0.00  0.00    +0.075 C 
ATOM      6  C   UNL     1     -10.277  -7.424  -0.628  0.00  0.00    +0.032 A 
ATOM      7  C   UNL     1     -10.995  -7.009  -1.707  0.00  0.00    +0.110 A 
ATOM      8  N   UNL     1     -12.098  -7.721  -1.952  0.00  0.00    -0.225 NA
ATOM      9  C   UNL     1     -12.432  -8.761  -1.219  0.00  0.00    +0.147 A 
ATOM     10  S   UNL     1     -13.831  -9.818  -1.391  0.00  0.00    -0.023 SA
ATOM     11  S   UNL     1     -11.197  -8.838  -0.076  0.00  0.00    -0.063 S 
ATOM     12  S   UNL     1     -10.455  -5.637  -2.692  0.00  0.00    -0.091 S 
ATOM     13  C   UNL     1      -9.248  -4.803  -1.635  0.00  0.00    +0.152 C 
ATOM     14  C   UNL     1      -8.186  -4.243  -2.599  0.00  0.00    +0.240 C 
ATOM     15  O   UNL     1      -8.171  -3.134  -3.089  0.00  0.00    -0.274 OA
ENDROOT
BRANCH   1  19
ATOM     16  C   UNL     1      -4.385  -5.053  -5.797  0.00  0.00    +0.059 A 
ATOM     17  C   UNL     1      -5.298  -4.006  -5.646  0.00  0.00    +0.017 A 
ATOM     18  C   UNL     1      -6.252  -4.064  -4.655  0.00  0.00    +0.025 A 
ATOM     19  C   UNL     1      -6.308  -5.163  -3.805  0.00  0.00    +0.044 A 
ATOM     20  C   UNL     1      -5.401  -6.207  -3.952  0.00  0.00    +0.025 A 
ATOM     21  C   UNL     1      -4.448  -6.158  -4.944  0.00  0.00    +0.017 A 
BRANCH  16  22
ATOM     22  C   UNL     1      -3.361  -4.994  -6.858  0.00  0.00    +0.339 C 
ATOM     23  O   UNL     1      -2.571  -5.908  -6.991  0.00  0.00    -0.245 OA
BRANCH  22  24
ATOM     24  O   UNL     1      -3.303  -3.928  -7.679  0.00  0.00    -0.461 OA
BRANCH  24  26
ATOM     25  C   UNL     1      -2.376  -2.655  -9.512  0.00  0.00    +0.048 C 
ATOM     26  C   UNL     1      -2.286  -3.938  -8.684  0.00  0.00    +0.229 C 
ENDBRANCH  24  26
ENDBRANCH  22  24
ENDBRANCH  16  22
ENDBRANCH   1  19
BRANCH   5  27
ATOM     27  C   UNL     1      -8.064  -7.960   0.195  0.00  0.00    +0.003 A 
ATOM     28  C   UNL     1      -7.981  -9.016  -0.692  0.00  0.00    +0.008 A 
ATOM     29  C   UNL     1      -7.087 -10.044  -0.463  0.00  0.00    +0.001 A 
ATOM     30  C   UNL     1      -6.272 -10.019   0.654  0.00  0.00    +0.004 A 
ATOM     31  C   UNL     1      -6.350  -8.965   1.544  0.00  0.00    +0.046 A 
ATOM     32  C   UNL     1      -7.244  -7.929   1.313  0.00  0.00    +0.121 A 
BRANCH  32  33
ATOM     33  O   UNL     1      -7.318  -6.888   2.184  0.00  0.00    -0.506 OA
ATOM     34  H   UNL     1      -7.955  -7.019   2.899  0.00  0.00    +0.292 HD
ENDBRANCH  32  33
ENDBRANCH   5  27
TORSDOF 6
