REMARK  Name = ZINC59363683
REMARK  10 active torsions:
REMARK  status: ('A' for Active; 'I' for Inactive)
REMARK    1  A    between atoms: C_1  and  C_2
REMARK    2  A    between atoms: C_2  and  C_4
REMARK    3  A    between atoms: C_2  and  N_23
REMARK    4  A    between atoms: N_6  and  C_7
REMARK    5  A    between atoms: C_7  and  C_9
REMARK    6  A    between atoms: C_7  and  C_13
REMARK    7  A    between atoms: C_9  and  C_10
REMARK    8  A    between atoms: C_10  and  C_11
REMARK    9  A    between atoms: C_10  and  C_12
REMARK   10  A    between atoms: C_24  and  C_26
REMARK                            x       y       z     vdW  Elec       q    Type
REMARK                         _______ _______ _______ _____ _____    ______ ____
ROOT
ATOM      1  C   UNL     1      -1.420  -0.296  -0.022  0.00  0.00    +0.234 C 
ATOM      2  O   UNL     1      -1.760  -1.012   0.896  0.00  0.00    -0.274 OA
ATOM      3  N   UNL     1      -2.285  -0.022  -1.019  0.00  0.00    -0.304 N 
ATOM      4  H   UNL     1      -2.041   0.609  -1.714  0.00  0.00    +0.149 HD
ENDROOT
BRANCH   1   6
ATOM      5  C   UNL     1      -0.119   1.815  -0.053  0.00  0.00    +0.038 C 
ATOM      6  C   UNL     1      -0.031   0.287  -0.049  0.00  0.00    +0.156 C 
BRANCH   6   7
ATOM      7  N   UNL     1       0.708  -0.156   1.136  0.00  0.00    -0.300 N 
ATOM      8  C   UNL     1       2.054  -0.207   1.110  0.00  0.00    +0.251 C 
ATOM      9  O   UNL     1       2.656   0.115   0.103  0.00  0.00    -0.270 OA
ATOM     10  H   UNL     1       0.228  -0.413   1.939  0.00  0.00    +0.150 HD
BRANCH   8  11
ATOM     11  C   UNL     1       2.793  -0.651   2.295  0.00  0.00    +0.075 A 
ATOM     12  C   UNL     1       4.162  -0.769   2.478  0.00  0.00    +0.022 A 
ATOM     13  C   UNL     1       4.564  -1.217   3.713  0.00  0.00    +0.024 A 
ATOM     14  C   UNL     1       3.622  -1.506   4.647  0.00  0.00    +0.056 A 
ATOM     15  S   UNL     1       2.165  -1.172   3.881  0.00  0.00    -0.077 S 
ATOM     16 BR   UNL     1       3.890  -2.134   6.411  0.00  0.00    -0.043 Br
ENDBRANCH   8  11
ENDBRANCH   6   7
ENDBRANCH   1   6
BRANCH   3  17
ATOM     17  C   UNL     1      -3.595  -0.677  -1.052  0.00  0.00    +0.139 C 
BRANCH  17  18
ATOM     18  C   UNL     1      -4.087  -0.744  -2.475  0.00  0.00    +0.129 A 
ATOM     19  N   UNL     1      -3.371  -0.361  -3.566  0.00  0.00    -0.340 N 
ATOM     20  H   UNL     1      -2.469  -0.003  -3.566  0.00  0.00    +0.167 HD
ATOM     21  C   UNL     1      -4.165  -0.576  -4.675  0.00  0.00    +0.066 A 
ATOM     22  C   UNL     1      -3.993  -0.385  -6.039  0.00  0.00    +0.028 A 
ATOM     23  C   UNL     1      -5.011  -0.712  -6.909  0.00  0.00    +0.002 A 
ATOM     24  C   UNL     1      -6.206  -1.229  -6.429  0.00  0.00    +0.002 A 
ATOM     25  C   UNL     1      -6.393  -1.424  -5.090  0.00  0.00    +0.030 A 
ATOM     26  C   UNL     1      -5.374  -1.101  -4.190  0.00  0.00    +0.089 A 
ATOM     27  N   UNL     1      -5.257  -1.182  -2.840  0.00  0.00    -0.231 NA
ENDBRANCH  17  18
BRANCH  17  28
ATOM     28  C   UNL     1      -4.588   0.124  -0.207  0.00  0.00    +0.033 C 
BRANCH  28  29
ATOM     29  C   UNL     1      -5.907  -0.644  -0.104  0.00  0.00    -0.015 C 
ATOM     30  C   UNL     1      -5.681  -1.943   0.673  0.00  0.00    +0.007 C 
ATOM     31  C   UNL     1      -6.941   0.214   0.626  0.00  0.00    +0.007 C 
ENDBRANCH  28  29
ENDBRANCH  17  28
ENDBRANCH   3  17
TORSDOF 7
