REMARK  Name = ZINC39662479
REMARK  8 active torsions:
REMARK  status: ('A' for Active; 'I' for Inactive)
REMARK    1  A    between atoms: C_1  and  O_2
REMARK    2  A    between atoms: O_2  and  C_3
REMARK    3  A    between atoms: C_6  and  C_13
REMARK    4  A    between atoms: C_8  and  C_9
REMARK    5  A    between atoms: C_17  and  C_26
REMARK    6  A    between atoms: N_28  and  C_29
REMARK    7  A    between atoms: C_29  and  C_31
REMARK    8  A    between atoms: C_29  and  C_33
REMARK                            x       y       z     vdW  Elec       q    Type
REMARK                         _______ _______ _______ _____ _____    ______ ____
ROOT
ATOM      1  C   UNL     1      -4.960  -2.621   0.032  0.00  0.00    +0.247 C 
ATOM      2  O   UNL     1      -5.013  -3.831  -0.079  0.00  0.00    -0.270 OA
ATOM      3  N   UNL     1      -6.096  -1.904   0.144  0.00  0.00    -0.296 N 
ATOM      4  C   UNL     1      -6.242  -0.430   0.160  0.00  0.00    +0.121 C 
ATOM      5  C   UNL     1      -7.518  -0.155  -0.667  0.00  0.00    +0.100 C 
ATOM      6  C   UNL     1      -8.329  -1.460  -0.582  0.00  0.00    -0.004 C 
ATOM      7  C   UNL     1      -7.483  -2.413   0.274  0.00  0.00    +0.115 C 
ATOM      8  C   UNL     1      -9.676  -1.202   0.086  0.00  0.00    -0.010 C 
ATOM      9  C   UNL     1     -10.486  -2.501   0.106  0.00  0.00    -0.082 C 
ATOM     10  N   UNL     1     -10.683  -2.979  -1.268  0.00  0.00    +0.379 N 
ATOM     11  C   UNL     1      -9.387  -3.312  -1.872  0.00  0.00    -0.082 C 
ATOM     12  C   UNL     1      -8.530  -2.048  -1.976  0.00  0.00    -0.010 C 
ATOM     13  H   UNL     1     -11.268  -3.801  -1.256  0.00  0.00    -0.086 HD
ATOM     14  H   UNL     1     -11.131  -2.258  -1.813  0.00  0.00    -0.086 HD
ENDROOT
BRANCH   1  18
ATOM     15  C   UNL     1      -1.196  -0.654   0.067  0.00  0.00    +0.132 A 
ATOM     16  C   UNL     1      -2.297  -0.056   0.671  0.00  0.00    +0.047 A 
ATOM     17  C   UNL     1      -3.519  -0.691   0.661  0.00  0.00    +0.016 A 
ATOM     18  C   UNL     1      -3.652  -1.937   0.044  0.00  0.00    +0.038 A 
ATOM     19  C   UNL     1      -2.544  -2.535  -0.561  0.00  0.00    +0.029 A 
ATOM     20  C   UNL     1      -1.326  -1.892  -0.552  0.00  0.00    +0.097 A 
BRANCH  20  21
ATOM     21  C   UNL     1      -0.131  -2.533  -1.210  0.00  0.00    +0.421 C 
ATOM     22  F   UNL     1      -0.506  -3.763  -1.760  0.00  0.00    -0.166 F 
ATOM     23  F   UNL     1       0.349  -1.696  -2.223  0.00  0.00    -0.166 F 
ATOM     24  F   UNL     1       0.873  -2.735  -0.257  0.00  0.00    -0.166 F 
ENDBRANCH  20  21
BRANCH  15  26
ATOM     25  C   UNL     1       0.069   1.243   0.732  0.00  0.00    +0.277 C 
ATOM     26  O   UNL     1       0.006  -0.026   0.078  0.00  0.00    -0.495 OA
ENDBRANCH  15  26
ENDBRANCH   1  18
BRANCH   5  27
ATOM     27  C   UNL     1      -7.161   0.151  -2.098  0.00  0.00    +0.219 C 
ATOM     28  O   UNL     1      -6.220  -0.408  -2.622  0.00  0.00    -0.275 OA
ATOM     29  N   UNL     1      -7.886   1.047  -2.797  0.00  0.00    -0.296 N 
ATOM     30  H   UNL     1      -8.638   1.494  -2.379  0.00  0.00    +0.150 HD
BRANCH  29  31
ATOM     31  C   UNL     1      -7.539   1.345  -4.189  0.00  0.00    +0.207 C 
BRANCH  31  32
ATOM     32  C   UNL     1      -8.032   2.724  -4.546  0.00  0.00    -0.013 A 
ATOM     33  C   UNL     1      -9.262   3.157  -4.089  0.00  0.00    +0.006 A 
ATOM     34  C   UNL     1      -9.714   4.422  -4.416  0.00  0.00    +0.000 A 
ATOM     35  C   UNL     1      -8.936   5.253  -5.200  0.00  0.00    +0.000 A 
ATOM     36  C   UNL     1      -7.705   4.819  -5.656  0.00  0.00    +0.000 A 
ATOM     37  C   UNL     1      -7.251   3.557  -5.325  0.00  0.00    +0.006 A 
ENDBRANCH  31  32
BRANCH  31  38
ATOM     38  C   UNL     1      -8.170   0.353  -5.075  0.00  0.00    +0.090 C 
ATOM     39  N   UNL     1      -8.656  -0.412  -5.759  0.00  0.00    -0.194 NA
ENDBRANCH  31  38
ENDBRANCH  29  31
ENDBRANCH   5  27
TORSDOF 7
