REMARK  Name = ZINC42782260
REMARK  5 active torsions:
REMARK  status: ('A' for Active; 'I' for Inactive)
REMARK    1  A    between atoms: C_1  and  C_2
REMARK    2  A    between atoms: N_11  and  S_12
REMARK    3  A    between atoms: S_12  and  C_15
REMARK    4  A    between atoms: C_20  and  N_21
REMARK    5  A    between atoms: N_21  and  N_22
REMARK                            x       y       z     vdW  Elec       q    Type
REMARK                         _______ _______ _______ _____ _____    ______ ____
ROOT
ATOM      1  S   UNL     1       1.750   0.530   1.961  0.00  0.00    +0.063 S 
ATOM      2  O   UNL     1       0.978   1.569   2.546  0.00  0.00    -0.153 OA
ATOM      3  O   UNL     1       2.537  -0.364   2.736  0.00  0.00    -0.153 OA
ENDROOT
BRANCH   1  13
ATOM      4  C   UNL     1      -0.544   1.683   0.730  0.00  0.00    +0.031 C 
ATOM      5  C   UNL     1      -0.382   0.220   0.309  0.00  0.00    +0.107 C 
ATOM      6  C   UNL     1      -1.669  -0.548   0.602  0.00  0.00    -0.019 A 
ATOM      7  C   UNL     1      -2.934  -0.081   0.248  0.00  0.00    +0.013 A 
ATOM      8  C   UNL     1      -4.031  -0.818   0.535  0.00  0.00    +0.046 A 
ATOM      9  S   UNL     1      -3.317  -2.243   1.341  0.00  0.00    -0.101 S 
ATOM     10  C   UNL     1      -1.617  -1.750   1.237  0.00  0.00    -0.004 A 
ATOM     11  C   UNL     1      -0.408  -2.476   1.731  0.00  0.00    +0.060 C 
ATOM     12  C   UNL     1       0.837  -1.867   1.069  0.00  0.00    +0.115 C 
ATOM     13  N   UNL     1       0.701  -0.403   1.083  0.00  0.00    -0.169 NA
ENDBRANCH   1  13
BRANCH   1  14
ATOM     14  C   UNL     1       2.845   1.301   0.815  0.00  0.00    +0.127 A 
ATOM     15  C   UNL     1       2.843   2.675   0.673  0.00  0.00    +0.030 A 
ATOM     16  C   UNL     1       3.701   3.280  -0.226  0.00  0.00    +0.002 A 
ATOM     17  C   UNL     1       4.565   2.513  -0.986  0.00  0.00    +0.002 A 
ATOM     18  C   UNL     1       4.573   1.139  -0.849  0.00  0.00    +0.026 A 
ATOM     19  C   UNL     1       3.716   0.527   0.058  0.00  0.00    +0.067 A 
BRANCH  19  20
ATOM     20  N   UNL     1       3.725  -0.862   0.203  0.00  0.00    -0.281 N 
ATOM     21  H   UNL     1       3.184  -1.281   0.890  0.00  0.00    +0.166 HD
BRANCH  20  22
ATOM     22  N   UNL     1       4.495  -1.630  -0.624  0.00  0.00    -0.256 NA
ATOM     23  H   UNL     1       4.399  -2.609  -0.401  0.00  0.00    +0.140 HD
ATOM     24  H   UNL     1       4.271  -1.456  -1.592  0.00  0.00    +0.140 HD
ENDBRANCH  20  22
ENDBRANCH  19  20
ENDBRANCH   1  14
TORSDOF 4
