REMARK  Name = ZINC39972170
REMARK  14 active torsions:
REMARK  status: ('A' for Active; 'I' for Inactive)
REMARK    1  A    between atoms: C_1  and  C_2
REMARK    2  A    between atoms: C_3  and  C_29
REMARK    3  A    between atoms: C_4  and  N_10
REMARK    4  A    between atoms: C_6  and  C_7
REMARK    5  A    between atoms: C_11  and  C_13
REMARK    6  A    between atoms: C_13  and  N_14
REMARK    7  A    between atoms: N_17  and  C_20
REMARK    8  A    between atoms: C_20  and  C_21
REMARK    9  A    between atoms: C_24  and  S_27
REMARK   10  A    between atoms: S_27  and  C_28
REMARK   11  A    between atoms: C_29  and  O_31
REMARK   12  A    between atoms: O_31  and  C_32
REMARK   13  A    between atoms: C_32  and  C_33
REMARK   14  A    between atoms: C_32  and  C_34
REMARK                            x       y       z     vdW  Elec       q    Type
REMARK                         _______ _______ _______ _____ _____    ______ ____
ROOT
ATOM      1  N   UNL     1       0.033  -3.047  -2.112  0.00  0.00    -0.278 N 
ATOM      2  C   UNL     1       0.053  -4.365  -1.832  0.00  0.00    +0.232 C 
ATOM      3  O   UNL     1       0.065  -4.740  -0.679  0.00  0.00    -0.274 OA
ATOM      4  H   UNL     1       0.024  -2.747  -3.035  0.00  0.00    +0.155 HD
ENDROOT
BRANCH   1   8
ATOM      5  C   UNL     1      -0.018   1.503   0.010  0.00  0.00    +0.046 C 
ATOM      6  C   UNL     1       0.002  -0.004   0.002  0.00  0.00    -0.015 A 
ATOM      7  C   UNL     1       0.006  -0.730  -1.182  0.00  0.00    +0.091 A 
ATOM      8  C   UNL     1       0.026  -2.123  -1.086  0.00  0.00    +0.087 A 
ATOM      9  S   UNL     1       0.038  -2.412   0.569  0.00  0.00    -0.068 S 
ATOM     10  C   UNL     1       0.024  -0.732   1.161  0.00  0.00    +0.079 A 
BRANCH  10  11
ATOM     11  C   UNL     1       0.030  -0.250   2.544  0.00  0.00    +0.248 C 
ATOM     12  O   UNL     1       0.016   0.945   2.771  0.00  0.00    -0.270 OA
ATOM     13  N   UNL     1       0.052  -1.130   3.564  0.00  0.00    -0.325 N 
ATOM     14  H   UNL     1       0.064  -2.083   3.382  0.00  0.00    +0.145 HD
ATOM     15  H   UNL     1       0.057  -0.811   4.480  0.00  0.00    +0.145 HD
ENDBRANCH  10  11
BRANCH   7  16
ATOM     16  C   UNL     1      -0.010  -0.058  -2.486  0.00  0.00    +0.342 C 
ATOM     17  O   UNL     1       1.036   0.236  -3.032  0.00  0.00    -0.245 OA
BRANCH  16  18
ATOM     18  O   UNL     1      -1.185   0.234  -3.079  0.00  0.00    -0.458 OA
BRANCH  18  19
ATOM     19  C   UNL     1      -1.127   0.889  -4.347  0.00  0.00    +0.171 C 
ATOM     20  C   UNL     1      -1.091  -0.159  -5.461  0.00  0.00    +0.052 C 
ATOM     21  C   UNL     1      -2.361   1.776  -4.521  0.00  0.00    +0.052 C 
ENDBRANCH  18  19
ENDBRANCH  16  18
ENDBRANCH   7  16
ENDBRANCH   1   8
BRANCH   2  22
ATOM     22  C   UNL     1       0.061  -5.373  -2.952  0.00  0.00    +0.180 C 
BRANCH  22  23
ATOM     23  N   UNL     1       0.083  -6.730  -2.389  0.00  0.00    -0.298 NA
ATOM     24  C   UNL     1       1.347  -6.988  -1.685  0.00  0.00    +0.066 C 
ATOM     25  C   UNL     1       1.306  -8.386  -1.064  0.00  0.00    -0.063 C 
ATOM     26  N   UNL     1       1.102  -9.385  -2.121  0.00  0.00    +0.384 N 
ATOM     27  C   UNL     1      -0.176  -9.130  -2.799  0.00  0.00    -0.063 C 
ATOM     28  C   UNL     1      -0.147  -7.738  -3.434  0.00  0.00    +0.066 C 
ATOM     29  H   UNL     1       1.855  -9.326  -2.790  0.00  0.00    -0.081 HD
BRANCH  26  30
ATOM     30  C   UNL     1       1.080 -10.729  -1.527  0.00  0.00    -0.043 C 
BRANCH  30  31
ATOM     31  C   UNL     1       0.994 -11.761  -2.622  0.00  0.00    -0.064 A 
ATOM     32  C   UNL     1      -0.242 -12.186  -3.073  0.00  0.00    +0.003 A 
ATOM     33  C   UNL     1      -0.324 -13.132  -4.075  0.00  0.00    +0.015 A 
ATOM     34  C   UNL     1       0.837 -13.656  -4.631  0.00  0.00    +0.008 A 
ATOM     35  C   UNL     1       2.077 -13.226  -4.175  0.00  0.00    +0.015 A 
ATOM     36  C   UNL     1       2.152 -12.276  -3.176  0.00  0.00    +0.003 A 
BRANCH  34  37
ATOM     37  S   UNL     1       0.736 -14.864  -5.910  0.00  0.00    -0.129 S 
ATOM     38  C   UNL     1       2.468 -15.233  -6.302  0.00  0.00    +0.090 C 
ENDBRANCH  34  37
ENDBRANCH  30  31
ENDBRANCH  26  30
ENDBRANCH  22  23
ENDBRANCH   2  22
TORSDOF 10
