REMARK  Name = ZINC39121642
REMARK  3 active torsions:
REMARK  status: ('A' for Active; 'I' for Inactive)
REMARK    1  A    between atoms: C_3  and  N_12
REMARK    2  A    between atoms: N_12  and  S_13
REMARK    3  A    between atoms: S_13  and  N_16
REMARK                            x       y       z     vdW  Elec       q    Type
REMARK                         _______ _______ _______ _____ _____    ______ ____
ROOT
ATOM      1  C   UNL     1      -0.017   1.401   0.010  0.00  0.00    +0.010 A 
ATOM      2  C   UNL     1       1.152   2.095   0.002  0.00  0.00    +0.025 A 
ATOM      3  C   UNL     1       2.384   1.430  -0.013  0.00  0.00    +0.050 A 
ATOM      4  C   UNL     1       2.438   0.053  -0.021  0.00  0.00    +0.033 A 
ATOM      5  C   UNL     1       1.245  -0.686  -0.014  0.00  0.00    -0.016 A 
ATOM      6  C   UNL     1       0.002  -0.004   0.002  0.00  0.00    -0.017 A 
ATOM      7  C   UNL     1      -1.191  -0.747   0.009  0.00  0.00    +0.023 A 
ATOM      8  C   UNL     1      -1.138  -2.108   0.001  0.00  0.00    +0.018 A 
ATOM      9  C   UNL     1       0.085  -2.779  -0.015  0.00  0.00    +0.016 A 
ATOM     10  C   UNL     1       1.260  -2.092  -0.022  0.00  0.00    +0.009 A 
ATOM     11 BR   UNL     1      -2.746  -3.103   0.011  0.00  0.00    -0.050 Br
ENDROOT
BRANCH   3  12
ATOM     12  N   UNL     1       3.568   2.168  -0.020  0.00  0.00    -0.207 N 
ATOM     13  H   UNL     1       4.288   1.924  -0.623  0.00  0.00    +0.175 HD
BRANCH  12  14
ATOM     14  S   UNL     1       3.744   3.462   0.999  0.00  0.00    +0.107 S 
ATOM     15  O   UNL     1       5.048   3.980   0.776  0.00  0.00    -0.138 OA
ATOM     16  O   UNL     1       2.574   4.255   0.855  0.00  0.00    -0.138 OA
BRANCH  14  17
ATOM     17  N   UNL     1       3.728   2.871   2.546  0.00  0.00    -0.191 NA
ATOM     18  H   UNL     1       3.627   1.919   2.701  0.00  0.00    +0.146 HD
ATOM     19  H   UNL     1       3.819   3.478   3.298  0.00  0.00    +0.146 HD
ENDBRANCH  14  17
ENDBRANCH  12  14
ENDBRANCH   3  12
TORSDOF 3
