REMARK  Name = ZINC12206307
REMARK  7 active torsions:
REMARK  status: ('A' for Active; 'I' for Inactive)
REMARK    1  A    between atoms: C_3  and  N_27
REMARK    2  A    between atoms: C_5  and  N_7
REMARK    3  A    between atoms: C_10  and  N_74
REMARK    4  A    between atoms: C_13  and  C_14
REMARK    5  A    between atoms: C_13  and  N_74
REMARK    6  A    between atoms: C_28  and  C_30
REMARK    7  A    between atoms: C_30  and  C_31
REMARK                            x       y       z     vdW  Elec       q    Type
REMARK                         _______ _______ _______ _____ _____    ______ ____
ROOT
ATOM      1  N   UNL     1      -3.342   2.397  -2.189  0.00  0.00    -0.330 N 
ATOM      2  C   UNL     1      -2.784   1.104  -2.607  0.00  0.00    +0.103 C 
ATOM      3  C   UNL     1      -1.931   0.525  -1.476  0.00  0.00    +0.003 C 
ATOM      4  C   UNL     1      -0.803   1.504  -1.142  0.00  0.00    -0.069 C 
ATOM      5  C   UNL     1      -1.409   2.857  -0.756  0.00  0.00    +0.003 C 
ATOM      6  C   UNL     1      -2.277   3.368  -1.908  0.00  0.00    +0.103 C 
ENDROOT
BRANCH   1  11
ATOM      7  C   UNL     1      -5.358   2.656  -5.252  0.00  0.00    +0.004 A 
ATOM      8  C   UNL     1      -5.995   3.866  -5.049  0.00  0.00    +0.023 A 
ATOM      9  C   UNL     1      -5.751   4.594  -3.891  0.00  0.00    +0.035 A 
ATOM     10  C   UNL     1      -4.868   4.106  -2.939  0.00  0.00    +0.046 A 
ATOM     11  C   UNL     1      -4.231   2.891  -3.145  0.00  0.00    +0.031 A 
ATOM     12  C   UNL     1      -4.475   2.170  -4.308  0.00  0.00    +0.023 A 
BRANCH   9  13
ATOM     13  N   UNL     1      -6.396   5.819  -3.687  0.00  0.00    -0.285 N 
ATOM     14  C   UNL     1      -6.648   6.631  -4.732  0.00  0.00    +0.217 C 
ATOM     15  O   UNL     1      -6.393   6.265  -5.860  0.00  0.00    -0.275 OA
ATOM     16  H   UNL     1      -6.662   6.084  -2.792  0.00  0.00    +0.155 HD
BRANCH  14  17
ATOM     17  C   UNL     1      -7.248   7.994  -4.500  0.00  0.00    +0.099 C 
BRANCH  17  18
ATOM     18  C   UNL     1      -7.431   8.706  -5.842  0.00  0.00    -0.002 C 
ATOM     19  C   UNL     1      -6.056   9.040  -6.455  0.00  0.00    +0.004 C 
ATOM     20  C   UNL     1      -6.264  10.421  -7.126  0.00  0.00    +0.000 C 
ATOM     21  C   UNL     1      -7.197  11.149  -6.127  0.00  0.00    +0.000 C 
ATOM     22  C   UNL     1      -8.157  10.046  -5.633  0.00  0.00    +0.004 C 
ENDBRANCH  17  18
ENDBRANCH  14  17
ENDBRANCH   9  13
ENDBRANCH   1  11
BRANCH   4  23
ATOM     23  N   UNL     1      -0.019   0.974  -0.010  0.00  0.00    +0.381 N 
ATOM     24  H   UNL     1       0.022  -0.050  -0.077  0.00  0.00    -0.086 HD
ATOM     25  H   UNL     1      -0.473   1.241   0.871  0.00  0.00    -0.086 HD
BRANCH  23  26
ATOM     26  C   UNL     1       1.351   1.519  -0.036  0.00  0.00    -0.077 C 
BRANCH  26  27
ATOM     27  C   UNL     1       2.139   0.952   1.147  0.00  0.00    -0.011 C 
ATOM     28  C   UNL     1       3.595   1.417   1.061  0.00  0.00    +0.005 C 
ATOM     29  C   UNL     1       4.362   0.896   2.279  0.00  0.00    +0.019 C 
ATOM     30  C   UNL     1       3.684   1.398   3.556  0.00  0.00    +0.108 C 
ATOM     31  N   UNL     1       2.293   0.926   3.591  0.00  0.00    -0.299 N 
ATOM     32  C   UNL     1       1.525   1.453   2.456  0.00  0.00    +0.109 C 
ATOM     33  C   UNL     1       1.689   1.252   4.793  0.00  0.00    +0.218 A 
ATOM     34  N   UNL     1       0.568   1.958   4.783  0.00  0.00    -0.223 NA
ATOM     35  C   UNL     1      -0.038   2.281   5.913  0.00  0.00    +0.116 A 
ATOM     36  C   UNL     1       0.521   1.882   7.118  0.00  0.00    +0.039 A 
ATOM     37  C   UNL     1       1.697   1.150   7.092  0.00  0.00    +0.116 A 
ATOM     38  N   UNL     1       2.249   0.855   5.927  0.00  0.00    -0.223 NA
ENDBRANCH  26  27
ENDBRANCH  23  26
ENDBRANCH   4  23
TORSDOF 7
