REMARK  Name = ZINC37885383
REMARK  3 active torsions:
REMARK  status: ('A' for Active; 'I' for Inactive)
REMARK    1  A    between atoms: C_5  and  N_8
REMARK    2  A    between atoms: N_8  and  C_9
REMARK    3  A    between atoms: C_14  and  O_16
REMARK                            x       y       z     vdW  Elec       q    Type
REMARK                         _______ _______ _______ _____ _____    ______ ____
ROOT
ATOM      1  C   UNL     1       0.670   0.549  -2.530  0.00  0.00    +0.037 A 
ATOM      2  C   UNL     1       0.772   1.685  -1.747  0.00  0.00    +0.021 A 
ATOM      3  C   UNL     1       1.029   1.574  -0.392  0.00  0.00    +0.037 A 
ATOM      4  C   UNL     1       1.184   0.327   0.183  0.00  0.00    +0.064 A 
ATOM      5  C   UNL     1       1.082  -0.816  -0.600  0.00  0.00    +0.065 A 
ATOM      6  C   UNL     1       0.824  -0.701  -1.961  0.00  0.00    +0.064 A 
ATOM      7 CL   UNL     1       0.695  -2.126  -2.944  0.00  0.00    -0.082 Cl
ATOM      8 CL   UNL     1       1.507   0.189   1.884  0.00  0.00    -0.082 Cl
ATOM      9 BR   UNL     1       0.561   3.393  -2.530  0.00  0.00    -0.050 Br
ENDROOT
BRANCH   5  10
ATOM     10  N   UNL     1       1.238  -2.079  -0.021  0.00  0.00    -0.334 N 
ATOM     11  H   UNL     1       2.125  -2.456   0.088  0.00  0.00    +0.147 HD
BRANCH  10  12
ATOM     12  C   UNL     1       0.062  -2.833   0.421  0.00  0.00    +0.127 C 
ATOM     13  C   UNL     1       0.051  -2.967   1.960  0.00  0.00    +0.184 C 
ATOM     14  O   UNL     1      -0.459  -4.294   2.211  0.00  0.00    -0.375 OA
ATOM     15  C   UNL     1       0.159  -5.135   1.213  0.00  0.00    +0.193 C 
ATOM     16  C   UNL     1       0.133  -4.292  -0.085  0.00  0.00    +0.162 C 
BRANCH  16  17
ATOM     17  O   UNL     1       1.325  -4.501  -0.844  0.00  0.00    -0.388 OA
ATOM     18  H   UNL     1       1.421  -5.401  -1.186  0.00  0.00    +0.210 HD
ENDBRANCH  16  17
ENDBRANCH  10  12
ENDBRANCH   5  10
TORSDOF 3
