REMARK  Name = ZINC37181655
REMARK  6 active torsions:
REMARK  status: ('A' for Active; 'I' for Inactive)
REMARK    1  A    between atoms: C_3  and  C_6
REMARK    2  A    between atoms: C_6  and  N_7
REMARK    3  A    between atoms: C_11  and  C_13
REMARK    4  A    between atoms: C_13  and  S_14
REMARK    5  A    between atoms: S_14  and  C_15
REMARK    6  A    between atoms: C_18  and  N_21
REMARK                            x       y       z     vdW  Elec       q    Type
REMARK                         _______ _______ _______ _____ _____    ______ ____
ROOT
ATOM      1  N   UNL     1       4.101   0.607   1.347  0.00  0.00    -0.292 N 
ATOM      2  C   UNL     1       5.428   0.575   1.580  0.00  0.00    +0.306 C 
ATOM      3  O   UNL     1       6.208   0.561   0.648  0.00  0.00    -0.252 OA
ATOM      4  N   UNL     1       5.889   0.557   2.846  0.00  0.00    -0.239 N 
ATOM      5  C   UNL     1       7.216   0.526   3.079  0.00  0.00    +0.231 C 
ATOM      6  O   UNL     1       7.995   0.512   2.150  0.00  0.00    -0.274 OA
ATOM      7  H   UNL     1       3.478   0.617   2.090  0.00  0.00    +0.151 HD
ATOM      8  H   UNL     1       5.266   0.568   3.590  0.00  0.00    +0.159 HD
ENDROOT
BRANCH   1   9
ATOM      9  C   UNL     1       3.599   0.625  -0.029  0.00  0.00    +0.180 C 
BRANCH   9  12
ATOM     10  C   UNL     1      -0.016   1.341   0.009  0.00  0.00    +0.041 A 
ATOM     11  C   UNL     1       1.331   1.769  -0.001  0.00  0.00    +0.046 A 
ATOM     12  C   UNL     1       2.092   0.660  -0.014  0.00  0.00    +0.122 A 
ATOM     13  O   UNL     1       1.282  -0.411  -0.012  0.00  0.00    -0.466 OA
ATOM     14  C   UNL     1       0.002  -0.004   0.002  0.00  0.00    +0.195 A 
ENDBRANCH   9  12
ENDBRANCH   1   9
BRANCH   5  15
ATOM     15  C   UNL     1       7.733   0.507   4.495  0.00  0.00    +0.170 C 
BRANCH  15  16
ATOM     16  S   UNL     1       9.546   0.465   4.477  0.00  0.00    -0.116 S 
BRANCH  16  17
ATOM     17  C   UNL     1       9.989   0.446   6.182  0.00  0.00    +0.008 A 
ATOM     18  C   UNL     1       8.999   0.458   7.157  0.00  0.00    +0.016 A 
ATOM     19  C   UNL     1       9.347   0.444   8.493  0.00  0.00    +0.024 A 
ATOM     20  C   UNL     1      10.685   0.417   8.863  0.00  0.00    +0.025 A 
ATOM     21  C   UNL     1      11.675   0.405   7.888  0.00  0.00    +0.024 A 
ATOM     22  C   UNL     1      11.328   0.413   6.552  0.00  0.00    +0.016 A 
BRANCH  20  23
ATOM     23  N   UNL     1      11.037   0.403  10.218  0.00  0.00    -0.358 N 
ATOM     24  H   UNL     1      10.346   0.412  10.898  0.00  0.00    +0.142 HD
ATOM     25  H   UNL     1      11.972   0.385  10.476  0.00  0.00    +0.142 HD
ENDBRANCH  20  23
ENDBRANCH  16  17
ENDBRANCH  15  16
ENDBRANCH   5  15
TORSDOF 6
