REMARK  Name = ZINC08301912
REMARK  8 active torsions:
REMARK  status: ('A' for Active; 'I' for Inactive)
REMARK    1  A    between atoms: C_1  and  C_2
REMARK    2  A    between atoms: C_5  and  O_9
REMARK    3  A    between atoms: C_6  and  C_8
REMARK    4  A    between atoms: O_9  and  C_10
REMARK    5  A    between atoms: C_12  and  N_32
REMARK    6  A    between atoms: C_14  and  O_31
REMARK    7  A    between atoms: C_23  and  C_26
REMARK    8  A    between atoms: C_33  and  C_35
REMARK                            x       y       z     vdW  Elec       q    Type
REMARK                         _______ _______ _______ _____ _____    ______ ____
ROOT
ATOM      1  C   UNL     1       3.531  -2.060  -0.045  0.00  0.00    +0.331 C 
ATOM      2  C   UNL     1       4.934  -2.622   0.194  0.00  0.00    +0.173 C 
ATOM      3  C   UNL     1       4.900  -4.152   0.097  0.00  0.00    +0.172 C 
ATOM      4  C   UNL     1       4.329  -4.539  -1.268  0.00  0.00    +0.183 C 
ATOM      5  C   UNL     1       2.929  -3.928  -1.403  0.00  0.00    +0.179 C 
ATOM      6  O   UNL     1       3.035  -2.509  -1.310  0.00  0.00    -0.332 OA
ATOM      7  C   UNL     1       2.345  -4.352  -2.752  0.00  0.00    +0.197 C 
ATOM      8  O   UNL     1       2.366  -5.783  -2.822  0.00  0.00    -0.342 OA
ATOM      9  C   UNL     1       3.661  -6.363  -2.652  0.00  0.00    +0.319 C 
ATOM     10  O   UNL     1       4.221  -5.956  -1.399  0.00  0.00    -0.336 OA
ENDROOT
BRANCH   9  11
ATOM     11  C   UNL     1       3.544  -7.865  -2.683  0.00  0.00    +0.161 A 
ATOM     12  C   UNL     1       3.071  -8.596  -3.709  0.00  0.00    +0.050 A 
ATOM     13  C   UNL     1       3.141  -9.951  -3.312  0.00  0.00    +0.041 A 
ATOM     14  C   UNL     1       3.652  -9.967  -2.068  0.00  0.00    +0.195 A 
ATOM     15  O   UNL     1       3.900  -8.701  -1.695  0.00  0.00    -0.463 OA
ENDBRANCH   9  11
BRANCH   2  16
ATOM     16  N   UNL     1       5.397  -2.228   1.526  0.00  0.00    -0.304 N 
ATOM     17  C   UNL     1       5.987  -1.029   1.707  0.00  0.00    +0.210 C 
ATOM     18  O   UNL     1       6.134  -0.278   0.767  0.00  0.00    -0.276 OA
ATOM     19  C   UNL     1       6.463  -0.624   3.078  0.00  0.00    +0.109 C 
ATOM     20  H   UNL     1       5.279  -2.829   2.278  0.00  0.00    +0.149 HD
ENDBRANCH   2  16
BRANCH   3  21
ATOM     21  O   UNL     1       6.224  -4.672   0.233  0.00  0.00    -0.387 OA
ATOM     22  H   UNL     1       6.650  -4.449   1.073  0.00  0.00    +0.210 HD
ENDBRANCH   3  21
BRANCH   1  23
ATOM     23  O   UNL     1       3.586  -0.632  -0.037  0.00  0.00    -0.461 OA
BRANCH  23  28
ATOM     24  C   UNL     1      -1.333   2.113   0.020  0.00  0.00    +0.044 C 
ATOM     25  C   UNL     1      -0.017   1.379   0.010  0.00  0.00    -0.050 A 
ATOM     26  C   UNL     1       0.002  -0.004   0.002  0.00  0.00    +0.007 A 
ATOM     27  C   UNL     1       1.207  -0.679  -0.014  0.00  0.00    +0.046 A 
ATOM     28  C   UNL     1       2.399   0.031  -0.021  0.00  0.00    +0.127 A 
ATOM     29  C   UNL     1       2.377   1.417  -0.013  0.00  0.00    -0.008 A 
ATOM     30  C   UNL     1       1.170   2.088   0.002  0.00  0.00    +0.010 A 
ATOM     31  C   UNL     1       3.670   2.192  -0.022  0.00  0.00    +0.047 C 
ENDBRANCH  23  28
ENDBRANCH   1  23
TORSDOF 5
