REMARK  Name = ZINC06075285
REMARK  9 active torsions:
REMARK  status: ('A' for Active; 'I' for Inactive)
REMARK    1  A    between atoms: C_1  and  C_2
REMARK    2  A    between atoms: C_2  and  C_3
REMARK    3  A    between atoms: C_2  and  C_4
REMARK    4  A    between atoms: C_2  and  C_5
REMARK    5  A    between atoms: C_14  and  S_18
REMARK    6  A    between atoms: S_18  and  C_19
REMARK    7  A    between atoms: C_19  and  C_20
REMARK    8  A    between atoms: N_22  and  C_23
REMARK    9  A    between atoms: C_27  and  C_29
REMARK                            x       y       z     vdW  Elec       q    Type
REMARK                         _______ _______ _______ _____ _____    ______ ____
ROOT
ATOM      1  C   UNL     1      -0.916   3.108   1.180  0.00  0.00    -0.000 C 
ATOM      2  C   UNL     1      -0.721   1.590   1.262  0.00  0.00    +0.009 C 
ATOM      3  C   UNL     1      -0.008   1.090   0.006  0.00  0.00    +0.037 C 
ATOM      4  C   UNL     1      -0.759   1.591  -1.225  0.00  0.00    -0.025 A 
ATOM      5  C   UNL     1      -1.620   2.629  -1.129  0.00  0.00    -0.004 A 
ATOM      6  S   UNL     1      -2.254   2.865  -2.771  0.00  0.00    -0.073 S 
ATOM      7  C   UNL     1      -1.366   1.577  -3.584  0.00  0.00    +0.113 A 
ATOM      8  C   UNL     1      -0.597   0.998  -2.542  0.00  0.00    +0.043 A 
ATOM      9  C   UNL     1       0.245  -0.096  -2.897  0.00  0.00    +0.109 A 
ATOM     10  N   UNL     1       0.218  -0.458  -4.179  0.00  0.00    -0.229 NA
ATOM     11  C   UNL     1      -0.525   0.131  -5.094  0.00  0.00    +0.223 A 
ATOM     12  N   UNL     1      -1.331   1.153  -4.832  0.00  0.00    -0.228 NA
ATOM     13  C   UNL     1      -1.964   3.412   0.101  0.00  0.00    +0.046 C 
ENDROOT
BRANCH   1  15
ATOM     14  C   UNL     1      -2.723   2.957   2.899  0.00  0.00    +0.011 C 
ATOM     15  C   UNL     1      -1.402   3.636   2.531  0.00  0.00    -0.035 C 
ATOM     16  C   UNL     1      -0.355   3.331   3.605  0.00  0.00    +0.011 C 
ATOM     17  C   UNL     1      -1.614   5.149   2.441  0.00  0.00    +0.011 C 
ENDBRANCH   1  15
BRANCH   9  18
ATOM     18  S   UNL     1       1.258  -0.919  -1.713  0.00  0.00    -0.096 S 
BRANCH  18  19
ATOM     19  C   UNL     1       2.040  -2.158  -2.776  0.00  0.00    +0.171 C 
BRANCH  19  20
ATOM     20  C   UNL     1       2.978  -3.004  -1.954  0.00  0.00    +0.227 C 
ATOM     21  O   UNL     1       3.106  -2.791  -0.767  0.00  0.00    -0.275 OA
ATOM     22  N   UNL     1       3.675  -3.999  -2.539  0.00  0.00    -0.285 N 
ATOM     23  H   UNL     1       3.524  -4.213  -3.473  0.00  0.00    +0.155 HD
BRANCH  22  24
ATOM     24  C   UNL     1       4.618  -4.721  -1.799  0.00  0.00    +0.034 A 
ATOM     25  C   UNL     1       5.779  -5.178  -2.410  0.00  0.00    +0.023 A 
ATOM     26  C   UNL     1       6.716  -5.888  -1.682  0.00  0.00    +0.003 A 
ATOM     27  C   UNL     1       6.500  -6.157  -0.346  0.00  0.00    +0.015 A 
ATOM     28  C   UNL     1       5.333  -5.707   0.276  0.00  0.00    +0.065 A 
ATOM     29  C   UNL     1       4.390  -4.986  -0.457  0.00  0.00    +0.038 A 
BRANCH  28  30
ATOM     30  C   UNL     1       5.098  -5.994   1.706  0.00  0.00    +0.387 C 
ATOM     31  O   UNL     1       4.083  -5.603   2.245  0.00  0.00    -0.241 OA
ATOM     32  O   UNL     1       6.010  -6.691   2.412  0.00  0.00    -0.241 OA
ENDBRANCH  28  30
ENDBRANCH  22  24
ENDBRANCH  19  20
ENDBRANCH  18  19
ENDBRANCH   9  18
TORSDOF 6
