REMARK  Name = ZINC45867792
REMARK  6 active torsions:
REMARK  status: ('A' for Active; 'I' for Inactive)
REMARK    1  A    between atoms: C_1  and  C_2
REMARK    2  A    between atoms: C_7  and  S_8
REMARK    3  A    between atoms: S_8  and  N_11
REMARK    4  A    between atoms: N_11  and  C_12
REMARK    5  A    between atoms: C_15  and  N_18
REMARK    6  A    between atoms: N_21  and  C_22
REMARK                            x       y       z     vdW  Elec       q    Type
REMARK                         _______ _______ _______ _____ _____    ______ ____
ROOT
ATOM      1  C   UNL     1       1.209   2.194   2.140  0.00  0.00    +0.048 A 
ATOM      2  C   UNL     1       0.946   2.121   0.778  0.00  0.00    +0.026 A 
ATOM      3  C   UNL     1       0.986   3.264   0.005  0.00  0.00    +0.025 A 
ATOM      4  C   UNL     1       1.290   4.487   0.589  0.00  0.00    +0.035 A 
ATOM      5  C   UNL     1       1.554   4.560   1.950  0.00  0.00    +0.025 A 
ATOM      6  C   UNL     1       1.508   3.417   2.725  0.00  0.00    +0.026 A 
ENDROOT
BRANCH   4   7
ATOM      7  N   UNL     1       1.332   5.647  -0.196  0.00  0.00    -0.269 N 
ATOM      8  C   UNL     1       0.485   5.789  -1.236  0.00  0.00    +0.304 C 
ATOM      9  O   UNL     1      -0.372   4.951  -1.439  0.00  0.00    -0.253 OA
ATOM     10  N   UNL     1       0.590   6.858  -2.049  0.00  0.00    -0.296 N 
ATOM     11  H   UNL     1       1.969   6.349   0.009  0.00  0.00    +0.156 HD
ATOM     12  H   UNL     1       1.274   7.526  -1.886  0.00  0.00    +0.151 HD
BRANCH  10  13
ATOM     13  C   UNL     1      -0.330   7.011  -3.179  0.00  0.00    +0.075 C 
ATOM     14  C   UNL     1       0.264   7.452  -4.519  0.00  0.00    +0.024 C 
ATOM     15  C   UNL     1      -0.581   8.428  -3.698  0.00  0.00    +0.024 C 
ENDBRANCH  10  13
ENDBRANCH   4   7
BRANCH   1  16
ATOM     16  N   UNL     1       1.169   1.035   2.923  0.00  0.00    -0.216 N 
ATOM     17  H   UNL     1       1.877   0.856   3.561  0.00  0.00    +0.174 HD
BRANCH  16  18
ATOM     18  S   UNL     1      -0.089  -0.030   2.761  0.00  0.00    +0.073 S 
ATOM     19  O   UNL     1      -1.280   0.744   2.769  0.00  0.00    -0.150 OA
ATOM     20  O   UNL     1       0.144  -1.079   3.691  0.00  0.00    -0.150 OA
BRANCH  18  27
ATOM     21  C   UNL     1       2.196  -1.795   1.861  0.00  0.00    +0.046 C 
ATOM     22  C   UNL     1       1.121  -1.540   0.836  0.00  0.00    -0.024 A 
ATOM     23  C   UNL     1       1.218  -2.105  -0.422  0.00  0.00    +0.006 A 
ATOM     24  C   UNL     1       0.233  -1.871  -1.363  0.00  0.00    +0.015 A 
ATOM     25  C   UNL     1      -0.851  -1.071  -1.045  0.00  0.00    +0.020 A 
ATOM     26  C   UNL     1      -0.947  -0.506   0.214  0.00  0.00    +0.044 A 
ATOM     27  C   UNL     1       0.037  -0.745   1.155  0.00  0.00    +0.112 A 
ATOM     28 BR   UNL     1      -2.199  -0.750  -2.331  0.00  0.00    -0.050 Br
ENDBRANCH  18  27
ENDBRANCH  16  18
ENDBRANCH   1  16
TORSDOF 5
