REMARK  Name = ZINC09530117
REMARK  4 active torsions:
REMARK  status: ('A' for Active; 'I' for Inactive)
REMARK    1  A    between atoms: C_4  and  C_7
REMARK    2  A    between atoms: C_10  and  N_13
REMARK    3  A    between atoms: C_14  and  C_16
REMARK    4  A    between atoms: C_19  and  N_22
REMARK                            x       y       z     vdW  Elec       q    Type
REMARK                         _______ _______ _______ _____ _____    ______ ____
ROOT
ATOM      1  C   UNL     1       7.295  -3.308   0.718  0.00  0.00    +0.037 A 
ATOM      2  C   UNL     1       8.423  -2.489   0.619  0.00  0.00    +0.015 A 
ATOM      3  C   UNL     1       9.675  -3.052   0.518  0.00  0.00    +0.024 A 
ATOM      4  C   UNL     1       9.817  -4.437   0.503  0.00  0.00    +0.033 A 
ATOM      5  C   UNL     1       8.695  -5.256   0.596  0.00  0.00    +0.024 A 
ATOM      6  C   UNL     1       7.441  -4.698   0.703  0.00  0.00    +0.015 A 
ENDROOT
BRANCH   4   7
ATOM      7  N   UNL     1      11.085  -5.004   0.395  0.00  0.00    -0.294 N 
ATOM      8  C   UNL     1      11.239  -6.237  -0.201  0.00  0.00    +0.154 C 
ATOM      9  N   UNL     1      10.324  -6.938  -0.791  0.00  0.00    -0.257 NA
ATOM     10  C   UNL     1      10.615  -8.218  -1.409  0.00  0.00    +0.143 C 
ATOM     11  C   UNL     1      10.195  -8.170  -2.898  0.00  0.00    +0.193 C 
ATOM     12  S   UNL     1      11.486  -9.221  -3.691  0.00  0.00    -0.028 S 
ATOM     13  O   UNL     1      11.803  -8.692  -4.971  0.00  0.00    -0.174 OA
ATOM     14  O   UNL     1      11.124 -10.589  -3.564  0.00  0.00    -0.174 OA
ATOM     15  C   UNL     1      12.857  -8.840  -2.516  0.00  0.00    +0.182 C 
ATOM     16  C   UNL     1      12.074  -8.652  -1.203  0.00  0.00    +0.101 C 
ATOM     17  S   UNL     1      12.738  -7.196  -0.311  0.00  0.00    -0.083 S 
ATOM     18  H   UNL     1      11.858  -4.531   0.739  0.00  0.00    +0.154 HD
ENDBRANCH   4   7
BRANCH   1  20
ATOM     19  N   UNL     1       5.813  -1.367   0.846  0.00  0.00    -0.282 N 
ATOM     20  C   UNL     1       5.952  -2.708   0.832  0.00  0.00    +0.248 C 
ATOM     21  O   UNL     1       4.971  -3.422   0.913  0.00  0.00    -0.270 OA
ATOM     22  H   UNL     1       6.587  -0.797   0.712  0.00  0.00    +0.155 HD
BRANCH  19  26
ATOM     23  C   UNL     1       2.058   0.331   1.468  0.00  0.00    -0.018 A 
ATOM     24  C   UNL     1       2.984   0.968   0.643  0.00  0.00    +0.010 A 
ATOM     25  C   UNL     1       4.227   0.407   0.443  0.00  0.00    +0.024 A 
ATOM     26  C   UNL     1       4.554  -0.798   1.054  0.00  0.00    +0.034 A 
ATOM     27  C   UNL     1       3.630  -1.438   1.872  0.00  0.00    +0.024 A 
ATOM     28  C   UNL     1       2.387  -0.877   2.079  0.00  0.00    +0.010 A 
BRANCH  23  32
ATOM     29  C   UNL     1      -1.773   2.064   2.103  0.00  0.00    +0.000 A 
ATOM     30  C   UNL     1      -0.853   2.705   1.294  0.00  0.00    +0.001 A 
ATOM     31  C   UNL     1       0.390   2.144   1.079  0.00  0.00    +0.008 A 
ATOM     32  C   UNL     1       0.721   0.936   1.690  0.00  0.00    -0.018 A 
ATOM     33  C   UNL     1      -0.208   0.297   2.509  0.00  0.00    +0.008 A 
ATOM     34  C   UNL     1      -1.450   0.864   2.711  0.00  0.00    +0.001 A 
ENDBRANCH  23  32
ENDBRANCH  19  26
ENDBRANCH   1  20
TORSDOF 4
