REMARK  Name = ZINC19759608
REMARK  8 active torsions:
REMARK  status: ('A' for Active; 'I' for Inactive)
REMARK    1  A    between atoms: C_1  and  C_2
REMARK    2  A    between atoms: C_2  and  C_3
REMARK    3  A    between atoms: C_2  and  C_4
REMARK    4  A    between atoms: C_7  and  C_10
REMARK    5  A    between atoms: C_10  and  N_11
REMARK    6  A    between atoms: C_13  and  C_22
REMARK    7  A    between atoms: C_13  and  C_23
REMARK    8  A    between atoms: C_18  and  N_21
REMARK                            x       y       z     vdW  Elec       q    Type
REMARK                         _______ _______ _______ _____ _____    ______ ____
ROOT
ATOM      1  N   UNL     1      -1.218  -0.689   0.004  0.00  0.00    -0.319 N 
ATOM      2  C   UNL     1      -1.062  -2.073   0.466  0.00  0.00    +0.153 C 
ATOM      3  C   UNL     1       0.079  -2.727  -0.323  0.00  0.00    +0.121 C 
ATOM      4  O   UNL     1       1.287  -2.022  -0.016  0.00  0.00    -0.483 OA
ATOM      5  C   UNL     1       1.220  -0.661  -0.023  0.00  0.00    +0.142 A 
ATOM      6  C   UNL     1      -0.002   0.003  -0.009  0.00  0.00    +0.074 A 
ATOM      7  C   UNL     1      -0.028   1.393  -0.010  0.00  0.00    +0.049 A 
ATOM      8  C   UNL     1       1.157   2.113  -0.028  0.00  0.00    +0.027 A 
ATOM      9  C   UNL     1       2.374   1.445  -0.045  0.00  0.00    +0.026 A 
ATOM     10  C   UNL     1       2.402   0.063  -0.044  0.00  0.00    +0.049 A 
ATOM     11  C   UNL     1       0.217  -4.194   0.087  0.00  0.00    +0.057 C 
ATOM     12  C   UNL     1      -0.207  -2.632  -1.823  0.00  0.00    +0.057 C 
ENDROOT
BRANCH   8  13
ATOM     13  N   UNL     1       1.127   3.512  -0.029  0.00  0.00    -0.358 N 
ATOM     14  H   UNL     1       2.067   4.082  -0.043  0.00  0.00    +0.142 HD
ATOM     15  H   UNL     1       0.162   4.041  -0.015  0.00  0.00    +0.142 HD
ENDBRANCH   8  13
BRANCH   1  16
ATOM     16  C   UNL     1      -2.220   0.025   0.807  0.00  0.00    +0.140 C 
BRANCH  16  20
ATOM     17  C   UNL     1      -5.788  -2.313   1.035  0.00  0.00    -0.045 A 
ATOM     18  C   UNL     1      -4.798  -2.468   1.987  0.00  0.00    +0.004 A 
ATOM     19  C   UNL     1      -3.643  -1.712   1.913  0.00  0.00    +0.005 A 
ATOM     20  C   UNL     1      -3.479  -0.800   0.887  0.00  0.00    -0.030 A 
ATOM     21  C   UNL     1      -4.471  -0.641  -0.062  0.00  0.00    +0.005 A 
ATOM     22  C   UNL     1      -5.623  -1.401   0.009  0.00  0.00    +0.004 A 
BRANCH  17  24
ATOM     23  C   UNL     1      -8.256  -2.213   1.247  0.00  0.00    +0.012 C 
ATOM     24  C   UNL     1      -7.046  -3.139   1.115  0.00  0.00    +0.013 C 
ATOM     25  C   UNL     1      -7.184  -3.981  -0.155  0.00  0.00    +0.012 C 
ENDBRANCH  17  24
ENDBRANCH  16  20
ENDBRANCH   1  16
TORSDOF 4
