REMARK  Name = ZINC44854004
REMARK  8 active torsions:
REMARK  status: ('A' for Active; 'I' for Inactive)
REMARK    1  A    between atoms: C_1  and  C_2
REMARK    2  A    between atoms: N_5  and  C_8
REMARK    3  A    between atoms: C_11  and  C_14
REMARK    4  A    between atoms: C_14  and  C_16
REMARK    5  A    between atoms: C_14  and  N_17
REMARK    6  A    between atoms: C_18  and  C_20
REMARK    7  A    between atoms: N_23  and  C_26
REMARK    8  A    between atoms: C_26  and  C_27
REMARK                            x       y       z     vdW  Elec       q    Type
REMARK                         _______ _______ _______ _____ _____    ______ ____
ROOT
ATOM      1  N   UNL     1       5.438  -7.157   1.036  0.00  0.00    -0.309 N 
ATOM      2  C   UNL     1       5.993  -8.384   0.970  0.00  0.00    +0.216 C 
ATOM      3  O   UNL     1       6.608  -8.719  -0.020  0.00  0.00    -0.276 OA
ATOM      4  H   UNL     1       4.947  -6.889   1.829  0.00  0.00    +0.149 HD
ENDROOT
BRANCH   2   5
ATOM      5  C   UNL     1       5.849  -9.339   2.127  0.00  0.00    +0.071 C 
ATOM      6  C   UNL     1       6.479  -8.725   3.380  0.00  0.00    -0.006 C 
ATOM      7  C   UNL     1       6.401  -9.731   4.530  0.00  0.00    -0.078 C 
ATOM      8  N   UNL     1       7.126 -10.954   4.165  0.00  0.00    +0.382 N 
ATOM      9  C   UNL     1       6.483 -11.588   3.007  0.00  0.00    -0.078 C 
ATOM     10  C   UNL     1       6.565 -10.653   1.799  0.00  0.00    -0.006 C 
ATOM     11  H   UNL     1       8.080 -10.722   3.934  0.00  0.00    -0.081 HD
BRANCH   8  12
ATOM     12  C   UNL     1       7.114 -11.886   5.301  0.00  0.00    -0.042 C 
BRANCH  12  13
ATOM     13  C   UNL     1       7.960 -13.089   4.973  0.00  0.00    -0.046 A 
ATOM     14  C   UNL     1       7.362 -14.261   4.549  0.00  0.00    +0.004 A 
ATOM     15  C   UNL     1       8.137 -15.364   4.248  0.00  0.00    +0.020 A 
ATOM     16  C   UNL     1       9.514 -15.296   4.370  0.00  0.00    +0.042 A 
ATOM     17  C   UNL     1      10.114 -14.124   4.793  0.00  0.00    +0.040 A 
ATOM     18  C   UNL     1       9.337 -13.018   5.090  0.00  0.00    +0.044 A 
ATOM     19 CL   UNL     1      10.089 -11.544   5.615  0.00  0.00    -0.083 Cl
ATOM     20 CL   UNL     1      10.489 -16.682   3.992  0.00  0.00    -0.083 Cl
ENDBRANCH  12  13
ENDBRANCH   8  12
ENDBRANCH   2   5
BRANCH   1  21
ATOM     21  C   UNL     1       5.578  -6.229  -0.088  0.00  0.00    +0.100 C 
ATOM     22  C   UNL     1       6.904  -5.476   0.035  0.00  0.00    +0.033 C 
BRANCH  21  26
ATOM     23  C   UNL     1       2.343  -3.437  -0.040  0.00  0.00    +0.030 A 
ATOM     24  C   UNL     1       2.793  -3.961  -1.246  0.00  0.00    +0.023 A 
ATOM     25  C   UNL     1       3.839  -4.862  -1.258  0.00  0.00    +0.007 A 
ATOM     26  C   UNL     1       4.438  -5.244  -0.071  0.00  0.00    -0.027 A 
ATOM     27  C   UNL     1       3.992  -4.725   1.131  0.00  0.00    +0.007 A 
ATOM     28  C   UNL     1       2.950  -3.819   1.149  0.00  0.00    +0.023 A 
BRANCH  23  33
ATOM     29  C   UNL     1      -2.913  -1.828  -0.008  0.00  0.00    +0.007 C 
ATOM     30  C   UNL     1      -1.396  -1.625  -0.007  0.00  0.00    -0.011 C 
ATOM     31  C   UNL     1      -0.794  -2.291   1.232  0.00  0.00    +0.022 C 
ATOM     32  C   UNL     1       0.720  -2.055   1.248  0.00  0.00    +0.105 C 
ATOM     33  N   UNL     1       1.285  -2.525  -0.025  0.00  0.00    -0.330 N 
ATOM     34  C   UNL     1       0.717  -2.016  -1.280  0.00  0.00    +0.105 C 
ATOM     35  C   UNL     1      -0.797  -2.251  -1.268  0.00  0.00    +0.022 C 
ENDBRANCH  23  33
ENDBRANCH  21  26
ENDBRANCH   1  21
TORSDOF 6
