REMARK  Name = ZINC11486634
REMARK  5 active torsions:
REMARK  status: ('A' for Active; 'I' for Inactive)
REMARK    1  A    between atoms: C_1  and  C_2
REMARK    2  A    between atoms: C_4  and  N_14
REMARK    3  A    between atoms: C_7  and  N_8
REMARK    4  A    between atoms: C_15  and  C_17
REMARK    5  A    between atoms: C_22  and  C_23
REMARK                            x       y       z     vdW  Elec       q    Type
REMARK                         _______ _______ _______ _____ _____    ______ ____
ROOT
ATOM      1  N   UNL     1      -6.334   1.008   2.108  0.00  0.00    -0.281 N 
ATOM      2  C   UNL     1      -5.190   0.887   1.406  0.00  0.00    +0.252 C 
ATOM      3  O   UNL     1      -4.353   1.768   1.452  0.00  0.00    -0.270 OA
ATOM      4  H   UNL     1      -7.035   0.344   2.012  0.00  0.00    +0.155 HD
ENDROOT
BRANCH   1   8
ATOM      5  C   UNL     1      -9.325   4.291   4.218  0.00  0.00    +0.046 C 
ATOM      6  C   UNL     1      -7.952   3.702   4.018  0.00  0.00    -0.027 A 
ATOM      7  C   UNL     1      -7.777   2.634   3.161  0.00  0.00    +0.028 A 
ATOM      8  C   UNL     1      -6.512   2.092   2.977  0.00  0.00    +0.034 A 
ATOM      9  C   UNL     1      -5.423   2.621   3.658  0.00  0.00    +0.025 A 
ATOM     10  C   UNL     1      -5.597   3.693   4.510  0.00  0.00    +0.025 A 
ATOM     11  C   UNL     1      -6.863   4.235   4.694  0.00  0.00    +0.039 A 
BRANCH  11  12
ATOM     12  N   UNL     1      -7.040   5.320   5.563  0.00  0.00    -0.271 N 
ATOM     13  C   UNL     1      -7.346   5.194   6.993  0.00  0.00    +0.114 C 
ATOM     14  C   UNL     1      -7.017   6.576   7.605  0.00  0.00    +0.029 C 
ATOM     15  C   UNL     1      -7.193   7.510   6.385  0.00  0.00    +0.098 C 
ATOM     16  C   UNL     1      -6.958   6.609   5.192  0.00  0.00    +0.220 C 
ATOM     17  O   UNL     1      -6.727   6.995   4.066  0.00  0.00    -0.275 OA
ENDBRANCH  11  12
ENDBRANCH   1   8
BRANCH   2  18
ATOM     18  C   UNL     1      -4.955  -0.311   0.582  0.00  0.00    +0.082 A 
ATOM     19  C   UNL     1      -5.805  -1.387   0.426  0.00  0.00    +0.118 A 
ATOM     20  N   UNL     1      -5.213  -2.263  -0.400  0.00  0.00    -0.283 N 
ATOM     21  H   UNL     1      -5.602  -3.138  -0.686  0.00  0.00    +0.188 HD
ATOM     22  N   UNL     1      -3.968  -1.766  -0.798  0.00  0.00    -0.173 NA
ATOM     23  C   UNL     1      -3.772  -0.595  -0.236  0.00  0.00    +0.105 A 
BRANCH  23  24
ATOM     24  C   UNL     1      -2.580   0.271  -0.394  0.00  0.00    +0.007 A 
ATOM     25  C   UNL     1      -2.720   1.658  -0.407  0.00  0.00    +0.014 A 
ATOM     26  C   UNL     1      -1.610   2.462  -0.560  0.00  0.00    +0.050 A 
ATOM     27  C   UNL     1      -0.349   1.895  -0.694  0.00  0.00    +0.162 A 
ATOM     28  C   UNL     1      -0.203   0.512  -0.679  0.00  0.00    +0.163 A 
ATOM     29  C   UNL     1      -1.315  -0.299  -0.531  0.00  0.00    +0.059 A 
ATOM     30  O   UNL     1       1.026  -0.060  -0.809  0.00  0.00    -0.485 OA
ATOM     31  C   UNL     1       2.070   0.769  -1.331  0.00  0.00    +0.270 C 
ATOM     32  C   UNL     1       2.017   2.120  -0.605  0.00  0.00    +0.270 C 
ATOM     33  O   UNL     1       0.733   2.707  -0.844  0.00  0.00    -0.485 OA
ENDBRANCH  23  24
ENDBRANCH   2  18
TORSDOF 4
