REMARK  Name = ZINC17102482
REMARK  7 active torsions:
REMARK  status: ('A' for Active; 'I' for Inactive)
REMARK    1  A    between atoms: C_1  and  C_2
REMARK    2  A    between atoms: C_5  and  C_8
REMARK    3  A    between atoms: C_8  and  N_9
REMARK    4  A    between atoms: C_10  and  C_12
REMARK    5  A    between atoms: C_16  and  N_17
REMARK    6  A    between atoms: C_18  and  C_20
REMARK    7  A    between atoms: C_26  and  C_28
REMARK                            x       y       z     vdW  Elec       q    Type
REMARK                         _______ _______ _______ _____ _____    ______ ____
ROOT
ATOM      1  C   UNL     1      -1.791   5.131  -2.916  0.00  0.00    +0.069 A 
ATOM      2  C   UNL     1      -2.518   5.352  -4.166  0.00  0.00    -0.023 A 
ATOM      3  C   UNL     1      -2.880   4.234  -4.821  0.00  0.00    -0.004 A 
ATOM      4  S   UNL     1      -2.272   2.903  -3.815  0.00  0.00    -0.077 S 
ATOM      5  C   UNL     1      -1.544   3.822  -2.541  0.00  0.00    +0.084 A 
ATOM      6  C   UNL     1      -3.623   4.542  -6.092  0.00  0.00    +0.043 C 
ATOM      7  C   UNL     1      -3.308   6.027  -6.378  0.00  0.00    +0.010 C 
ATOM      8  C   UNL     1      -3.006   6.562  -4.964  0.00  0.00    +0.037 C 
ENDROOT
BRANCH   1  10
ATOM      9  N   UNL     1      -2.138   6.750  -1.127  0.00  0.00    -0.307 N 
ATOM     10  C   UNL     1      -1.337   6.256  -2.092  0.00  0.00    +0.247 C 
ATOM     11  O   UNL     1      -0.238   6.743  -2.280  0.00  0.00    -0.270 OA
ATOM     12  H   UNL     1      -3.014   6.362  -0.977  0.00  0.00    +0.149 HD
BRANCH   9  13
ATOM     13  C   UNL     1      -1.684   7.874  -0.303  0.00  0.00    +0.139 C 
BRANCH  13  18
ATOM     14  C   UNL     1      -5.797   9.245   3.517  0.00  0.00    +0.044 C 
ATOM     15  C   UNL     1      -4.725   8.888   2.521  0.00  0.00    -0.050 A 
ATOM     16  C   UNL     1      -3.758   7.956   2.850  0.00  0.00    +0.003 A 
ATOM     17  C   UNL     1      -2.774   7.628   1.936  0.00  0.00    +0.005 A 
ATOM     18  C   UNL     1      -2.757   8.231   0.693  0.00  0.00    -0.030 A 
ATOM     19  C   UNL     1      -3.720   9.167   0.365  0.00  0.00    +0.005 A 
ATOM     20  C   UNL     1      -4.707   9.492   1.278  0.00  0.00    +0.003 A 
ENDBRANCH  13  18
ENDBRANCH   9  13
ENDBRANCH   1  10
BRANCH   5  21
ATOM     21  N   UNL     1      -0.880   3.358  -1.415  0.00  0.00    -0.279 N 
ATOM     22  C   UNL     1      -0.740   2.033  -1.213  0.00  0.00    +0.222 C 
ATOM     23  O   UNL     1      -1.195   1.246  -2.016  0.00  0.00    -0.275 OA
ATOM     24  H   UNL     1      -0.516   3.988  -0.773  0.00  0.00    +0.155 HD
BRANCH  22  25
ATOM     25  C   UNL     1      -0.019   1.530   0.011  0.00  0.00    +0.093 C 
ATOM     26  C   UNL     1       1.426   2.033  -0.001  0.00  0.00    +0.040 C 
ATOM     27  C   UNL     1       2.226   1.333   1.058  0.00  0.00    -0.030 C 
ATOM     28  C   UNL     1       1.859   0.234   1.636  0.00  0.00    -0.030 C 
ATOM     29  C   UNL     1       0.578  -0.488   1.335  0.00  0.00    +0.042 C 
ATOM     30  C   UNL     1       0.002  -0.004   0.002  0.00  0.00    +0.118 C 
BRANCH  30  31
ATOM     31  C   UNL     1      -1.400  -0.529  -0.169  0.00  0.00    +0.360 C 
ATOM     32  O   UNL     1      -2.325   0.242  -0.273  0.00  0.00    -0.246 OA
ATOM     33  O   UNL     1      -1.622  -1.852  -0.204  0.00  0.00    -0.246 OA
ENDBRANCH  30  31
ENDBRANCH  22  25
ENDBRANCH   5  21
TORSDOF 6
