REMARK  Name = ZINC35339757
REMARK  16 active torsions:
REMARK  status: ('A' for Active; 'I' for Inactive)
REMARK    1  A    between atoms: C_1  and  C_2
REMARK    2  A    between atoms: C_2  and  C_4
REMARK    3  A    between atoms: C_2  and  C_10
REMARK    4  A    between atoms: C_4  and  C_5
REMARK    5  A    between atoms: C_5  and  C_6
REMARK    6  A    between atoms: C_6  and  C_7
REMARK    7  A    between atoms: C_7  and  C_8
REMARK    8  A    between atoms: C_7  and  C_9
REMARK    9  A    between atoms: C_14  and  C_42
REMARK   10  A    between atoms: C_15  and  C_41
REMARK   11  A    between atoms: C_20  and  O_40
REMARK   12  A    between atoms: C_31  and  O_36
REMARK   13  A    between atoms: C_33  and  C_34
REMARK   14  A    between atoms: C_33  and  C_35
REMARK   15  A    between atoms: O_36  and  C_37
REMARK   16  A    between atoms: C_37  and  C_39
REMARK                            x       y       z     vdW  Elec       q    Type
REMARK                         _______ _______ _______ _____ _____    ______ ____
ROOT
ATOM      1  C   UNL     1       0.603   0.170   1.038  0.00  0.00    +0.006 C 
ATOM      2  C   UNL     1       0.962  -0.969   0.048  0.00  0.00    +0.005 C 
ATOM      3  C   UNL     1       1.073  -2.263   0.911  0.00  0.00    +0.010 C 
ATOM      4  C   UNL     1       0.098  -1.965   2.060  0.00  0.00    +0.002 C 
ATOM      5  C   UNL     1       0.474  -0.508   2.401  0.00  0.00    +0.044 C 
ATOM      6  C   UNL     1      -0.520   0.030   3.375  0.00  0.00    +0.208 C 
ATOM      7  O   UNL     1      -0.866   1.205   3.425  0.00  0.00    -0.288 OA
ATOM      8  C   UNL     1      -1.081  -0.971   4.371  0.00  0.00    +0.236 C 
ATOM      9  O   UNL     1      -2.059  -0.657   5.015  0.00  0.00    -0.285 OA
ATOM     10  C   UNL     1      -0.357  -2.284   4.522  0.00  0.00    +0.171 C 
ATOM     11  C   UNL     1       0.144  -2.856   3.260  0.00  0.00    +0.123 C 
ATOM     12  N   UNL     1       1.297  -3.703   3.345  0.00  0.00    -0.308 N 
ATOM     13  C   UNL     1       1.578  -4.506   4.334  0.00  0.00    +0.217 C 
ATOM     14  O   UNL     1       2.570  -5.170   4.134  0.00  0.00    -0.275 OA
ATOM     15  C   UNL     1       0.969  -4.783   5.620  0.00  0.00    +0.127 C 
ATOM     16  C   UNL     1      -0.353  -4.235   6.049  0.00  0.00    -0.049 C 
ATOM     17  C   UNL     1      -0.941  -3.179   5.572  0.00  0.00    -0.029 C 
ATOM     18  C   UNL     1      -2.321  -2.736   6.024  0.00  0.00    +0.038 C 
ATOM     19  C   UNL     1      -3.071  -3.786   6.822  0.00  0.00    +0.050 C 
ATOM     20  C   UNL     1      -2.106  -4.328   7.881  0.00  0.00    +0.186 C 
ATOM     21  C   UNL     1      -0.987  -5.063   7.162  0.00  0.00    +0.024 C 
ATOM     22  C   UNL     1       0.080  -5.419   8.205  0.00  0.00    +0.019 C 
ATOM     23  C   UNL     1      -1.545  -6.365   6.581  0.00  0.00    +0.019 C 
ATOM     24  C   UNL     1       1.880  -0.451   3.042  0.00  0.00    +0.020 C 
ATOM     25  C   UNL     1      -1.325  -2.032   1.493  0.00  0.00    +0.014 C 
ATOM     26  H   UNL     1       1.921  -3.692   2.607  0.00  0.00    +0.149 HD
ENDROOT
BRANCH   1  28
ATOM     27  C   UNL     1      -0.263   1.974  -0.441  0.00  0.00    +0.008 C 
ATOM     28  C   UNL     1      -0.643   0.918   0.599  0.00  0.00    -0.010 C 
BRANCH  28  29
ATOM     29  C   UNL     1      -1.639  -0.068  -0.016  0.00  0.00    +0.003 C 
BRANCH  29  30
ATOM     30  C   UNL     1      -2.593   0.685  -0.946  0.00  0.00    +0.001 C 
BRANCH  30  31
ATOM     31  C   UNL     1      -3.589  -0.300  -1.560  0.00  0.00    +0.003 C 
BRANCH  31  32
ATOM     32  C   UNL     1      -4.543   0.452  -2.491  0.00  0.00    -0.017 C 
ATOM     33  C   UNL     1      -3.757   1.024  -3.673  0.00  0.00    +0.007 C 
ATOM     34  C   UNL     1      -5.615  -0.509  -3.008  0.00  0.00    +0.007 C 
ENDBRANCH  31  32
ENDBRANCH  30  31
ENDBRANCH  29  30
ENDBRANCH  28  29
ENDBRANCH   1  28
BRANCH  10  35
ATOM     35  O   UNL     1       0.848  -1.874   5.193  0.00  0.00    -0.374 OA
ATOM     36  H   UNL     1       0.697  -1.452   6.050  0.00  0.00    +0.211 HD
ENDBRANCH  10  35
BRANCH  20  37
ATOM     37  O   UNL     1      -1.558  -3.253   8.650  0.00  0.00    -0.461 OA
BRANCH  37  38
ATOM     38  C   UNL     1      -2.230  -2.889   9.754  0.00  0.00    +0.304 C 
ATOM     39  O   UNL     1      -3.249  -3.463  10.058  0.00  0.00    -0.251 OA
ATOM     40  C   UNL     1      -1.713  -1.765  10.614  0.00  0.00    +0.136 C 
ENDBRANCH  37  38
ENDBRANCH  20  37
TORSDOF 8
