REMARK  Name = ZINC36311222
REMARK  9 active torsions:
REMARK  status: ('A' for Active; 'I' for Inactive)
REMARK    1  A    between atoms: C_1  and  C_2
REMARK    2  A    between atoms: C_2  and  C_3
REMARK    3  A    between atoms: C_2  and  C_4
REMARK    4  A    between atoms: C_2  and  C_5
REMARK    5  A    between atoms: C_8  and  C_11
REMARK    6  A    between atoms: N_16  and  C_19
REMARK    7  A    between atoms: C_19  and  C_21
REMARK    8  A    between atoms: C_19  and  C_26
REMARK    9  A    between atoms: N_28  and  C_29
REMARK                            x       y       z     vdW  Elec       q    Type
REMARK                         _______ _______ _______ _____ _____    ______ ____
ROOT
ATOM      1  C   UNL     1       1.515   0.220  -4.725  0.00  0.00    +0.246 C 
ATOM      2  O   UNL     1       0.930   1.143  -4.191  0.00  0.00    -0.270 OA
ATOM      3  N   UNL     1       2.856   0.130  -4.632  0.00  0.00    -0.301 N 
ATOM      4  C   UNL     1       3.624   1.082  -3.815  0.00  0.00    +0.089 C 
ATOM      5  C   UNL     1       4.770   1.639  -4.667  0.00  0.00    -0.058 C 
ATOM      6  N   UNL     1       5.562   0.527  -5.207  0.00  0.00    +0.390 N 
ATOM      7  C   UNL     1       4.741  -0.273  -6.124  0.00  0.00    -0.058 C 
ATOM      8  C   UNL     1       3.594  -0.928  -5.340  0.00  0.00    +0.089 C 
ATOM      9  H   UNL     1       5.882  -0.056  -4.448  0.00  0.00    -0.081 HD
ENDROOT
BRANCH   1  13
ATOM     10  C   UNL     1      -0.668  -2.716  -6.882  0.00  0.00    -0.042 A 
ATOM     11  C   UNL     1      -1.071  -1.393  -6.919  0.00  0.00    +0.005 A 
ATOM     12  C   UNL     1      -0.366  -0.434  -6.221  0.00  0.00    +0.013 A 
ATOM     13  C   UNL     1       0.755  -0.802  -5.475  0.00  0.00    +0.037 A 
ATOM     14  C   UNL     1       1.155  -2.139  -5.441  0.00  0.00    +0.013 A 
ATOM     15  C   UNL     1       0.439  -3.088  -6.140  0.00  0.00    +0.005 A 
BRANCH  10  17
ATOM     16  C   UNL     1      -1.983  -4.809  -6.675  0.00  0.00    +0.015 C 
ATOM     17  C   UNL     1      -1.443  -3.758  -7.647  0.00  0.00    -0.013 C 
ATOM     18  C   UNL     1      -0.522  -4.432  -8.666  0.00  0.00    +0.015 C 
ATOM     19  C   UNL     1      -2.610  -3.092  -8.377  0.00  0.00    +0.015 C 
ENDBRANCH  10  17
ENDBRANCH   1  13
BRANCH   6  20
ATOM     20  C   UNL     1       6.723   1.062  -5.931  0.00  0.00    +0.023 C 
BRANCH  20  21
ATOM     21  C   UNL     1       7.546  -0.095  -6.501  0.00  0.00    -0.016 C 
ATOM     22  C   UNL     1       8.070  -0.985  -5.355  0.00  0.00    +0.002 C 
ATOM     23  C   UNL     1       9.486  -1.408  -5.819  0.00  0.00    +0.000 C 
ATOM     24  C   UNL     1      10.017  -0.127  -6.509  0.00  0.00    +0.000 C 
ATOM     25  C   UNL     1       8.784   0.450  -7.235  0.00  0.00    +0.002 C 
ENDBRANCH  20  21
BRANCH  20  26
ATOM     26  C   UNL     1       7.576   1.869  -4.987  0.00  0.00    +0.204 C 
ATOM     27  O   UNL     1       7.598   1.597  -3.806  0.00  0.00    -0.277 OA
ATOM     28  N   UNL     1       8.315   2.894  -5.456  0.00  0.00    -0.287 N 
ATOM     29  H   UNL     1       8.252   3.151  -6.389  0.00  0.00    +0.155 HD
BRANCH  28  30
ATOM     30  C   UNL     1       9.174   3.588  -4.596  0.00  0.00    +0.033 A 
ATOM     31  C   UNL     1       9.835   2.913  -3.578  0.00  0.00    +0.025 A 
ATOM     32  C   UNL     1      10.681   3.600  -2.731  0.00  0.00    +0.022 A 
ATOM     33  C   UNL     1      10.872   4.961  -2.895  0.00  0.00    +0.041 A 
ATOM     34  C   UNL     1      10.215   5.636  -3.908  0.00  0.00    +0.022 A 
ATOM     35  C   UNL     1       9.371   4.953  -4.762  0.00  0.00    +0.025 A 
ATOM     36 CL   UNL     1      11.936   5.822  -1.828  0.00  0.00    -0.084 Cl
ENDBRANCH  28  30
ENDBRANCH  20  26
ENDBRANCH   6  20
TORSDOF 6
