REMARK  Name = ZINC00691652
REMARK  3 active torsions:
REMARK  status: ('A' for Active; 'I' for Inactive)
REMARK    1  A    between atoms: C_3  and  N_8
REMARK    2  A    between atoms: C_9  and  C_11
REMARK    3  A    between atoms: C_12  and  N_26
REMARK                            x       y       z     vdW  Elec       q    Type
REMARK                         _______ _______ _______ _____ _____    ______ ____
ROOT
ATOM      1  C   UNL     1       4.870   4.018  -0.231  0.00  0.00    +0.097 A 
ATOM      2  C   UNL     1       5.100   5.372  -0.343  0.00  0.00    +0.053 A 
ATOM      3  C   UNL     1       6.477   5.832  -0.446  0.00  0.00    +0.029 A 
ATOM      4  C   UNL     1       6.957   7.161  -0.565  0.00  0.00    +0.017 A 
ATOM      5  C   UNL     1       8.310   7.369  -0.648  0.00  0.00    -0.025 A 
ATOM      6  C   UNL     1       9.190   6.291  -0.622  0.00  0.00    +0.046 A 
ATOM      7  N   UNL     1       8.744   5.061  -0.514  0.00  0.00    -0.244 NA
ATOM      8  C   UNL     1       7.454   4.810  -0.428  0.00  0.00    +0.111 A 
ATOM      9  S   UNL     1       6.507   3.316  -0.274  0.00  0.00    -0.062 S 
ATOM     10  C   UNL     1      10.660   6.600  -0.730  0.00  0.00    +0.056 C 
ATOM     11  C   UNL     1      11.258   6.981   0.586  0.00  0.00    +0.006 C 
ATOM     12  C   UNL     1      11.043   8.393   1.091  0.00  0.00    +0.000 C 
ATOM     13  C   UNL     1       9.609   8.560   1.627  0.00  0.00    +0.000 C 
ATOM     14  C   UNL     1       8.824   9.430   0.608  0.00  0.00    +0.005 C 
ATOM     15  C   UNL     1       8.882   8.758  -0.762  0.00  0.00    +0.037 C 
ENDROOT
BRANCH   1  17
ATOM     16  N   UNL     1       3.596   2.002  -0.021  0.00  0.00    -0.266 N 
ATOM     17  C   UNL     1       3.628   3.346  -0.116  0.00  0.00    +0.258 C 
ATOM     18  O   UNL     1       2.590   3.982  -0.103  0.00  0.00    -0.269 OA
ATOM     19  H   UNL     1       4.424   1.500   0.042  0.00  0.00    +0.157 HD
BRANCH  16  22
ATOM     20  C   UNL     1       1.130  -0.710  -0.018  0.00  0.00    +0.025 A 
ATOM     21  C   UNL     1       2.350  -0.058  -0.024  0.00  0.00    +0.045 A 
ATOM     22  C   UNL     1       2.374   1.332  -0.015  0.00  0.00    +0.125 A 
ATOM     23  N   UNL     1       1.247   2.026  -0.001  0.00  0.00    -0.239 NA
ATOM     24  C   UNL     1       0.069   1.433   0.005  0.00  0.00    +0.132 A 
ATOM     25  C   UNL     1      -0.030   0.054  -0.003  0.00  0.00    +0.059 A 
ATOM     26 CL   UNL     1      -1.587  -0.714   0.005  0.00  0.00    -0.082 Cl
ENDBRANCH  16  22
ENDBRANCH   1  17
BRANCH   2  27
ATOM     27  N   UNL     1       4.046   6.275  -0.354  0.00  0.00    -0.356 N 
ATOM     28  H   UNL     1       3.133   5.955  -0.282  0.00  0.00    +0.142 HD
ATOM     29  H   UNL     1       4.223   7.225  -0.434  0.00  0.00    +0.142 HD
ENDBRANCH   2  27
TORSDOF 3
