REMARK  Name = ZINC02229602
REMARK  7 active torsions:
REMARK  status: ('A' for Active; 'I' for Inactive)
REMARK    1  A    between atoms: C_1  and  C_2
REMARK    2  A    between atoms: C_7  and  C_8
REMARK    3  A    between atoms: C_17  and  C_19
REMARK    4  A    between atoms: C_19  and  C_20
REMARK    5  A    between atoms: C_19  and  C_21
REMARK    6  A    between atoms: N_24  and  C_27
REMARK    7  A    between atoms: C_27  and  C_28
REMARK                            x       y       z     vdW  Elec       q    Type
REMARK                         _______ _______ _______ _____ _____    ______ ____
ROOT
ATOM      1  C   UNL     1      -1.242  -2.245   5.300  0.00  0.00    +0.044 C 
ATOM      2  C   UNL     1      -0.831  -1.663   3.973  0.00  0.00    -0.046 A 
ATOM      3  C   UNL     1       0.213  -0.758   3.912  0.00  0.00    +0.004 A 
ATOM      4  C   UNL     1       0.592  -0.224   2.693  0.00  0.00    +0.005 A 
ATOM      5  C   UNL     1      -0.071  -0.592   1.544  0.00  0.00    -0.027 A 
ATOM      6  C   UNL     1      -1.125  -1.500   1.593  0.00  0.00    +0.039 A 
ATOM      7  C   UNL     1      -1.499  -2.034   2.824  0.00  0.00    -0.026 A 
ATOM      8  C   UNL     1      -2.636  -3.019   2.901  0.00  0.00    +0.046 C 
ATOM      9  N   UNL     1      -1.638  -1.714   0.311  0.00  0.00    -0.286 N 
ATOM     10  C   UNL     1      -0.988  -0.993  -0.623  0.00  0.00    +0.211 C 
ATOM     11  O   UNL     1      -1.218  -0.976  -1.814  0.00  0.00    -0.277 OA
ATOM     12  C   UNL     1       0.078  -0.214   0.097  0.00  0.00    +0.050 C 
ATOM     13  C   UNL     1      -0.093   1.296  -0.110  0.00  0.00    +0.088 C 
ATOM     14  C   UNL     1       1.359   1.847  -0.181  0.00  0.00    +0.073 C 
ATOM     15  C   UNL     1       2.263   0.611   0.004  0.00  0.00    -0.055 C 
ATOM     16  C   UNL     1       1.474   2.343  -1.605  0.00  0.00    +0.224 C 
ATOM     17  O   UNL     1       2.463   2.846  -2.093  0.00  0.00    -0.275 OA
ATOM     18  N   UNL     1       0.316   2.139  -2.242  0.00  0.00    -0.237 N 
ATOM     19  C   UNL     1      -0.633   1.560  -1.498  0.00  0.00    +0.225 C 
ATOM     20  O   UNL     1      -1.752   1.289  -1.877  0.00  0.00    -0.275 OA
ATOM     21  H   UNL     1      -2.377  -2.311   0.117  0.00  0.00    +0.155 HD
ATOM     22  N   UNL     1       1.412  -0.513  -0.394  0.00  0.00    +0.394 N 
ATOM     23  H   UNL     1       1.401  -0.606  -1.416  0.00  0.00    -0.083 HD
ATOM     24  H   UNL     1       1.757  -1.385   0.025  0.00  0.00    -0.083 HD
ENDROOT
BRANCH  15  25
ATOM     25  C   UNL     1       3.501   0.717  -0.888  0.00  0.00    -0.031 C 
ATOM     26  C   UNL     1       4.408   1.834  -0.370  0.00  0.00    +0.005 C 
ATOM     27  C   UNL     1       4.261  -0.610  -0.866  0.00  0.00    +0.005 C 
ENDBRANCH  15  25
BRANCH  18  28
ATOM     28  C   UNL     1       0.104   2.517  -3.642  0.00  0.00    +0.151 C 
BRANCH  28  29
ATOM     29  C   UNL     1       0.487   1.367  -4.537  0.00  0.00    -0.029 A 
ATOM     30  C   UNL     1       1.782   1.259  -5.008  0.00  0.00    +0.008 A 
ATOM     31  C   UNL     1       2.135   0.202  -5.825  0.00  0.00    +0.038 A 
ATOM     32  C   UNL     1       1.188  -0.744  -6.180  0.00  0.00    +0.123 A 
ATOM     33  C   UNL     1      -0.110  -0.633  -5.711  0.00  0.00    +0.038 A 
ATOM     34  C   UNL     1      -0.459   0.423  -4.890  0.00  0.00    +0.008 A 
ATOM     35  F   UNL     1       1.531  -1.776  -6.982  0.00  0.00    -0.205 F 
ENDBRANCH  28  29
ENDBRANCH  18  28
TORSDOF 3
