REMARK  Name = ZINC15945400
REMARK  7 active torsions:
REMARK  status: ('A' for Active; 'I' for Inactive)
REMARK    1  A    between atoms: C_1  and  C_2
REMARK    2  A    between atoms: C_2  and  C_3
REMARK    3  A    between atoms: C_12  and  O_27
REMARK    4  A    between atoms: C_14  and  C_17
REMARK    5  A    between atoms: C_19  and  O_25
REMARK    6  A    between atoms: C_20  and  O_24
REMARK    7  A    between atoms: O_25  and  C_26
REMARK                            x       y       z     vdW  Elec       q    Type
REMARK                         _______ _______ _______ _____ _____    ______ ____
ROOT
ATOM      1  C   UNL     1       0.742  -0.511   1.242  0.00  0.00    -0.006 C 
ATOM      2  C   UNL     1       0.662  -2.039   1.298  0.00  0.00    +0.008 C 
ATOM      3  C   UNL     1       1.179  -2.538   2.648  0.00  0.00    +0.037 C 
ATOM      4  C   UNL     1       2.554  -1.935   2.899  0.00  0.00    -0.023 A 
ATOM      5  C   UNL     1       2.975  -0.847   2.215  0.00  0.00    -0.004 A 
ATOM      6  S   UNL     1       4.602  -0.523   2.838  0.00  0.00    -0.078 S 
ATOM      7  C   UNL     1       4.726  -1.757   3.937  0.00  0.00    +0.080 A 
ATOM      8  C   UNL     1       3.512  -2.451   3.860  0.00  0.00    +0.068 A 
ATOM      9  C   UNL     1       3.331  -3.619   4.760  0.00  0.00    +0.220 C 
ATOM     10  N   UNL     1       4.386  -4.076   5.378  0.00  0.00    -0.223 NA
ATOM     11  C   UNL     1       5.738  -3.562   5.196  0.00  0.00    +0.224 C 
ATOM     12  N   UNL     1       5.730  -2.143   4.796  0.00  0.00    -0.313 N 
ATOM     13  C   UNL     1       2.217  -0.091   1.168  0.00  0.00    +0.046 C 
ATOM     14  H   UNL     1       6.396  -1.516   5.119  0.00  0.00    +0.149 HD
ENDROOT
BRANCH  11  15
ATOM     15  C   UNL     1       6.432  -4.369   4.129  0.00  0.00    -0.001 A 
ATOM     16  C   UNL     1       6.093  -5.696   3.938  0.00  0.00    +0.056 A 
ATOM     17  C   UNL     1       6.730  -6.439   2.958  0.00  0.00    +0.163 A 
ATOM     18  C   UNL     1       7.710  -5.848   2.167  0.00  0.00    +0.172 A 
ATOM     19  C   UNL     1       8.045  -4.517   2.363  0.00  0.00    +0.059 A 
ATOM     20  C   UNL     1       7.402  -3.780   3.341  0.00  0.00    +0.025 A 
ATOM     21  I   UNL     1       9.521  -3.622   1.176  0.00  0.00    -0.040 I 
BRANCH  18  22
ATOM     22  O   UNL     1       8.338  -6.573   1.203  0.00  0.00    -0.503 OA
ATOM     23  H   UNL     1       7.903  -6.542   0.340  0.00  0.00    +0.292 HD
ENDBRANCH  18  22
BRANCH  17  24
ATOM     24  O   UNL     1       6.398  -7.744   2.769  0.00  0.00    -0.491 OA
ATOM     25  C   UNL     1       5.383  -8.285   3.618  0.00  0.00    +0.277 C 
ENDBRANCH  17  24
ENDBRANCH  11  15
BRANCH   1  27
ATOM     26  C   UNL     1      -0.019   1.526   0.010  0.00  0.00    +0.004 C 
ATOM     27  C   UNL     1       0.002  -0.004   0.002  0.00  0.00    +0.000 C 
ENDBRANCH   1  27
BRANCH   9  28
ATOM     28  O   UNL     1       2.116  -4.188   4.934  0.00  0.00    -0.492 OA
ATOM     29  H   UNL     1       2.117  -4.940   5.541  0.00  0.00    +0.294 HD
ENDBRANCH   9  28
TORSDOF 5
