REMARK  Name = ZINC14658358
REMARK  10 active torsions:
REMARK  status: ('A' for Active; 'I' for Inactive)
REMARK    1  A    between atoms: C_1  and  C_2
REMARK    2  A    between atoms: C_5  and  N_9
REMARK    3  A    between atoms: C_7  and  C_8
REMARK    4  A    between atoms: C_10  and  C_12
REMARK    5  A    between atoms: C_17  and  N_18
REMARK    6  A    between atoms: C_19  and  C_21
REMARK    7  A    between atoms: C_24  and  O_28
REMARK    8  A    between atoms: O_28  and  C_29
REMARK    9  A    between atoms: C_29  and  C_30
REMARK   10  A    between atoms: C_29  and  C_31
REMARK                            x       y       z     vdW  Elec       q    Type
REMARK                         _______ _______ _______ _____ _____    ______ ____
ROOT
ATOM      1  C   UNL     1      -0.806  -8.160  -0.534  0.00  0.00    +0.058 A 
ATOM      2  C   UNL     1      -0.593  -9.540  -0.582  0.00  0.00    +0.015 A 
ATOM      3  C   UNL     1       0.682 -10.033  -0.752  0.00  0.00    +0.001 A 
ATOM      4  C   UNL     1       1.757  -9.167  -0.875  0.00  0.00    +0.002 A 
ATOM      5  C   UNL     1       1.561  -7.801  -0.834  0.00  0.00    +0.024 A 
ATOM      6  C   UNL     1       0.284  -7.286  -0.659  0.00  0.00    +0.046 A 
ENDROOT
BRANCH   1   8
ATOM      7  N   UNL     1      -3.198  -8.466  -0.125  0.00  0.00    -0.281 N 
ATOM      8  C   UNL     1      -2.169  -7.626  -0.353  0.00  0.00    +0.250 C 
ATOM      9  O   UNL     1      -2.365  -6.427  -0.410  0.00  0.00    -0.270 OA
ATOM     10  H   UNL     1      -3.032  -9.414  -0.003  0.00  0.00    +0.155 HD
BRANCH   7  15
ATOM     11  C   UNL     1      -8.499  -6.463   0.115  0.00  0.00    +0.044 C 
ATOM     12  C   UNL     1      -7.091  -6.995   0.051  0.00  0.00    -0.047 A 
ATOM     13  C   UNL     1      -6.714  -8.049   0.863  0.00  0.00    +0.005 A 
ATOM     14  C   UNL     1      -5.426  -8.543   0.804  0.00  0.00    +0.023 A 
ATOM     15  C   UNL     1      -4.505  -7.972  -0.066  0.00  0.00    +0.034 A 
ATOM     16  C   UNL     1      -4.886  -6.914  -0.880  0.00  0.00    +0.027 A 
ATOM     17  C   UNL     1      -6.178  -6.428  -0.819  0.00  0.00    -0.046 A 
ATOM     18  C   UNL     1      -6.592  -5.279  -1.701  0.00  0.00    +0.044 C 
ENDBRANCH   7  15
ENDBRANCH   1   8
BRANCH   6  19
ATOM     19  N   UNL     1       0.085  -5.909  -0.612  0.00  0.00    -0.281 N 
ATOM     20  C   UNL     1       0.959  -5.081  -1.218  0.00  0.00    +0.248 C 
ATOM     21  O   UNL     1       1.861  -5.538  -1.893  0.00  0.00    -0.270 OA
ATOM     22  H   UNL     1      -0.683  -5.545  -0.144  0.00  0.00    +0.155 HD
BRANCH  20  23
ATOM     23  C   UNL     1       0.821  -3.620  -1.061  0.00  0.00    +0.038 A 
ATOM     24  C   UNL     1       1.727  -2.760  -1.689  0.00  0.00    +0.017 A 
ATOM     25  C   UNL     1       1.595  -1.397  -1.541  0.00  0.00    +0.047 A 
ATOM     26  C   UNL     1       0.564  -0.877  -0.768  0.00  0.00    +0.135 A 
ATOM     27  C   UNL     1      -0.336  -1.729  -0.138  0.00  0.00    +0.060 A 
ATOM     28  C   UNL     1      -0.215  -3.093  -0.286  0.00  0.00    +0.032 A 
ATOM     29 BR   UNL     1      -1.733  -1.014   0.918  0.00  0.00    -0.046 Br
BRANCH  26  30
ATOM     30  O   UNL     1       0.438   0.467  -0.625  0.00  0.00    -0.488 OA
BRANCH  30  31
ATOM     31  C   UNL     1       1.468   1.279  -1.191  0.00  0.00    +0.167 C 
ATOM     32  C   UNL     1       1.054   1.724  -2.595  0.00  0.00    +0.051 C 
ATOM     33  C   UNL     1       1.688   2.511  -0.310  0.00  0.00    +0.051 C 
ENDBRANCH  30  31
ENDBRANCH  26  30
ENDBRANCH  20  23
ENDBRANCH   6  19
TORSDOF 6
