REMARK  Name = ZINC02086532
REMARK  8 active torsions:
REMARK  status: ('A' for Active; 'I' for Inactive)
REMARK    1  A    between atoms: C_1  and  C_2
REMARK    2  A    between atoms: C_2  and  C_3
REMARK    3  A    between atoms: C_2  and  C_4
REMARK    4  A    between atoms: C_2  and  C_5
REMARK    5  A    between atoms: C_12  and  N_17
REMARK    6  A    between atoms: C_13  and  C_14
REMARK    7  A    between atoms: C_18  and  C_20
REMARK    8  A    between atoms: C_22  and  C_30
REMARK                            x       y       z     vdW  Elec       q    Type
REMARK                         _______ _______ _______ _____ _____    ______ ____
ROOT
ATOM      1  N   UNL     1      -1.190   1.869   0.032  0.00  0.00    -0.275 N 
ATOM      2  C   UNL     1      -0.014   1.211   0.009  0.00  0.00    +0.249 C 
ATOM      3  O   UNL     1       0.002  -0.004  -0.011  0.00  0.00    -0.270 OA
ATOM      4  H   UNL     1      -1.204   2.839   0.047  0.00  0.00    +0.156 HD
ENDROOT
BRANCH   2   5
ATOM      5  C   UNL     1       1.256   1.968   0.001  0.00  0.00    +0.048 A 
ATOM      6  C   UNL     1       1.270   3.351  -0.095  0.00  0.00    +0.042 A 
ATOM      7  C   UNL     1       2.501   4.030  -0.093  0.00  0.00    +0.079 A 
ATOM      8  N   UNL     1       3.654   3.395  -0.014  0.00  0.00    -0.246 NA
ATOM      9  C   UNL     1       3.732   2.066   0.075  0.00  0.00    +0.072 A 
ATOM     10  C   UNL     1       2.548   1.286   0.087  0.00  0.00    +0.013 A 
ATOM     11  C   UNL     1       2.634  -0.107   0.182  0.00  0.00    +0.011 A 
ATOM     12  C   UNL     1       3.858  -0.703   0.262  0.00  0.00    +0.001 A 
ATOM     13  C   UNL     1       5.024   0.058   0.249  0.00  0.00    +0.002 A 
ATOM     14  C   UNL     1       4.977   1.416   0.158  0.00  0.00    +0.028 A 
BRANCH   7  15
ATOM     15  C   UNL     1       2.503   5.502  -0.189  0.00  0.00    +0.038 A 
ATOM     16  C   UNL     1       3.568   6.365  -0.205  0.00  0.00    +0.017 A 
ATOM     17  C   UNL     1       3.324   7.715  -0.306  0.00  0.00    +0.008 A 
ATOM     18  C   UNL     1       2.039   8.153  -0.376  0.00  0.00    +0.046 A 
ATOM     19  S   UNL     1       1.119   6.624  -0.306  0.00  0.00    -0.095 S 
ENDBRANCH   7  15
ENDBRANCH   2   5
BRANCH   1  26
ATOM     20  C   UNL     1      -6.686  -1.371   0.419  0.00  0.00    -0.000 C 
ATOM     21  C   UNL     1      -7.064  -0.130  -0.394  0.00  0.00    +0.009 C 
ATOM     22  C   UNL     1      -6.238   1.070   0.073  0.00  0.00    +0.037 C 
ATOM     23  C   UNL     1      -4.763   0.688   0.051  0.00  0.00    -0.023 A 
ATOM     24  C   UNL     1      -4.381  -0.608   0.026  0.00  0.00    -0.004 A 
ATOM     25  S   UNL     1      -2.611  -0.556   0.002  0.00  0.00    -0.077 S 
ATOM     26  C   UNL     1      -2.381   1.161   0.034  0.00  0.00    +0.085 A 
ATOM     27  C   UNL     1      -3.678   1.653   0.056  0.00  0.00    +0.068 A 
ATOM     28  C   UNL     1      -5.270  -1.812   0.018  0.00  0.00    +0.046 C 
BRANCH  27  29
ATOM     29  C   UNL     1      -3.943   3.095   0.081  0.00  0.00    +0.244 C 
ATOM     30  O   UNL     1      -4.064   3.710  -0.962  0.00  0.00    -0.270 OA
ATOM     31  N   UNL     1      -4.053   3.739   1.260  0.00  0.00    -0.325 N 
ATOM     32  H   UNL     1      -3.957   3.249   2.091  0.00  0.00    +0.145 HD
ATOM     33  H   UNL     1      -4.229   4.693   1.277  0.00  0.00    +0.145 HD
ENDBRANCH  27  29
BRANCH  20  35
ATOM     34  C   UNL     1      -7.286  -3.743   0.925  0.00  0.00    +0.011 C 
ATOM     35  C   UNL     1      -7.677  -2.499   0.125  0.00  0.00    -0.035 C 
ATOM     36  C   UNL     1      -9.086  -2.057   0.526  0.00  0.00    +0.011 C 
ATOM     37  C   UNL     1      -7.651  -2.825  -1.369  0.00  0.00    +0.011 C 
ENDBRANCH  20  35
ENDBRANCH   1  26
TORSDOF 5
