REMARK  Name = ZINC01113292
REMARK  9 active torsions:
REMARK  status: ('A' for Active; 'I' for Inactive)
REMARK    1  A    between atoms: C_1  and  C_2
REMARK    2  A    between atoms: C_5  and  N_9
REMARK    3  A    between atoms: C_7  and  C_8
REMARK    4  A    between atoms: N_9  and  S_10
REMARK    5  A    between atoms: S_10  and  C_13
REMARK    6  A    between atoms: C_16  and  N_19
REMARK    7  A    between atoms: N_19  and  C_20
REMARK    8  A    between atoms: C_20  and  N_22
REMARK    9  A    between atoms: C_23  and  C_25
REMARK                            x       y       z     vdW  Elec       q    Type
REMARK                         _______ _______ _______ _____ _____    ______ ____
ROOT
ATOM      1  C   UNL     1       1.552  -0.997   0.212  0.00  0.00    +0.109 A 
ATOM      2  C   UNL     1       0.550  -0.116   0.579  0.00  0.00    +0.030 A 
ATOM      3  C   UNL     1       0.832   1.227   0.731  0.00  0.00    +0.025 A 
ATOM      4  C   UNL     1       2.122   1.694   0.517  0.00  0.00    +0.033 A 
ATOM      5  C   UNL     1       3.126   0.806   0.149  0.00  0.00    +0.025 A 
ATOM      6  C   UNL     1       2.838  -0.536  -0.002  0.00  0.00    +0.030 A 
ENDROOT
BRANCH   1   7
ATOM      7  S   UNL     1       1.188  -2.710   0.018  0.00  0.00    +0.072 S 
ATOM      8  O   UNL     1       2.429  -3.398   0.080  0.00  0.00    -0.150 OA
ATOM      9  O   UNL     1       0.112  -2.999   0.900  0.00  0.00    -0.150 OA
BRANCH   7  10
ATOM     10  N   UNL     1       0.609  -2.916  -1.520  0.00  0.00    -0.216 N 
ATOM     11  H   UNL     1      -0.294  -3.242  -1.658  0.00  0.00    +0.174 HD
BRANCH  10  16
ATOM     12  C   UNL     1       3.904  -1.716  -5.976  0.00  0.00    +0.044 C 
ATOM     13  C   UNL     1       3.028  -2.035  -4.792  0.00  0.00    -0.047 A 
ATOM     14  C   UNL     1       1.989  -1.187  -4.454  0.00  0.00    +0.005 A 
ATOM     15  C   UNL     1       1.181  -1.479  -3.372  0.00  0.00    +0.025 A 
ATOM     16  C   UNL     1       1.421  -2.620  -2.617  0.00  0.00    +0.048 A 
ATOM     17  C   UNL     1       2.465  -3.470  -2.959  0.00  0.00    +0.028 A 
ATOM     18  C   UNL     1       3.265  -3.174  -4.045  0.00  0.00    -0.046 A 
ATOM     19  C   UNL     1       4.399  -4.095  -4.417  0.00  0.00    +0.044 C 
ENDBRANCH  10  16
ENDBRANCH   7  10
ENDBRANCH   1   7
BRANCH   4  20
ATOM     20  N   UNL     1       2.411   3.054   0.670  0.00  0.00    -0.297 N 
ATOM     21  H   UNL     1       2.992   3.501   0.035  0.00  0.00    +0.154 HD
BRANCH  20  22
ATOM     22  C   UNL     1       1.881   3.743   1.700  0.00  0.00    +0.141 C 
ATOM     23  S   UNL     1       0.971   2.927   2.898  0.00  0.00    -0.018 S 
BRANCH  22  24
ATOM     24  N   UNL     1       2.068   5.075   1.786  0.00  0.00    -0.261 N 
ATOM     25  C   UNL     1       1.538   5.764   2.816  0.00  0.00    +0.285 C 
ATOM     26  O   UNL     1       0.891   5.184   3.668  0.00  0.00    -0.266 OA
ATOM     27  H   UNL     1       2.583   5.537   1.107  0.00  0.00    +0.157 HD
BRANCH  25  28
ATOM     28  C   UNL     1       1.741   7.212   2.910  0.00  0.00    +0.191 A 
ATOM     29  C   UNL     1       1.257   8.028   3.893  0.00  0.00    +0.056 A 
ATOM     30  C   UNL     1       1.692   9.326   3.590  0.00  0.00    +0.058 A 
ATOM     31  C   UNL     1       2.407   9.250   2.443  0.00  0.00    +0.171 A 
ATOM     32  O   UNL     1       2.433   7.973   2.037  0.00  0.00    -0.444 OA
ATOM     33 BR   UNL     1       3.232  10.704   1.560  0.00  0.00    -0.008 Br
ENDBRANCH  25  28
ENDBRANCH  22  24
ENDBRANCH  20  22
ENDBRANCH   4  20
TORSDOF 7
