REMARK  Name = ZINC03840981
REMARK  11 active torsions:
REMARK  status: ('A' for Active; 'I' for Inactive)
REMARK    1  A    between atoms: C_1  and  C_2
REMARK    2  A    between atoms: C_10  and  C_12
REMARK    3  A    between atoms: N_16  and  C_17
REMARK    4  A    between atoms: C_19  and  C_39
REMARK    5  A    between atoms: C_22  and  O_38
REMARK    6  A    between atoms: C_24  and  C_28
REMARK    7  A    between atoms: C_28  and  C_30
REMARK    8  A    between atoms: C_28  and  C_31
REMARK    9  A    between atoms: N_33  and  C_34
REMARK   10  A    between atoms: N_33  and  C_35
REMARK   11  A    between atoms: C_35  and  C_36
REMARK                            x       y       z     vdW  Elec       q    Type
REMARK                         _______ _______ _______ _____ _____    ______ ____
ROOT
ATOM      1  C   UNL     1      -8.701   1.971  -0.807  0.00  0.00    +0.014 C 
ATOM      2  C   UNL     1      -8.737   0.902   0.288  0.00  0.00    +0.042 C 
ATOM      3  C   UNL     1      -7.730  -0.192  -0.037  0.00  0.00    +0.057 A 
ATOM      4  C   UNL     1      -8.045  -1.497   0.167  0.00  0.00    +0.015 A 
ATOM      5  S   UNL     1      -6.575  -2.340  -0.353  0.00  0.00    -0.057 S 
ATOM      6  C   UNL     1      -5.662  -0.926  -0.788  0.00  0.00    +0.165 A 
ATOM      7  N   UNL     1      -6.513   0.044  -0.523  0.00  0.00    -0.229 NA
ATOM      8  N   UNL     1      -4.371  -0.841  -1.291  0.00  0.00    -0.259 N 
ATOM      9  C   UNL     1      -3.652  -1.963  -1.495  0.00  0.00    +0.266 C 
ATOM     10  O   UNL     1      -4.167  -3.053  -1.332  0.00  0.00    -0.268 OA
ATOM     11  C   UNL     1      -9.323  -2.053   0.694  0.00  0.00    +0.051 C 
ATOM     12  C   UNL     1     -10.143  -0.914   1.304  0.00  0.00    -0.022 C 
ATOM     13  C   UNL     1     -10.143   0.295   0.362  0.00  0.00    +0.033 C 
ATOM     14  C   UNL     1     -11.083   1.354   0.962  0.00  0.00    +0.123 C 
ATOM     15  C   UNL     1     -10.528   1.790   2.319  0.00  0.00    +0.029 C 
ATOM     16  C   UNL     1     -10.453   0.591   3.264  0.00  0.00    +0.007 C 
ATOM     17  C   UNL     1      -9.563  -0.496   2.654  0.00  0.00    +0.008 C 
ATOM     18  C   UNL     1     -11.588  -1.380   1.499  0.00  0.00    +0.012 C 
ATOM     19  H   UNL     1      -3.986   0.025  -1.495  0.00  0.00    +0.157 HD
ENDROOT
BRANCH   9  20
ATOM     20  C   UNL     1      -2.251  -1.869  -1.915  0.00  0.00    +0.105 A 
ATOM     21  C   UNL     1      -1.511  -0.712  -2.036  0.00  0.00    +0.032 A 
ATOM     22  C   UNL     1      -0.230  -1.084  -2.455  0.00  0.00    +0.020 A 
ATOM     23  C   UNL     1      -0.211  -2.432  -2.584  0.00  0.00    +0.086 A 
ATOM     24  N   UNL     1      -1.433  -2.921  -2.262  0.00  0.00    -0.346 N 
ATOM     25  C   UNL     1      -1.819  -4.335  -2.277  0.00  0.00    +0.149 C 
ENDBRANCH   9  20
BRANCH  15  26
ATOM     26  C   UNL     1     -11.444   2.857   2.924  0.00  0.00    +0.078 C 
ATOM     27  C   UNL     1     -11.520   4.059   1.980  0.00  0.00    +0.017 C 
BRANCH  26  28
ATOM     28  C   UNL     1     -10.891   3.297   4.255  0.00  0.00    +0.219 C 
ATOM     29  O   UNL     1      -9.724   3.103   4.521  0.00  0.00    -0.275 OA
ATOM     30  N   UNL     1     -11.694   3.907   5.149  0.00  0.00    -0.293 N 
ATOM     31  C   UNL     1     -13.117   4.090   4.851  0.00  0.00    +0.133 C 
BRANCH  30  32
ATOM     32  C   UNL     1     -11.144   4.388   6.419  0.00  0.00    +0.196 C 
BRANCH  32  33
ATOM     33  C   UNL     1     -10.680   5.775   6.259  0.00  0.00    -0.086 C 
ATOM     34  C   UNL     1     -10.310   6.882   6.132  0.00  0.00    +0.005 C 
ENDBRANCH  32  33
ENDBRANCH  30  32
ENDBRANCH  26  28
ENDBRANCH  15  26
BRANCH  14  35
ATOM     35  O   UNL     1     -12.387   0.795   1.134  0.00  0.00    -0.391 OA
ATOM     36  H   UNL     1     -13.029   1.406   1.521  0.00  0.00    +0.210 HD
ENDBRANCH  14  35
TORSDOF 6
