REMARK  Name = ZINC39521343
REMARK  4 active torsions:
REMARK  status: ('A' for Active; 'I' for Inactive)
REMARK    1  A    between atoms: C_4  and  O_22
REMARK    2  A    between atoms: C_5  and  N_7
REMARK    3  A    between atoms: C_8  and  O_21
REMARK    4  A    between atoms: C_17  and  O_20
REMARK                            x       y       z     vdW  Elec       q    Type
REMARK                         _______ _______ _______ _____ _____    ______ ____
ROOT
ATOM      1  N   UNL     1       1.235  -2.080  -0.021  0.00  0.00    -0.296 N 
ATOM      2  C   UNL     1       1.363  -2.835   1.233  0.00  0.00    +0.203 C 
ATOM      3  C   UNL     1       0.215  -3.846   1.319  0.00  0.00    +0.051 C 
ATOM      4  C   UNL     1       0.212  -4.717   0.060  0.00  0.00    +0.006 C 
ATOM      5  C   UNL     1      -0.012  -3.836  -1.171  0.00  0.00    +0.026 C 
ATOM      6  C   UNL     1       1.124  -2.823  -1.283  0.00  0.00    +0.040 C 
ATOM      7  C   UNL     1       0.830  -1.849  -2.424  0.00  0.00    +0.026 C 
ATOM      8  C   UNL     1       1.971  -0.835  -2.535  0.00  0.00    +0.005 C 
ATOM      9  C   UNL     1       3.283  -1.570  -2.813  0.00  0.00    +0.031 C 
ATOM     10  C   UNL     1       3.575  -2.543  -1.669  0.00  0.00    +0.117 C 
ATOM     11  C   UNL     1       2.436  -3.558  -1.558  0.00  0.00    +0.057 C 
ENDROOT
BRANCH   1  16
ATOM     12  C   UNL     1       0.034   1.381  -0.347  0.00  0.00    +0.002 A 
ATOM     13  C   UNL     1       1.169   2.089   0.002  0.00  0.00    +0.004 A 
ATOM     14  C   UNL     1       2.329   1.418   0.344  0.00  0.00    +0.047 A 
ATOM     15  C   UNL     1       2.356   0.033   0.338  0.00  0.00    +0.138 A 
ATOM     16  C   UNL     1       1.213  -0.681  -0.013  0.00  0.00    +0.074 A 
ATOM     17  C   UNL     1       0.053  -0.001  -0.355  0.00  0.00    +0.027 A 
BRANCH  15  18
ATOM     18  O   UNL     1       3.497  -0.628   0.674  0.00  0.00    -0.505 OA
ATOM     19  H   UNL     1       3.572  -0.827   1.617  0.00  0.00    +0.292 HD
ENDBRANCH  15  18
ENDBRANCH   1  16
BRANCH  10  20
ATOM     20  O   UNL     1       4.801  -3.229  -1.929  0.00  0.00    -0.392 OA
ATOM     21  H   UNL     1       5.569  -2.647  -2.011  0.00  0.00    +0.210 HD
ENDBRANCH  10  20
BRANCH   2  22
ATOM     22  O   UNL     1       1.296  -1.936   2.342  0.00  0.00    -0.374 OA
ATOM     23  H   UNL     1       1.374  -2.368   3.204  0.00  0.00    +0.212 HD
ENDBRANCH   2  22
TORSDOF 4
