REMARK  Name = ZINC36509082
REMARK  21 active torsions:
REMARK  status: ('A' for Active; 'I' for Inactive)
REMARK    1  A    between atoms: C_1  and  C_2
REMARK    2  A    between atoms: C_2  and  C_3
REMARK    3  A    between atoms: C_3  and  C_4
REMARK    4  A    between atoms: C_4  and  C_5
REMARK    5  A    between atoms: C_5  and  C_6
REMARK    6  A    between atoms: C_6  and  N_7
REMARK    7  A    between atoms: N_7  and  C_8
REMARK    8  A    between atoms: C_8  and  C_10
REMARK    9  A    between atoms: C_8  and  C_19
REMARK   10  A    between atoms: N_21  and  C_22
REMARK   11  A    between atoms: C_22  and  C_23
REMARK   12  A    between atoms: C_22  and  C_24
REMARK   13  A    between atoms: C_22  and  C_25
REMARK   14  A    between atoms: C_25  and  C_26
REMARK   15  A    between atoms: C_26  and  C_27
REMARK   16  A    between atoms: C_26  and  C_28
REMARK   17  A    between atoms: C_26  and  C_29
REMARK   18  A    between atoms: C_30  and  C_32
REMARK   19  A    between atoms: C_32  and  C_34
REMARK   20  A    between atoms: C_32  and  O_40
REMARK   21  A    between atoms: O_40  and  C_41
REMARK                            x       y       z     vdW  Elec       q    Type
REMARK                         _______ _______ _______ _____ _____    ______ ____
ROOT
ATOM      1  C   UNL     1      -4.272  -6.123  -1.704  0.00  0.00    +0.192 C 
ENDROOT
BRANCH   1   2
ATOM      2  C   UNL     1      -3.276  -6.701  -2.677  0.00  0.00    -0.015 A 
ATOM      3  C   UNL     1      -2.192  -5.946  -3.085  0.00  0.00    +0.010 A 
ATOM      4  C   UNL     1      -1.277  -6.471  -3.977  0.00  0.00    +0.050 A 
ATOM      5  C   UNL     1      -1.444  -7.757  -4.466  0.00  0.00    +0.166 A 
ATOM      6  C   UNL     1      -2.536  -8.517  -4.056  0.00  0.00    +0.167 A 
ATOM      7  C   UNL     1      -3.447  -7.986  -3.157  0.00  0.00    +0.055 A 
ATOM      8  O   UNL     1      -2.477  -9.734  -4.672  0.00  0.00    -0.453 OA
ATOM      9  C   UNL     1      -1.565  -9.563  -5.773  0.00  0.00    +0.466 C 
ATOM     10  O   UNL     1      -0.700  -8.497  -5.339  0.00  0.00    -0.453 OA
ENDBRANCH   1   2
BRANCH   1  11
ATOM     11  C   UNL     1      -5.237  -5.232  -2.442  0.00  0.00    +0.238 C 
ATOM     12  O   UNL     1      -5.269  -4.044  -2.203  0.00  0.00    -0.273 OA
ATOM     13  N   UNL     1      -6.066  -5.757  -3.367  0.00  0.00    -0.308 N 
ATOM     14  H   UNL     1      -6.040  -6.707  -3.558  0.00  0.00    +0.149 HD
BRANCH  13  15
ATOM     15  C   UNL     1      -7.004  -4.890  -4.084  0.00  0.00    +0.030 C 
ATOM     16  C   UNL     1      -8.104  -4.427  -3.127  0.00  0.00    +0.031 C 
ATOM     17  C   UNL     1      -6.258  -3.672  -4.631  0.00  0.00    +0.031 C 
BRANCH  15  18
ATOM     18  C   UNL     1      -7.631  -5.668  -5.244  0.00  0.00    +0.031 C 
BRANCH  18  19
ATOM     19  C   UNL     1      -6.547  -6.471  -5.964  0.00  0.00    -0.036 C 
ATOM     20  C   UNL     1      -6.322  -7.795  -5.231  0.00  0.00    +0.010 C 
ATOM     21  C   UNL     1      -6.991  -6.753  -7.401  0.00  0.00    +0.010 C 
ATOM     22  C   UNL     1      -5.244  -5.669  -5.981  0.00  0.00    +0.010 C 
ENDBRANCH  18  19
ENDBRANCH  15  18
ENDBRANCH  13  15
ENDBRANCH   1  11
BRANCH   1  23
ATOM     23  N   UNL     1      -3.563  -5.341  -0.688  0.00  0.00    -0.283 N 
ATOM     24  C   UNL     1      -2.800  -5.963   0.232  0.00  0.00    +0.250 C 
ATOM     25  O   UNL     1      -2.751  -7.175   0.259  0.00  0.00    -0.272 OA
BRANCH  23  26
ATOM     26  C   UNL     1      -3.684  -3.881  -0.673  0.00  0.00    +0.109 C 
BRANCH  26  27
ATOM     27  C   UNL     1      -4.852  -3.475   0.229  0.00  0.00    +0.019 C 
BRANCH  27  28
ATOM     28  C   UNL     1      -4.957  -1.950   0.273  0.00  0.00    +0.002 C 
BRANCH  28  29
ATOM     29  C   UNL     1      -6.124  -1.544   1.174  0.00  0.00    -0.000 C 
BRANCH  29  31
ATOM     30  C   UNL     1      -7.397   0.387   2.119  0.00  0.00    +0.004 C 
ATOM     31  C   UNL     1      -6.229  -0.018   1.218  0.00  0.00    -0.003 C 
ENDBRANCH  29  31
ENDBRANCH  28  29
ENDBRANCH  27  28
ENDBRANCH  26  27
ENDBRANCH  23  26
BRANCH  24  32
ATOM     32  C   UNL     1      -2.009  -5.154   1.227  0.00  0.00    +0.233 C 
BRANCH  32  33
ATOM     33  C   UNL     1      -0.649  -4.846   0.656  0.00  0.00    -0.010 A 
ATOM     34  C   UNL     1       0.212  -5.876   0.327  0.00  0.00    +0.006 A 
ATOM     35  C   UNL     1       1.460  -5.594  -0.197  0.00  0.00    +0.000 A 
ATOM     36  C   UNL     1       1.846  -4.281  -0.392  0.00  0.00    +0.000 A 
ATOM     37  C   UNL     1       0.984  -3.251  -0.064  0.00  0.00    +0.000 A 
ATOM     38  C   UNL     1      -0.265  -3.534   0.456  0.00  0.00    +0.006 A 
ENDBRANCH  32  33
BRANCH  32  39
ATOM     39  O   UNL     1      -1.860  -5.901   2.436  0.00  0.00    -0.366 OA
ATOM     40  C   UNL     1      -2.906  -5.685   3.386  0.00  0.00    +0.195 C 
ENDBRANCH  32  39
ENDBRANCH  24  32
ENDBRANCH   1  23
TORSDOF 14
