REMARK  Name = ZINC41415040
REMARK  3 active torsions:
REMARK  status: ('A' for Active; 'I' for Inactive)
REMARK    1  A    between atoms: C_5  and  N_8
REMARK    2  A    between atoms: N_8  and  S_9
REMARK    3  A    between atoms: S_9  and  C_12
REMARK                            x       y       z     vdW  Elec       q    Type
REMARK                         _______ _______ _______ _____ _____    ______ ____
ROOT
ATOM      1  S   UNL     1       3.070  -2.256  -2.702  0.00  0.00    +0.084 S 
ATOM      2  O   UNL     1       2.588  -2.990  -1.585  0.00  0.00    -0.151 OA
ATOM      3  O   UNL     1       3.332  -2.865  -3.959  0.00  0.00    -0.151 OA
ENDROOT
BRANCH   1   4
ATOM      4  C   UNL     1       4.572  -1.490  -2.191  0.00  0.00    +0.256 A 
ATOM      5  N   UNL     1       4.835  -0.222  -1.946  0.00  0.00    -0.119 NA
ATOM      6  N   UNL     1       5.978   0.169  -1.583  0.00  0.00    -0.125 NA
ATOM      7  C   UNL     1       6.989  -0.676  -1.424  0.00  0.00    +0.181 A 
ATOM      8  S   UNL     1       6.174  -2.213  -1.847  0.00  0.00    -0.011 S 
ATOM      9  N   UNL     1       8.299  -0.437  -1.037  0.00  0.00    -0.336 N 
ATOM     10  H   UNL     1       8.588   0.466  -0.835  0.00  0.00    +0.144 HD
ATOM     11  H   UNL     1       8.926  -1.174  -0.967  0.00  0.00    +0.144 HD
ENDBRANCH   1   4
BRANCH   1  12
ATOM     12  N   UNL     1       1.974  -1.046  -2.982  0.00  0.00    -0.185 NA
ATOM     13  H   UNL     1       1.641  -0.891  -3.880  0.00  0.00    +0.148 HD
BRANCH  12  18
ATOM     14  C   UNL     1      -0.269   1.253   0.071  0.00  0.00    +0.000 C 
ATOM     15  C   UNL     1       1.112   1.848   0.121  0.00  0.00    +0.000 C 
ATOM     16  C   UNL     1       1.632   2.247  -1.273  0.00  0.00    +0.002 C 
ATOM     17  C   UNL     1       1.304   1.201  -2.356  0.00  0.00    +0.020 C 
ATOM     18  C   UNL     1       1.507  -0.210  -1.874  0.00  0.00    +0.077 C 
ATOM     19  C   UNL     1       0.160  -0.748  -1.351  0.00  0.00    +0.020 C 
ATOM     20  C   UNL     1      -0.139  -0.282  -0.004  0.00  0.00    +0.002 C 
ENDBRANCH  12  18
ENDBRANCH   1  12
TORSDOF 3
