REMARK  Name = ZINC04606677
REMARK  5 active torsions:
REMARK  status: ('A' for Active; 'I' for Inactive)
REMARK    1  A    between atoms: C_4  and  N_25
REMARK    2  A    between atoms: C_5  and  C_7
REMARK    3  A    between atoms: N_8  and  N_9
REMARK    4  A    between atoms: C_10  and  C_12
REMARK    5  A    between atoms: C_12  and  C_13
REMARK                            x       y       z     vdW  Elec       q    Type
REMARK                         _______ _______ _______ _____ _____    ______ ____
ROOT
ATOM      1  N   UNL     1      -0.006   0.001  -0.126  0.00  0.00    -0.207 N 
ATOM      2  C   UNL     1      -0.027   1.348  -0.162  0.00  0.00    +0.234 C 
ATOM      3  O   UNL     1      -1.087   1.938  -0.168  0.00  0.00    -0.274 OA
ATOM      4  H   UNL     1       0.842  -0.471  -0.125  0.00  0.00    +0.177 HD
ENDROOT
BRANCH   1   6
ATOM      5  C   UNL     1      -1.187  -2.015  -0.055  0.00  0.00    +0.140 C 
ATOM      6  N   UNL     1      -1.208  -0.718  -0.090  0.00  0.00    -0.188 NA
BRANCH   5  11
ATOM      7  C   UNL     1      -4.850  -2.811   0.132  0.00  0.00    +0.001 A 
ATOM      8  C   UNL     1      -4.829  -4.192   0.053  0.00  0.00    +0.002 A 
ATOM      9  C   UNL     1      -3.626  -4.867  -0.061  0.00  0.00    +0.033 A 
ATOM     10  C   UNL     1      -2.439  -4.166  -0.097  0.00  0.00    +0.135 A 
ATOM     11  C   UNL     1      -2.453  -2.771  -0.018  0.00  0.00    +0.025 A 
ATOM     12  C   UNL     1      -3.670  -2.097   0.103  0.00  0.00    +0.012 A 
BRANCH  10  13
ATOM     13  N   UNL     1      -1.153  -4.889  -0.219  0.00  0.00    +0.057 N 
ATOM     14  O   UNL     1      -1.147  -6.093  -0.404  0.00  0.00    -0.126 OA
ATOM     15  O   UNL     1      -0.102  -4.281  -0.135  0.00  0.00    -0.126 OA
ENDBRANCH  10  13
ENDBRANCH   5  11
ENDBRANCH   1   6
BRANCH   2  16
ATOM     16  C   UNL     1       1.266   2.122  -0.200  0.00  0.00    +0.121 C 
BRANCH  16  17
ATOM     17  C   UNL     1       0.963   3.621  -0.236  0.00  0.00    +0.146 C 
ATOM     18  C   UNL     1       2.247   4.395  -0.386  0.00  0.00    +0.231 C 
ATOM     19  O   UNL     1       2.564   4.778  -1.492  0.00  0.00    -0.274 OA
ATOM     20  N   UNL     1       3.049   4.677   0.635  0.00  0.00    -0.284 N 
ATOM     21  C   UNL     1       2.804   4.422   1.981  0.00  0.00    +0.047 A 
ATOM     22  C   UNL     1       3.858   4.475   2.887  0.00  0.00    +0.024 A 
ATOM     23  C   UNL     1       3.639   4.220   4.226  0.00  0.00    +0.002 A 
ATOM     24  C   UNL     1       2.369   3.917   4.684  0.00  0.00    +0.001 A 
ATOM     25  C   UNL     1       1.309   3.878   3.797  0.00  0.00    +0.016 A 
ATOM     26  C   UNL     1       1.523   4.138   2.453  0.00  0.00    +0.030 A 
ATOM     27  S   UNL     1       0.167   4.122   1.321  0.00  0.00    -0.110 S 
ATOM     28  H   UNL     1       3.892   5.106   0.420  0.00  0.00    +0.155 HD
ENDBRANCH  16  17
ENDBRANCH   2  16
TORSDOF 5
