REMARK  Name = ZINC39852041
REMARK  9 active torsions:
REMARK  status: ('A' for Active; 'I' for Inactive)
REMARK    1  A    between atoms: C_1  and  C_2
REMARK    2  A    between atoms: C_2  and  C_3
REMARK    3  A    between atoms: C_3  and  C_4
REMARK    4  A    between atoms: C_4  and  N_5
REMARK    5  A    between atoms: N_8  and  S_9
REMARK    6  A    between atoms: S_9  and  C_12
REMARK    7  A    between atoms: C_15  and  N_18
REMARK    8  A    between atoms: C_19  and  C_21
REMARK    9  A    between atoms: C_22  and  C_34
REMARK                            x       y       z     vdW  Elec       q    Type
REMARK                         _______ _______ _______ _____ _____    ______ ____
ROOT
ATOM      1  C   UNL     1       3.316  -6.117   5.442  0.00  0.00    +0.113 A 
ATOM      2  C   UNL     1       4.441  -6.921   5.472  0.00  0.00    +0.031 A 
ATOM      3  C   UNL     1       5.142  -7.086   6.650  0.00  0.00    +0.025 A 
ATOM      4  C   UNL     1       4.716  -6.444   7.806  0.00  0.00    +0.034 A 
ATOM      5  C   UNL     1       3.586  -5.637   7.772  0.00  0.00    +0.025 A 
ATOM      6  C   UNL     1       2.892  -5.472   6.590  0.00  0.00    +0.031 A 
ENDROOT
BRANCH   4   7
ATOM      7  N   UNL     1       5.423  -6.609   9.001  0.00  0.00    -0.279 N 
ATOM      8  C   UNL     1       4.768  -6.607  10.178  0.00  0.00    +0.284 C 
ATOM      9  O   UNL     1       3.552  -6.558  10.197  0.00  0.00    -0.266 OA
ATOM     10  H   UNL     1       6.386  -6.726   8.982  0.00  0.00    +0.155 HD
BRANCH   8  11
ATOM     11  C   UNL     1       5.519  -6.665  11.436  0.00  0.00    +0.193 A 
ATOM     12  C   UNL     1       4.980  -6.674  12.693  0.00  0.00    +0.005 A 
ATOM     13  C   UNL     1       6.051  -6.734  13.587  0.00  0.00    +0.023 A 
ATOM     14  C   UNL     1       7.192  -6.757  12.847  0.00  0.00    +0.112 A 
ATOM     15  O   UNL     1       6.863  -6.723  11.555  0.00  0.00    -0.454 OA
ATOM     16  C   UNL     1       8.574  -6.817  13.452  0.00  0.00    +0.075 C 
ATOM     17  C   UNL     1       8.492  -6.387  14.920  0.00  0.00    +0.010 C 
ATOM     18  C   UNL     1       7.389  -7.178  15.632  0.00  0.00    +0.034 C 
ATOM     19  C   UNL     1       6.032  -6.769  15.081  0.00  0.00    +0.090 C 
ATOM     20  S   UNL     1       4.726  -7.902  15.683  0.00  0.00    -0.138 S 
ATOM     21  C   UNL     1       4.044  -6.993  17.127  0.00  0.00    +0.081 C 
ATOM     22  C   UNL     1       3.965  -5.513  16.673  0.00  0.00    +0.081 C 
ATOM     23  S   UNL     1       5.514  -5.157  15.766  0.00  0.00    -0.138 S 
ATOM     24  C   UNL     1       3.515  -6.629  13.045  0.00  0.00    +0.048 C 
ENDBRANCH   8  11
ENDBRANCH   4   7
BRANCH   1  25
ATOM     25  S   UNL     1       2.424  -5.909   3.937  0.00  0.00    +0.103 S 
ATOM     26  O   UNL     1       1.100  -5.539   4.296  0.00  0.00    -0.146 OA
ATOM     27  O   UNL     1       2.706  -7.049   3.137  0.00  0.00    -0.146 OA
BRANCH  25  31
ATOM     28  N   UNL     1       3.153  -3.151   1.353  0.00  0.00    -0.295 N 
ATOM     29  C   UNL     1       2.607  -4.231   2.003  0.00  0.00    +0.351 C 
ATOM     30  O   UNL     1       1.574  -4.902   1.447  0.00  0.00    -0.246 OA
ATOM     31  N   UNL     1       3.083  -4.607   3.153  0.00  0.00    -0.072 NA
ATOM     32  H   UNL     1       3.894  -2.669   1.752  0.00  0.00    +0.151 HD
BRANCH  28  33
ATOM     33  C   UNL     1       2.616  -2.727   0.058  0.00  0.00    +0.106 C 
BRANCH  33  34
ATOM     34  C   UNL     1       3.397  -1.511  -0.445  0.00  0.00    +0.018 C 
BRANCH  34  36
ATOM     35  C   UNL     1       3.618   0.148  -2.300  0.00  0.00    +0.004 C 
ATOM     36  C   UNL     1       2.837  -1.068  -1.798  0.00  0.00    -0.002 C 
ENDBRANCH  34  36
ENDBRANCH  33  34
ENDBRANCH  28  33
ENDBRANCH  25  31
ENDBRANCH   1  25
TORSDOF 7
