REMARK  Name = ZINC66926712
REMARK  7 active torsions:
REMARK  status: ('A' for Active; 'I' for Inactive)
REMARK    1  A    between atoms: C_1  and  C_2
REMARK    2  A    between atoms: C_2  and  C_4
REMARK    3  A    between atoms: C_2  and  N_10
REMARK    4  A    between atoms: N_8  and  C_9
REMARK    5  A    between atoms: C_16  and  N_19
REMARK    6  A    between atoms: C_20  and  C_22
REMARK    7  A    between atoms: C_22  and  C_23
REMARK                            x       y       z     vdW  Elec       q    Type
REMARK                         _______ _______ _______ _____ _____    ______ ____
ROOT
ATOM      1  N   UNL     1       0.688  -0.476  -1.204  0.00  0.00    -0.290 N 
ATOM      2  C   UNL     1       0.006  -0.608  -2.358  0.00  0.00    +0.303 C 
ATOM      3  O   UNL     1      -1.195  -0.423  -2.380  0.00  0.00    -0.253 OA
ATOM      4  N   UNL     1       0.656  -0.945  -3.490  0.00  0.00    -0.286 N 
ATOM      5  C   UNL     1       2.086  -1.285  -3.459  0.00  0.00    +0.111 C 
ATOM      6  C   UNL     1       2.822  -0.410  -4.478  0.00  0.00    +0.041 C 
ATOM      7  C   UNL     1       2.167  -0.572  -5.852  0.00  0.00    +0.076 C 
ATOM      8  C   UNL     1       0.710  -0.109  -5.782  0.00  0.00    +0.041 C 
ATOM      9  C   UNL     1      -0.052  -0.986  -4.777  0.00  0.00    +0.111 C 
ATOM     10  H   UNL     1       1.632  -0.694  -1.170  0.00  0.00    +0.151 HD
ENDROOT
BRANCH   7  11
ATOM     11  N   UNL     1       2.890   0.237  -6.836  0.00  0.00    -0.312 N 
ATOM     12  C   UNL     1       2.854  -0.098  -8.141  0.00  0.00    +0.214 C 
ATOM     13  O   UNL     1       2.224  -1.069  -8.501  0.00  0.00    -0.276 OA
ATOM     14  H   UNL     1       3.394   1.014  -6.548  0.00  0.00    +0.149 HD
BRANCH  12  15
ATOM     15  C   UNL     1       3.598   0.735  -9.153  0.00  0.00    +0.099 C 
BRANCH  15  16
ATOM     16  C   UNL     1       3.395   0.143 -10.549  0.00  0.00    -0.002 C 
ATOM     17  C   UNL     1       4.039  -1.243 -10.614  0.00  0.00    +0.004 C 
ATOM     18  C   UNL     1       3.836  -1.835 -12.009  0.00  0.00    +0.000 C 
ATOM     19  C   UNL     1       4.486  -0.922 -13.051  0.00  0.00    +0.000 C 
ATOM     20  C   UNL     1       3.841   0.464 -12.986  0.00  0.00    +0.000 C 
ATOM     21  C   UNL     1       4.045   1.057 -11.590  0.00  0.00    +0.004 C 
ENDBRANCH  15  16
ENDBRANCH  12  15
ENDBRANCH   7  11
BRANCH   1  23
ATOM     22  C   UNL     1      -0.018   1.528   0.008  0.00  0.00    +0.036 C 
ATOM     23  C   UNL     1       0.003  -0.002   0.001  0.00  0.00    +0.139 C 
BRANCH  23  24
ATOM     24  C   UNL     1       0.731  -0.500   1.223  0.00  0.00    +0.153 A 
ATOM     25  N   UNL     1       2.022  -0.480   1.415  0.00  0.00    -0.133 NA
ATOM     26  N   UNL     1       2.296  -0.983   2.566  0.00  0.00    -0.138 NA
ATOM     27  C   UNL     1       1.192  -1.347   3.161  0.00  0.00    +0.224 A 
ATOM     28  N   UNL     1       0.168  -1.046   2.327  0.00  0.00    -0.319 N 
ATOM     29  C   UNL     1      -1.260  -1.269   2.569  0.00  0.00    +0.151 C 
ENDBRANCH  23  24
ENDBRANCH   1  23
TORSDOF 5
