REMARK  Name = ZINC22506148
REMARK  7 active torsions:
REMARK  status: ('A' for Active; 'I' for Inactive)
REMARK    1  A    between atoms: C_1  and  O_2
REMARK    2  A    between atoms: O_2  and  C_3
REMARK    3  A    between atoms: C_6  and  N_26
REMARK    4  A    between atoms: C_8  and  N_9
REMARK    5  A    between atoms: N_12  and  C_13
REMARK    6  A    between atoms: C_13  and  C_14
REMARK    7  A    between atoms: C_13  and  C_20
REMARK                            x       y       z     vdW  Elec       q    Type
REMARK                         _______ _______ _______ _____ _____    ______ ____
ROOT
ATOM      1  N   UNL     1       2.364   3.894   0.000  0.00  0.00    -0.266 N 
ATOM      2  C   UNL     1       2.346   5.238  -0.094  0.00  0.00    +0.305 C 
ATOM      3  O   UNL     1       1.287   5.835  -0.082  0.00  0.00    -0.252 OA
ATOM      4  N   UNL     1       3.503   5.921  -0.203  0.00  0.00    -0.288 N 
ATOM      5  H   UNL     1       3.323   3.359   0.063  0.00  0.00    +0.156 HD
ATOM      6  H   UNL     1       4.462   5.381  -0.214  0.00  0.00    +0.151 HD
ENDROOT
BRANCH   1  12
ATOM      7  C   UNL     1       1.085   1.923  -0.582  0.00  0.00    +0.141 A 
ATOM      8  C   UNL     1      -0.106   1.216  -0.563  0.00  0.00    +0.049 A 
ATOM      9  C   UNL     1      -1.222   1.755   0.048  0.00  0.00    +0.028 A 
ATOM     10  C   UNL     1      -1.151   3.003   0.653  0.00  0.00    +0.053 A 
ATOM     11  C   UNL     1       0.040   3.715   0.636  0.00  0.00    +0.051 A 
ATOM     12  C   UNL     1       1.159   3.177   0.019  0.00  0.00    +0.079 A 
BRANCH  10  13
ATOM     13  N   UNL     1      -2.281   3.544   1.275  0.00  0.00    -0.207 N 
ATOM     14  C   UNL     1      -2.305   4.540   2.361  0.00  0.00    +0.133 C 
ATOM     15  C   UNL     1      -3.586   5.397   2.287  0.00  0.00    +0.045 C 
ATOM     16  C   UNL     1      -4.740   4.375   2.058  0.00  0.00    +0.190 C 
ATOM     17  S   UNL     1      -3.885   3.188   0.943  0.00  0.00    +0.046 S 
ATOM     18  O   UNL     1      -4.079   3.548  -0.418  0.00  0.00    -0.155 OA
ATOM     19  O   UNL     1      -4.077   1.852   1.386  0.00  0.00    -0.155 OA
ENDBRANCH  10  13
BRANCH   7  21
ATOM     20  C   UNL     1       2.034   0.103  -1.785  0.00  0.00    +0.277 C 
ATOM     21  O   UNL     1       2.182   1.393  -1.189  0.00  0.00    -0.493 OA
ENDBRANCH   7  21
ENDBRANCH   1  12
BRANCH   4  22
ATOM     22  C   UNL     1       3.484   7.382  -0.306  0.00  0.00    +0.135 C 
BRANCH  22  23
ATOM     23  C   UNL     1       4.795   7.938   0.190  0.00  0.00    -0.023 A 
ATOM     24  C   UNL     1       5.978   7.292  -0.115  0.00  0.00    +0.006 A 
ATOM     25  C   UNL     1       7.181   7.805   0.335  0.00  0.00    +0.000 A 
ATOM     26  C   UNL     1       7.198   8.957   1.099  0.00  0.00    +0.000 A 
ATOM     27  C   UNL     1       6.014   9.599   1.408  0.00  0.00    +0.000 A 
ATOM     28  C   UNL     1       4.812   9.090   0.954  0.00  0.00    +0.006 A 
ENDBRANCH  22  23
BRANCH  22  29
ATOM     29  C   UNL     1       3.281   7.782  -1.745  0.00  0.00    -0.023 A 
ATOM     30  C   UNL     1       3.923   7.087  -2.752  0.00  0.00    +0.006 A 
ATOM     31  C   UNL     1       3.733   7.450  -4.072  0.00  0.00    +0.000 A 
ATOM     32  C   UNL     1       2.909   8.515  -4.384  0.00  0.00    +0.000 A 
ATOM     33  C   UNL     1       2.271   9.214  -3.376  0.00  0.00    +0.000 A 
ATOM     34  C   UNL     1       2.457   8.847  -2.057  0.00  0.00    +0.006 A 
ENDBRANCH  22  29
ENDBRANCH   4  22
TORSDOF 6
