REMARK  Name = ZINC41549380
REMARK  4 active torsions:
REMARK  status: ('A' for Active; 'I' for Inactive)
REMARK    1  A    between atoms: C_1  and  C_2
REMARK    2  A    between atoms: C_2  and  C_14
REMARK    3  A    between atoms: C_20  and  C_22
REMARK    4  A    between atoms: C_22  and  C_23
REMARK                            x       y       z     vdW  Elec       q    Type
REMARK                         _______ _______ _______ _____ _____    ______ ____
ROOT
ATOM      1  C   UNL     1       0.709  -0.489  -1.237  0.00  0.00    +0.272 C 
ATOM      2  O   UNL     1       0.070  -0.781  -2.226  0.00  0.00    -0.270 OA
ATOM      3  N   UNL     1       2.053  -0.599  -1.247  0.00  0.00    -0.260 N 
ATOM      4  C   UNL     1       2.705  -1.047  -2.390  0.00  0.00    +0.188 A 
ATOM      5  N   UNL     1       2.196  -1.403  -3.553  0.00  0.00    -0.126 NA
ATOM      6  N   UNL     1       2.923  -1.793  -4.510  0.00  0.00    -0.144 NA
ATOM      7  C   UNL     1       4.229  -1.846  -4.342  0.00  0.00    +0.108 A 
ATOM      8  S   UNL     1       4.355  -1.270  -2.655  0.00  0.00    -0.035 S 
ATOM      9  H   UNL     1       2.564  -0.366  -0.456  0.00  0.00    +0.157 HD
ENDROOT
BRANCH   1  11
ATOM     10  C   UNL     1      -0.019   1.526   0.010  0.00  0.00    +0.076 C 
ATOM     11  C   UNL     1       0.002  -0.004   0.002  0.00  0.00    +0.258 C 
ATOM     12  C   UNL     1      -1.413  -0.525   0.008  0.00  0.00    +0.270 C 
ATOM     13  O   UNL     1      -2.310   0.144  -0.460  0.00  0.00    -0.271 OA
ATOM     14  N   UNL     1      -1.677  -1.739   0.535  0.00  0.00    -0.279 N 
ATOM     15  C   UNL     1      -0.651  -2.442   1.182  0.00  0.00    +0.077 A 
ATOM     16  C   UNL     1      -0.820  -3.772   1.531  0.00  0.00    +0.047 A 
ATOM     17  C   UNL     1       0.207  -4.455   2.158  0.00  0.00    +0.043 A 
ATOM     18  C   UNL     1       1.401  -3.813   2.436  0.00  0.00    +0.024 A 
ATOM     19  C   UNL     1       1.573  -2.484   2.094  0.00  0.00    +0.049 A 
ATOM     20  C   UNL     1       0.547  -1.793   1.472  0.00  0.00    +0.144 A 
ATOM     21  O   UNL     1       0.694  -0.477   1.160  0.00  0.00    -0.465 OA
ATOM     22 CL   UNL     1      -0.003  -6.121   2.597  0.00  0.00    -0.083 Cl
ATOM     23  H   UNL     1      -2.566  -2.121   0.467  0.00  0.00    +0.155 HD
ENDBRANCH   1  11
BRANCH   7  24
ATOM     24  C   UNL     1       5.311  -2.267  -5.303  0.00  0.00    +0.107 C 
BRANCH  24  25
ATOM     25  C   UNL     1       5.786  -1.068  -6.082  0.00  0.00    -0.004 A 
ATOM     26  C   UNL     1       6.786  -0.201  -5.790  0.00  0.00    +0.011 A 
ATOM     27  C   UNL     1       7.048   0.839  -6.662  0.00  0.00    +0.008 A 
ATOM     28  C   UNL     1       6.296   0.961  -7.784  0.00  0.00    +0.045 A 
ATOM     29  S   UNL     1       5.181  -0.425  -7.634  0.00  0.00    -0.101 S 
ENDBRANCH  24  25
ENDBRANCH   7  24
TORSDOF 3
