REMARK  Name = ZINC13186898
REMARK  8 active torsions:
REMARK  status: ('A' for Active; 'I' for Inactive)
REMARK    1  A    between atoms: C_1  and  C_2
REMARK    2  A    between atoms: C_2  and  C_17
REMARK    3  A    between atoms: N_3  and  N_4
REMARK    4  A    between atoms: C_5  and  C_7
REMARK    5  A    between atoms: N_9  and  C_16
REMARK    6  A    between atoms: C_20  and  S_23
REMARK    7  A    between atoms: S_23  and  N_26
REMARK    8  A    between atoms: C_29  and  C_32
REMARK                            x       y       z     vdW  Elec       q    Type
REMARK                         _______ _______ _______ _____ _____    ______ ____
ROOT
ATOM      1  C   UNL     1       5.819  -2.000  -0.066  0.00  0.00    -0.002 A 
ATOM      2  C   UNL     1       6.129  -3.362  -0.070  0.00  0.00    +0.011 A 
ATOM      3  C   UNL     1       7.448  -3.766  -0.089  0.00  0.00    +0.029 A 
ATOM      4  C   UNL     1       8.463  -2.825  -0.095  0.00  0.00    +0.106 A 
ATOM      5  C   UNL     1       8.163  -1.474  -0.085  0.00  0.00    +0.029 A 
ATOM      6  C   UNL     1       6.849  -1.056  -0.071  0.00  0.00    +0.011 A 
ENDROOT
BRANCH   1   8
ATOM      7  C   UNL     1       3.303  -2.582  -0.044  0.00  0.00    +0.068 C 
ATOM      8  C   UNL     1       4.411  -1.561  -0.049  0.00  0.00    +0.063 C 
ATOM      9  N   UNL     1       4.127  -0.294  -0.040  0.00  0.00    -0.184 NA
BRANCH   9  10
ATOM     10  N   UNL     1       2.790   0.123  -0.024  0.00  0.00    -0.203 N 
ATOM     11  C   UNL     1       2.494   1.438  -0.015  0.00  0.00    +0.265 C 
ATOM     12  O   UNL     1       3.389   2.263  -0.019  0.00  0.00    -0.268 OA
ATOM     13  H   UNL     1       2.076  -0.534  -0.021  0.00  0.00    +0.178 HD
BRANCH  11  14
ATOM     14  C   UNL     1       1.092   1.875   0.002  0.00  0.00    +0.064 A 
ATOM     15  C   UNL     1      -0.013   1.076   0.008  0.00  0.00    +0.099 A 
ATOM     16  N   UNL     1      -1.131   1.840   0.017  0.00  0.00    -0.349 N 
ATOM     17  C   UNL     1      -0.800   3.179   0.027  0.00  0.00    +0.050 A 
ATOM     18  C   UNL     1       0.602   3.266   0.014  0.00  0.00    +0.012 A 
ATOM     19  C   UNL     1       1.224   4.511   0.014  0.00  0.00    +0.011 A 
ATOM     20  C   UNL     1       0.459   5.657   0.027  0.00  0.00    +0.001 A 
ATOM     21  C   UNL     1      -0.926   5.573   0.040  0.00  0.00    +0.002 A 
ATOM     22  C   UNL     1      -1.555   4.347   0.040  0.00  0.00    +0.026 A 
ATOM     23  C   UNL     1      -2.500   1.318   0.020  0.00  0.00    +0.149 C 
ENDBRANCH  11  14
ENDBRANCH   9  10
ENDBRANCH   1   8
BRANCH   4  24
ATOM     24  S   UNL     1      10.145  -3.350  -0.114  0.00  0.00    +0.061 S 
ATOM     25  O   UNL     1      10.156  -4.657  -0.671  0.00  0.00    -0.153 OA
ATOM     26  O   UNL     1      10.898  -2.280  -0.667  0.00  0.00    -0.153 OA
BRANCH  24  27
ATOM     27  N   UNL     1      10.627  -3.504   1.463  0.00  0.00    -0.177 NA
ATOM     28  C   UNL     1      11.228  -2.369   2.176  0.00  0.00    +0.110 C 
ATOM     29  C   UNL     1      12.569  -2.803   2.764  0.00  0.00    +0.032 C 
ATOM     30  C   UNL     1      12.364  -4.051   3.627  0.00  0.00    +0.105 C 
ATOM     31  C   UNL     1      11.823  -5.190   2.760  0.00  0.00    +0.032 C 
ATOM     32  C   UNL     1      10.469  -4.780   2.173  0.00  0.00    +0.110 C 
BRANCH  30  33
ATOM     33  C   UNL     1      13.681  -4.463   4.233  0.00  0.00    +0.359 C 
ATOM     34  O   UNL     1      14.139  -5.556   3.996  0.00  0.00    -0.246 OA
ATOM     35  O   UNL     1      14.344  -3.617   5.037  0.00  0.00    -0.246 OA
ENDBRANCH  30  33
ENDBRANCH  24  27
ENDBRANCH   4  24
TORSDOF 6
