REMARK  Name = ZINC24556735
REMARK  6 active torsions:
REMARK  status: ('A' for Active; 'I' for Inactive)
REMARK    1  A    between atoms: C_1  and  C_2
REMARK    2  A    between atoms: C_5  and  C_9
REMARK    3  A    between atoms: C_6  and  C_8
REMARK    4  A    between atoms: N_11  and  N_12
REMARK    5  A    between atoms: C_13  and  C_15
REMARK    6  A    between atoms: N_20  and  C_22
REMARK                            x       y       z     vdW  Elec       q    Type
REMARK                         _______ _______ _______ _____ _____    ______ ____
ROOT
ATOM      1  N   UNL     1      -2.751  -7.038   3.369  0.00  0.00    -0.234 N 
ATOM      2  C   UNL     1      -1.841  -6.789   2.406  0.00  0.00    +0.234 C 
ATOM      3  O   UNL     1      -0.681  -6.601   2.702  0.00  0.00    -0.274 OA
ATOM      4  H   UNL     1      -3.804  -7.209   3.100  0.00  0.00    +0.173 HD
ENDROOT
BRANCH   2   5
ATOM      5  C   UNL     1      -2.267  -6.744   0.961  0.00  0.00    +0.103 C 
ATOM      6  C   UNL     1      -3.302  -5.620   0.723  0.00  0.00    +0.110 C 
ATOM      7  C   UNL     1      -2.468  -4.433   0.293  0.00  0.00    +0.221 C 
ATOM      8  O   UNL     1      -2.853  -3.283   0.279  0.00  0.00    -0.275 OA
ATOM      9  N   UNL     1      -1.239  -4.838  -0.070  0.00  0.00    -0.271 N 
ATOM     10  C   UNL     1      -1.101  -6.295   0.049  0.00  0.00    +0.127 C 
BRANCH   9  11
ATOM     11  C   UNL     1      -0.222  -3.982  -0.512  0.00  0.00    +0.040 A 
ATOM     12  C   UNL     1      -0.488  -2.633  -0.709  0.00  0.00    +0.027 A 
ATOM     13  C   UNL     1       0.514  -1.787  -1.143  0.00  0.00    +0.051 A 
ATOM     14  C   UNL     1       1.786  -2.281  -1.383  0.00  0.00    +0.166 A 
ATOM     15  C   UNL     1       2.055  -3.633  -1.187  0.00  0.00    +0.168 A 
ATOM     16  C   UNL     1       1.050  -4.481  -0.752  0.00  0.00    +0.073 A 
ATOM     17  O   UNL     1       3.366  -3.866  -1.489  0.00  0.00    -0.453 OA
ATOM     18  C   UNL     1       3.790  -2.728  -2.262  0.00  0.00    +0.466 C 
ATOM     19  O   UNL     1       2.929  -1.666  -1.809  0.00  0.00    -0.453 OA
ENDBRANCH   9  11
ENDBRANCH   2   5
BRANCH   1  22
ATOM     20  C   UNL     1      -3.265  -7.329   5.675  0.00  0.00    +0.260 C 
ATOM     21  O   UNL     1      -4.429  -7.518   5.378  0.00  0.00    -0.269 OA
ATOM     22  N   UNL     1      -2.356  -7.080   4.712  0.00  0.00    -0.230 N 
ATOM     23  H   UNL     1      -1.303  -6.909   4.981  0.00  0.00    +0.173 HD
BRANCH  20  28
ATOM     24  C   UNL     1      -1.641  -7.502  11.193  0.00  0.00    +0.044 C 
ATOM     25  C   UNL     1      -2.066  -7.456   9.748  0.00  0.00    -0.050 A 
ATOM     26  C   UNL     1      -1.142  -7.142   8.767  0.00  0.00    +0.004 A 
ATOM     27  C   UNL     1      -1.524  -7.104   7.442  0.00  0.00    +0.013 A 
ATOM     28  C   UNL     1      -2.848  -7.373   7.093  0.00  0.00    +0.041 A 
ATOM     29  C   UNL     1      -3.775  -7.689   8.086  0.00  0.00    -0.038 A 
ATOM     30  C   UNL     1      -3.379  -7.729   9.408  0.00  0.00    +0.007 A 
ATOM     31  C   UNL     1      -5.206  -7.987   7.718  0.00  0.00    +0.044 C 
ENDBRANCH  20  28
ENDBRANCH   1  22
TORSDOF 4
