REMARK  Name = ZINC17089212
REMARK  8 active torsions:
REMARK  status: ('A' for Active; 'I' for Inactive)
REMARK    1  A    between atoms: C_1  and  C_2
REMARK    2  A    between atoms: C_2  and  C_3
REMARK    3  A    between atoms: C_2  and  C_4
REMARK    4  A    between atoms: C_6  and  C_22
REMARK    5  A    between atoms: C_7  and  N_9
REMARK    6  A    between atoms: C_10  and  C_12
REMARK    7  A    between atoms: C_18  and  C_20
REMARK    8  A    between atoms: N_24  and  C_25
REMARK                            x       y       z     vdW  Elec       q    Type
REMARK                         _______ _______ _______ _____ _____    ______ ____
ROOT
ATOM      1  C   UNL     1       1.150   7.733   0.217  0.00  0.00    -0.005 A 
ATOM      2  C   UNL     1       1.085   6.443  -0.159  0.00  0.00    +0.026 A 
ATOM      3  C   UNL     1       2.329   5.715  -0.238  0.00  0.00    +0.066 A 
ATOM      4  C   UNL     1       3.484   6.416   0.089  0.00  0.00    +0.084 A 
ATOM      5  S   UNL     1       2.892   7.997   0.474  0.00  0.00    -0.077 S 
ENDROOT
BRANCH   4   6
ATOM      6  N   UNL     1       4.794   5.960   0.101  0.00  0.00    -0.279 N 
ATOM      7  C   UNL     1       5.794   6.794   0.449  0.00  0.00    +0.222 C 
ATOM      8  O   UNL     1       5.549   7.942   0.751  0.00  0.00    -0.275 OA
ATOM      9  H   UNL     1       4.990   5.042  -0.141  0.00  0.00    +0.155 HD
BRANCH   7  10
ATOM     10  C   UNL     1       7.218   6.298   0.462  0.00  0.00    +0.093 C 
ATOM     11  C   UNL     1       8.153   7.408  -0.024  0.00  0.00    +0.040 C 
ATOM     12  C   UNL     1       8.233   8.501   1.001  0.00  0.00    -0.030 C 
ATOM     13  C   UNL     1       7.869   8.367   2.236  0.00  0.00    -0.030 C 
ATOM     14  C   UNL     1       7.307   7.101   2.813  0.00  0.00    +0.042 C 
ATOM     15  C   UNL     1       7.618   5.918   1.893  0.00  0.00    +0.118 C 
BRANCH  15  16
ATOM     16  C   UNL     1       6.831   4.712   2.335  0.00  0.00    +0.360 C 
ATOM     17  O   UNL     1       6.030   4.204   1.586  0.00  0.00    -0.246 OA
ATOM     18  O   UNL     1       7.019   4.200   3.562  0.00  0.00    -0.246 OA
ENDBRANCH  15  16
ENDBRANCH   7  10
ENDBRANCH   4   6
BRANCH   3  19
ATOM     19  C   UNL     1       2.372   4.305  -0.636  0.00  0.00    +0.251 C 
ATOM     20  O   UNL     1       3.438   3.721  -0.692  0.00  0.00    -0.270 OA
ATOM     21  N   UNL     1       1.231   3.656  -0.941  0.00  0.00    -0.281 N 
ATOM     22  H   UNL     1       0.389   4.138  -0.959  0.00  0.00    +0.155 HD
BRANCH  21  23
ATOM     23  C   UNL     1       1.260   2.288  -1.231  0.00  0.00    +0.034 A 
ATOM     24  C   UNL     1       2.179   1.462  -0.597  0.00  0.00    +0.023 A 
ATOM     25  C   UNL     1       2.206   0.112  -0.885  0.00  0.00    +0.002 A 
ATOM     26  C   UNL     1       1.317  -0.418  -1.803  0.00  0.00    +0.000 A 
ATOM     27  C   UNL     1       0.401   0.402  -2.436  0.00  0.00    +0.002 A 
ATOM     28  C   UNL     1       0.370   1.753  -2.153  0.00  0.00    +0.023 A 
ENDBRANCH  21  23
ENDBRANCH   3  19
BRANCH   1  30
ATOM     29  C   UNL     1      -0.014   9.218   1.826  0.00  0.00    +0.013 C 
ATOM     30  C   UNL     1       0.021   8.717   0.380  0.00  0.00    +0.020 C 
ATOM     31  C   UNL     1       0.236   9.901  -0.564  0.00  0.00    +0.013 C 
ENDBRANCH   1  30
TORSDOF 6
