REMARK  Name = ZINC20549106
REMARK  8 active torsions:
REMARK  status: ('A' for Active; 'I' for Inactive)
REMARK    1  A    between atoms: C_1  and  C_2
REMARK    2  A    between atoms: C_4  and  C_21
REMARK    3  A    between atoms: C_6  and  N_8
REMARK    4  A    between atoms: N_8  and  S_9
REMARK    5  A    between atoms: S_9  and  C_12
REMARK    6  A    between atoms: C_14  and  N_20
REMARK    7  A    between atoms: C_16  and  C_19
REMARK    8  A    between atoms: C_17  and  C_18
REMARK                            x       y       z     vdW  Elec       q    Type
REMARK                         _______ _______ _______ _____ _____    ______ ____
ROOT
ATOM      1  S   UNL     1       3.584  -1.229  -0.106  0.00  0.00    +0.073 S 
ATOM      2  O   UNL     1       3.128  -1.909  -1.268  0.00  0.00    -0.150 OA
ATOM      3  O   UNL     1       4.748  -0.414  -0.108  0.00  0.00    -0.150 OA
ENDROOT
BRANCH   1   4
ATOM      4  C   UNL     1       2.255  -0.205   0.432  0.00  0.00    +0.113 A 
ATOM      5  C   UNL     1       2.480   1.129   0.710  0.00  0.00    +0.051 A 
ATOM      6  C   UNL     1       1.431   1.935   1.134  0.00  0.00    +0.027 A 
ATOM      7  C   UNL     1       0.159   1.396   1.278  0.00  0.00    +0.026 A 
ATOM      8  C   UNL     1      -0.059   0.061   0.999  0.00  0.00    -0.044 A 
ATOM      9  C   UNL     1       0.987  -0.739   0.576  0.00  0.00    -0.021 A 
ATOM     10  C   UNL     1       0.745  -2.195   0.273  0.00  0.00    +0.046 C 
ATOM     11  C   UNL     1      -1.439  -0.525   1.155  0.00  0.00    +0.044 C 
BRANCH   6  12
ATOM     12  N   UNL     1       1.656   3.285   1.415  0.00  0.00    -0.358 N 
ATOM     13  H   UNL     1       0.824   3.922   1.750  0.00  0.00    +0.142 HD
ATOM     14  H   UNL     1       2.663   3.710   1.300  0.00  0.00    +0.142 HD
ENDBRANCH   6  12
ENDBRANCH   1   4
BRANCH   1  15
ATOM     15  N   UNL     1       3.816  -2.383   1.058  0.00  0.00    -0.216 N 
ATOM     16  H   UNL     1       3.684  -3.447   0.812  0.00  0.00    +0.174 HD
BRANCH  15  22
ATOM     17  C   UNL     1       6.606   0.349   4.042  0.00  0.00    +0.044 C 
ATOM     18  C   UNL     1       5.529  -0.684   3.830  0.00  0.00    -0.048 A 
ATOM     19  C   UNL     1       4.900  -1.260   4.918  0.00  0.00    +0.006 A 
ATOM     20  C   UNL     1       3.911  -2.208   4.727  0.00  0.00    -0.048 A 
ATOM     21  C   UNL     1       3.549  -2.583   3.448  0.00  0.00    +0.028 A 
ATOM     22  C   UNL     1       4.179  -2.006   2.353  0.00  0.00    +0.049 A 
ATOM     23  C   UNL     1       5.176  -1.058   2.548  0.00  0.00    +0.028 A 
ATOM     24  C   UNL     1       3.228  -2.833   5.917  0.00  0.00    +0.044 C 
ENDBRANCH  15  22
ENDBRANCH   1  15
TORSDOF 4
