REMARK  Name = ZINC18195454
REMARK  7 active torsions:
REMARK  status: ('A' for Active; 'I' for Inactive)
REMARK    1  A    between atoms: C_1  and  C_2
REMARK    2  A    between atoms: C_2  and  C_3
REMARK    3  A    between atoms: C_2  and  C_4
REMARK    4  A    between atoms: C_7  and  C_10
REMARK    5  A    between atoms: N_16  and  C_19
REMARK    6  A    between atoms: C_31  and  C_33
REMARK    7  A    between atoms: C_31  and  C_34
REMARK                            x       y       z     vdW  Elec       q    Type
REMARK                         _______ _______ _______ _____ _____    ______ ____
ROOT
ATOM      1  C   UNL     1       2.707  -1.868  -4.752  0.00  0.00    +0.092 C 
ATOM      2  C   UNL     1       4.118  -1.352  -4.761  0.00  0.00    +0.070 A 
ATOM      3  C   UNL     1       5.198  -2.159  -4.504  0.00  0.00    +0.125 A 
ATOM      4  N   UNL     1       6.324  -1.400  -4.583  0.00  0.00    -0.277 N 
ATOM      5  H   UNL     1       7.233  -1.710  -4.445  0.00  0.00    +0.189 HD
ATOM      6  N   UNL     1       5.937  -0.087  -4.900  0.00  0.00    -0.218 N 
ATOM      7  C   UNL     1       4.591  -0.063  -5.008  0.00  0.00    +0.278 A 
ATOM      8  O   UNL     1       3.910   0.912  -5.275  0.00  0.00    -0.265 OA
ATOM      9  N   UNL     1       5.045  -3.497  -4.230  0.00  0.00    -0.303 N 
ATOM     10  C   UNL     1       3.836  -4.094  -4.504  0.00  0.00    +0.017 C 
ATOM     11  C   UNL     1       2.721  -3.382  -4.763  0.00  0.00    +0.024 C 
ATOM     12  C   UNL     1       1.504  -4.026  -5.060  0.00  0.00    +0.162 C 
ATOM     13  O   UNL     1       0.514  -3.354  -5.276  0.00  0.00    -0.292 OA
ATOM     14  C   UNL     1       1.401  -5.524  -5.115  0.00  0.00    +0.086 C 
ATOM     15  C   UNL     1       2.765  -6.102  -5.506  0.00  0.00    -0.023 C 
ATOM     16  C   UNL     1       3.803  -5.606  -4.498  0.00  0.00    +0.058 C 
ATOM     17  C   UNL     1       3.142  -5.629  -6.911  0.00  0.00    +0.011 C 
ATOM     18  C   UNL     1       2.706  -7.630  -5.474  0.00  0.00    +0.011 C 
ATOM     19  H   UNL     1       5.775  -4.011  -3.851  0.00  0.00    +0.153 HD
ENDROOT
BRANCH   1  23
ATOM     20  C   UNL     1       0.707  -0.490  -1.238  0.00  0.00    -0.045 A 
ATOM     21  C   UNL     1       0.222  -0.151  -2.487  0.00  0.00    +0.004 A 
ATOM     22  C   UNL     1       0.869  -0.597  -3.624  0.00  0.00    +0.005 A 
ATOM     23  C   UNL     1       2.002  -1.381  -3.513  0.00  0.00    -0.035 A 
ATOM     24  C   UNL     1       2.488  -1.720  -2.263  0.00  0.00    +0.005 A 
ATOM     25  C   UNL     1       1.843  -1.270  -1.126  0.00  0.00    +0.004 A 
BRANCH  20  27
ATOM     26  C   UNL     1      -0.019   1.526   0.010  0.00  0.00    +0.012 C 
ATOM     27  C   UNL     1       0.002  -0.004   0.002  0.00  0.00    +0.013 C 
ATOM     28  C   UNL     1      -1.433  -0.534   0.013  0.00  0.00    +0.012 C 
ENDBRANCH  20  27
ENDBRANCH   1  23
BRANCH   6  29
ATOM     29  C   UNL     1       6.795   1.003  -5.073  0.00  0.00    +0.067 A 
ATOM     30  C   UNL     1       6.277   2.255  -5.380  0.00  0.00    +0.028 A 
ATOM     31  C   UNL     1       7.127   3.330  -5.550  0.00  0.00    +0.002 A 
ATOM     32  C   UNL     1       8.493   3.161  -5.415  0.00  0.00    +0.000 A 
ATOM     33  C   UNL     1       9.012   1.917  -5.109  0.00  0.00    +0.002 A 
ATOM     34  C   UNL     1       8.167   0.839  -4.932  0.00  0.00    +0.028 A 
ENDBRANCH   6  29
TORSDOF 3
