REMARK  Name = ZINC40701864
REMARK  5 active torsions:
REMARK  status: ('A' for Active; 'I' for Inactive)
REMARK    1  A    between atoms: C_4  and  N_11
REMARK    2  A    between atoms: C_5  and  C_7
REMARK    3  A    between atoms: C_13  and  N_31
REMARK    4  A    between atoms: C_14  and  N_18
REMARK    5  A    between atoms: N_21  and  C_24
REMARK                            x       y       z     vdW  Elec       q    Type
REMARK                         _______ _______ _______ _____ _____    ______ ____
ROOT
ATOM      1  N   UNL     1       3.621  -0.650  -0.035  0.00  0.00    -0.297 N 
ATOM      2  C   UNL     1       4.811   0.060  -0.150  0.00  0.00    +0.149 A 
ATOM      3  C   UNL     1       6.028  -0.612  -0.278  0.00  0.00    +0.106 A 
ATOM      4  C   UNL     1       7.193   0.149  -0.390  0.00  0.00    +0.147 A 
ATOM      5  N   UNL     1       7.100   1.476  -0.370  0.00  0.00    -0.219 NA
ATOM      6  C   UNL     1       5.931   2.072  -0.247  0.00  0.00    +0.225 A 
ATOM      7  N   UNL     1       4.807   1.391  -0.144  0.00  0.00    -0.219 NA
ATOM      8  H   UNL     1       3.638  -1.617   0.043  0.00  0.00    +0.154 HD
ENDROOT
BRANCH   1  12
ATOM      9  C   UNL     1      -0.019   1.373  -0.032  0.00  0.00    +0.001 A 
ATOM     10  C   UNL     1       1.087   1.945  -0.633  0.00  0.00    +0.002 A 
ATOM     11  C   UNL     1       2.296   1.277  -0.636  0.00  0.00    +0.024 A 
ATOM     12  C   UNL     1       2.399   0.029  -0.034  0.00  0.00    +0.044 A 
ATOM     13  C   UNL     1       1.286  -0.542   0.570  0.00  0.00    +0.076 A 
ATOM     14  C   UNL     1       0.080   0.132   0.569  0.00  0.00    +0.014 A 
BRANCH  13  15
ATOM     15  C   UNL     1       1.394  -1.895   1.224  0.00  0.00    +0.419 C 
ATOM     16  F   UNL     1       0.152  -2.255   1.757  0.00  0.00    -0.166 F 
ATOM     17  F   UNL     1       1.785  -2.843   0.273  0.00  0.00    -0.166 F 
ATOM     18  F   UNL     1       2.344  -1.843   2.249  0.00  0.00    -0.166 F 
ENDBRANCH  13  15
ENDBRANCH   1  12
BRANCH   4  19
ATOM     19  N   UNL     1       8.430  -0.470  -0.519  0.00  0.00    -0.311 N 
ATOM     20  C   UNL     1       8.924  -0.887  -1.839  0.00  0.00    +0.125 C 
ATOM     21  C   UNL     1      10.299  -0.249  -2.072  0.00  0.00    +0.124 C 
ATOM     22  N   UNL     1      11.138  -0.498  -0.891  0.00  0.00    -0.325 N 
ATOM     23  C   UNL     1      10.644  -0.082   0.429  0.00  0.00    +0.124 C 
ATOM     24  C   UNL     1       9.271  -0.714   0.661  0.00  0.00    +0.125 C 
BRANCH  22  25
ATOM     25  C   UNL     1      12.383  -1.121  -1.021  0.00  0.00    +0.065 A 
ATOM     26  C   UNL     1      13.525  -0.358  -1.224  0.00  0.00    +0.026 A 
ATOM     27  C   UNL     1      14.754  -0.976  -1.352  0.00  0.00    +0.002 A 
ATOM     28  C   UNL     1      14.849  -2.353  -1.278  0.00  0.00    +0.003 A 
ATOM     29  C   UNL     1      13.715  -3.118  -1.077  0.00  0.00    +0.040 A 
ATOM     30  C   UNL     1      12.482  -2.506  -0.942  0.00  0.00    +0.144 A 
ATOM     31  F   UNL     1      11.374  -3.252  -0.739  0.00  0.00    -0.204 F 
ENDBRANCH  22  25
ENDBRANCH   4  19
BRANCH   3  32
ATOM     32  N   UNL     1       6.079  -2.015  -0.293  0.00  0.00    -0.353 N 
ATOM     33  H   UNL     1       5.257  -2.531  -0.288  0.00  0.00    +0.143 HD
ATOM     34  H   UNL     1       6.936  -2.470  -0.309  0.00  0.00    +0.143 HD
ENDBRANCH   3  32
TORSDOF 5
