REMARK  Name = ZINC12408395
REMARK  6 active torsions:
REMARK  status: ('A' for Active; 'I' for Inactive)
REMARK    1  A    between atoms: C_3  and  S_8
REMARK    2  A    between atoms: S_8  and  N_11
REMARK    3  A    between atoms: N_11  and  C_12
REMARK    4  A    between atoms: C_12  and  C_13
REMARK    5  A    between atoms: C_16  and  C_19
REMARK    6  A    between atoms: N_21  and  C_22
REMARK                            x       y       z     vdW  Elec       q    Type
REMARK                         _______ _______ _______ _____ _____    ______ ____
ROOT
ATOM      1  C   UNL     1       7.769   5.295  -2.213  0.00  0.00    +0.005 C 
ATOM      2  C   UNL     1       7.881   4.395  -0.981  0.00  0.00    +0.005 C 
ATOM      3  C   UNL     1       7.585   5.213   0.278  0.00  0.00    +0.013 C 
ATOM      4  C   UNL     1       6.169   5.785   0.192  0.00  0.00    +0.075 C 
ATOM      5  C   UNL     1       6.056   6.686  -1.040  0.00  0.00    +0.013 C 
ATOM      6  C   UNL     1       6.353   5.867  -2.298  0.00  0.00    +0.005 C 
ENDROOT
BRANCH   4   7
ATOM      7  C   UNL     1       5.177   4.657   0.082  0.00  0.00    +0.220 C 
ATOM      8  O   UNL     1       5.564   3.507   0.072  0.00  0.00    -0.275 OA
ATOM      9  N   UNL     1       3.859   4.924  -0.007  0.00  0.00    -0.285 N 
ATOM     10  H   UNL     1       3.554   5.842  -0.076  0.00  0.00    +0.155 HD
BRANCH   9  11
ATOM     11  C   UNL     1       2.929   3.876   0.002  0.00  0.00    +0.034 A 
ATOM     12  C   UNL     1       1.752   3.985  -0.737  0.00  0.00    +0.025 A 
ATOM     13  C   UNL     1       0.828   2.965  -0.739  0.00  0.00    +0.028 A 
ATOM     14  C   UNL     1       1.065   1.810   0.001  0.00  0.00    +0.047 A 
ATOM     15  C   UNL     1       2.251   1.696   0.748  0.00  0.00    +0.001 A 
ATOM     16  C   UNL     1       3.182   2.737   0.744  0.00  0.00    +0.033 A 
ATOM     17  C   UNL     1       2.195   0.386   1.400  0.00  0.00    +0.027 A 
ATOM     18  C   UNL     1       1.036  -0.186   1.035  0.00  0.00    +0.083 A 
ATOM     19  N   UNL     1       0.350   0.647   0.195  0.00  0.00    -0.361 N 
ATOM     20  H   UNL     1      -0.513   0.451  -0.203  0.00  0.00    +0.165 HD
ENDBRANCH   9  11
ENDBRANCH   4   7
BRANCH   1  21
ATOM     21  C   UNL     1       8.065   4.477  -3.471  0.00  0.00    +0.109 C 
BRANCH  21  22
ATOM     22  N   UNL     1       8.075   5.362  -4.638  0.00  0.00    -0.190 NA
ATOM     23  H   UNL     1       7.700   6.255  -4.573  0.00  0.00    +0.148 HD
BRANCH  22  24
ATOM     24  S   UNL     1       8.725   4.839  -6.069  0.00  0.00    +0.058 S 
ATOM     25  O   UNL     1       8.562   5.900  -7.001  0.00  0.00    -0.153 OA
ATOM     26  O   UNL     1       9.997   4.286  -5.759  0.00  0.00    -0.153 OA
BRANCH  24  29
ATOM     27  C   UNL     1       5.854   2.718  -7.912  0.00  0.00    +0.040 A 
ATOM     28  C   UNL     1       6.640   3.762  -7.462  0.00  0.00    +0.031 A 
ATOM     29  C   UNL     1       7.723   3.508  -6.641  0.00  0.00    +0.105 A 
ATOM     30  C   UNL     1       8.023   2.210  -6.273  0.00  0.00    +0.031 A 
ATOM     31  C   UNL     1       7.235   1.165  -6.717  0.00  0.00    +0.040 A 
ATOM     32  C   UNL     1       6.150   1.418  -7.540  0.00  0.00    +0.124 A 
ATOM     33  F   UNL     1       5.382   0.397  -7.978  0.00  0.00    -0.205 F 
ENDBRANCH  24  29
ENDBRANCH  22  24
ENDBRANCH  21  22
ENDBRANCH   1  21
TORSDOF 6
