REMARK  Name = ZINC37289433
REMARK  6 active torsions:
REMARK  status: ('A' for Active; 'I' for Inactive)
REMARK    1  A    between atoms: C_1  and  C_2
REMARK    2  A    between atoms: C_2  and  C_4
REMARK    3  A    between atoms: C_2  and  O_12
REMARK    4  A    between atoms: O_12  and  C_13
REMARK    5  A    between atoms: C_15  and  C_20
REMARK    6  A    between atoms: C_18  and  N_19
REMARK                            x       y       z     vdW  Elec       q    Type
REMARK                         _______ _______ _______ _____ _____    ______ ____
ROOT
ATOM      1  C   UNL     1      -0.107  -0.775  -2.245  0.00  0.00    +0.143 A 
ATOM      2  C   UNL     1      -1.466  -0.542  -2.202  0.00  0.00    +0.062 A 
ATOM      3  C   UNL     1      -2.264  -0.862  -3.307  0.00  0.00    +0.067 A 
ATOM      4  C   UNL     1      -1.680  -1.417  -4.451  0.00  0.00    +0.017 A 
ATOM      5  C   UNL     1      -0.324  -1.647  -4.488  0.00  0.00    +0.027 A 
ATOM      6  C   UNL     1       0.470  -1.324  -3.392  0.00  0.00    +0.067 A 
ENDROOT
BRANCH   6   7
ATOM      7  N   UNL     1       1.842  -1.554  -3.437  0.00  0.00    -0.355 N 
ATOM      8  H   UNL     1       2.396  -1.333  -2.672  0.00  0.00    +0.142 HD
ATOM      9  H   UNL     1       2.244  -1.936  -4.233  0.00  0.00    +0.142 HD
ENDBRANCH   6   7
BRANCH   3  10
ATOM     10  C   UNL     1      -3.714  -0.615  -3.265  0.00  0.00    +0.387 C 
ATOM     11  O   UNL     1      -4.223  -0.130  -2.264  0.00  0.00    -0.241 OA
ATOM     12  O   UNL     1      -4.410  -0.895  -4.231  0.00  0.00    -0.241 OA
ENDBRANCH   3  10
BRANCH   1  13
ATOM     13  O   UNL     1       0.671  -0.465  -1.174  0.00  0.00    -0.478 OA
BRANCH  13  15
ATOM     14  C   UNL     1      -0.255   1.492  -0.100  0.00  0.00    +0.062 C 
ATOM     15  C   UNL     1       0.001  -0.013   0.005  0.00  0.00    +0.256 C 
BRANCH  15  16
ATOM     16  C   UNL     1       0.861  -0.293   1.210  0.00  0.00    +0.256 C 
ATOM     17  O   UNL     1       1.978  -0.745   1.067  0.00  0.00    -0.272 OA
ATOM     18  N   UNL     1       0.390  -0.043   2.448  0.00  0.00    -0.298 N 
ATOM     19  C   UNL     1      -0.963   0.497   2.638  0.00  0.00    +0.108 C 
ATOM     20  C   UNL     1      -1.724  -0.409   3.611  0.00  0.00    +0.019 C 
ATOM     21  C   UNL     1      -0.917  -0.553   4.904  0.00  0.00    +0.003 C 
ATOM     22  C   UNL     1       0.433  -1.203   4.594  0.00  0.00    +0.019 C 
ATOM     23  C   UNL     1       1.216  -0.312   3.632  0.00  0.00    +0.108 C 
ENDBRANCH  15  16
ENDBRANCH  13  15
ENDBRANCH   1  13
TORSDOF 5
