REMARK  Name = ZINC38688477
REMARK  6 active torsions:
REMARK  status: ('A' for Active; 'I' for Inactive)
REMARK    1  A    between atoms: C_9  and  C_11
REMARK    2  A    between atoms: C_11  and  O_13
REMARK    3  A    between atoms: O_13  and  C_14
REMARK    4  A    between atoms: C_21  and  N_32
REMARK    5  A    between atoms: C_22  and  C_30
REMARK    6  A    between atoms: C_23  and  C_25
REMARK                            x       y       z     vdW  Elec       q    Type
REMARK                         _______ _______ _______ _____ _____    ______ ____
ROOT
ATOM      1  C   UNL     1       8.436   0.340  -0.111  0.00  0.00    +0.135 A 
ATOM      2  C   UNL     1       8.656  -1.028  -0.198  0.00  0.00    +0.047 A 
ATOM      3  C   UNL     1       9.947  -1.517  -0.247  0.00  0.00    +0.012 A 
ATOM      4  C   UNL     1      11.023  -0.648  -0.210  0.00  0.00    +0.011 A 
ATOM      5  C   UNL     1      10.809   0.718  -0.123  0.00  0.00    +0.138 A 
ATOM      6  C   UNL     1       9.511   1.212  -0.079  0.00  0.00    +0.093 A 
ATOM      7  O   UNL     1      11.851   1.585  -0.086  0.00  0.00    -0.441 OA
ATOM      8  C   UNL     1      13.064   1.194  -0.512  0.00  0.00    +0.199 C 
ATOM      9  C   UNL     1      13.398  -0.114  -0.619  0.00  0.00    +0.101 C 
ATOM     10  C   UNL     1      12.423  -1.202  -0.265  0.00  0.00    +0.134 C 
ENDROOT
BRANCH  10  11
ATOM     11  C   UNL     1      12.489  -2.290  -1.305  0.00  0.00    +0.117 A 
ATOM     12  C   UNL     1      12.820  -3.574  -1.080  0.00  0.00    +0.045 A 
ATOM     13  C   UNL     1      12.754  -4.238  -2.327  0.00  0.00    +0.041 A 
ATOM     14  C   UNL     1      12.387  -3.320  -3.239  0.00  0.00    +0.195 A 
ATOM     15  O   UNL     1      12.223  -2.143  -2.614  0.00  0.00    -0.467 OA
ENDBRANCH  10  11
BRANCH   8  16
ATOM     16  N   UNL     1      13.991   2.148  -0.848  0.00  0.00    -0.328 N 
ATOM     17  H   UNL     1      13.767   3.089  -0.777  0.00  0.00    +0.145 HD
ATOM     18  H   UNL     1      14.871   1.881  -1.157  0.00  0.00    +0.145 HD
ENDBRANCH   8  16
BRANCH   9  19
ATOM     19  C   UNL     1      14.707  -0.468  -1.080  0.00  0.00    +0.101 C 
ATOM     20  N   UNL     1      15.745  -0.749  -1.446  0.00  0.00    -0.191 NA
ENDBRANCH   9  19
BRANCH   1  21
ATOM     21  O   UNL     1       7.166   0.823  -0.062  0.00  0.00    -0.422 OA
BRANCH  21  22
ATOM     22  C   UNL     1       6.652   1.365  -1.185  0.00  0.00    +0.353 C 
ATOM     23  O   UNL     1       7.348   1.492  -2.173  0.00  0.00    -0.244 OA
BRANCH  22  32
ATOM     24  C   UNL     1       0.537   3.303  -1.410  0.00  0.00    +0.003 A 
ATOM     25  C   UNL     1       1.362   2.727  -0.464  0.00  0.00    +0.016 A 
ATOM     26  C   UNL     1       2.670   2.440  -0.788  0.00  0.00    +0.023 A 
ATOM     27  C   UNL     1       3.208   2.715  -2.067  0.00  0.00    +0.027 A 
ATOM     28  C   UNL     1       2.326   3.307  -3.009  0.00  0.00    +0.051 A 
ATOM     29  C   UNL     1       1.038   3.584  -2.675  0.00  0.00    +0.021 A 
ATOM     30 CL   UNL     1       2.898   3.681  -4.604  0.00  0.00    -0.083 Cl
ATOM     31  C   UNL     1       4.560   2.364  -2.242  0.00  0.00    +0.071 A 
ATOM     32  C   UNL     1       5.252   1.800  -1.214  0.00  0.00    +0.116 A 
ATOM     33  S   UNL     1       4.036   1.723   0.090  0.00  0.00    -0.080 S 
ATOM     34 CL   UNL     1       5.342   2.648  -3.765  0.00  0.00    -0.081 Cl
ENDBRANCH  22  32
ENDBRANCH  21  22
ENDBRANCH   1  21
TORSDOF 6
