REMARK  Name = ZINC37756535
REMARK  3 active torsions:
REMARK  status: ('A' for Active; 'I' for Inactive)
REMARK    1  A    between atoms: C_4  and  C_7
REMARK    2  A    between atoms: C_5  and  N_6
REMARK    3  A    between atoms: C_9  and  C_12
REMARK                            x       y       z     vdW  Elec       q    Type
REMARK                         _______ _______ _______ _____ _____    ______ ____
ROOT
ATOM      1  C   UNL     1       1.632  -2.001  -0.025  0.00  0.00    +0.267 A 
ATOM      2  N   UNL     1       2.859  -2.488  -0.034  0.00  0.00    -0.191 NA
ATOM      3  C   UNL     1       2.818  -3.821  -0.042  0.00  0.00    +0.175 A 
ATOM      4  N   UNL     1       1.575  -4.213  -0.039  0.00  0.00    -0.061 NA
ATOM      5  O   UNL     1       0.774  -3.040  -0.022  0.00  0.00    -0.332 OA
ENDROOT
BRANCH   1   9
ATOM      6  C   UNL     1      -0.017   1.379   0.010  0.00  0.00    +0.031 A 
ATOM      7  C   UNL     1       1.157   2.051   0.002  0.00  0.00    +0.048 A 
ATOM      8  S   UNL     1       2.328   0.848  -0.016  0.00  0.00    -0.090 S 
ATOM      9  C   UNL     1       1.268  -0.585  -0.013  0.00  0.00    +0.097 A 
ATOM     10  C   UNL     1       0.002  -0.004   0.002  0.00  0.00    +0.044 A 
BRANCH  10  11
ATOM     11  N   UNL     1      -1.168  -0.766   0.009  0.00  0.00    -0.357 N 
ATOM     12  H   UNL     1      -2.032  -0.326   0.020  0.00  0.00    +0.142 HD
ATOM     13  H   UNL     1      -1.116  -1.734   0.004  0.00  0.00    +0.142 HD
ENDBRANCH  10  11
ENDBRANCH   1   9
BRANCH   3  14
ATOM     14  C   UNL     1       4.020  -4.731  -0.054  0.00  0.00    +0.060 C 
ATOM     15  C   UNL     1       3.961  -5.668  -1.278  0.00  0.00    +0.011 C 
ATOM     16  C   UNL     1       4.522  -7.013  -0.753  0.00  0.00    +0.001 C 
ATOM     17  C   UNL     1       3.945  -7.088   0.682  0.00  0.00    +0.001 C 
ATOM     18  C   UNL     1       4.010  -5.633   1.192  0.00  0.00    +0.011 C 
ENDBRANCH   3  14
TORSDOF 3
