REMARK  Name = ZINC00492588
REMARK  3 active torsions:
REMARK  status: ('A' for Active; 'I' for Inactive)
REMARK    1  A    between atoms: C_4  and  C_7
REMARK    2  A    between atoms: C_11  and  N_13
REMARK    3  A    between atoms: N_13  and  N_14
REMARK                            x       y       z     vdW  Elec       q    Type
REMARK                         _______ _______ _______ _____ _____    ______ ____
ROOT
ATOM      1  C   UNL     1      -1.067   5.734  -0.942  0.00  0.00    +0.162 A 
ATOM      2  N   UNL     1      -1.379   4.998   0.117  0.00  0.00    -0.227 NA
ATOM      3  C   UNL     1      -1.462   3.677   0.016  0.00  0.00    +0.081 A 
ATOM      4  C   UNL     1      -1.214   3.067  -1.213  0.00  0.00    +0.026 A 
ATOM      5  C   UNL     1      -0.892   3.871  -2.302  0.00  0.00    +0.140 A 
ATOM      6  N   UNL     1      -0.829   5.189  -2.127  0.00  0.00    -0.211 NA
ATOM      7  C   UNL     1      -1.295   1.573  -1.338  0.00  0.00    +0.005 C 
ATOM      8  C   UNL     1      -2.752   1.151  -1.610  0.00  0.00    +0.012 C 
ATOM      9  C   UNL     1      -2.824   1.008  -3.151  0.00  0.00    +0.001 C 
ATOM     10  C   UNL     1      -1.444   0.399  -3.504  0.00  0.00    +0.001 C 
ATOM     11  C   UNL     1      -0.464   1.100  -2.540  0.00  0.00    +0.012 C 
ATOM     12  C   UNL     1      -0.794   0.896  -0.064  0.00  0.00    +0.047 C 
ATOM     13  C   UNL     1      -1.498   1.470   1.138  0.00  0.00    -0.037 A 
ATOM     14  C   UNL     1      -1.821   2.826   1.174  0.00  0.00    +0.004 A 
ATOM     15  C   UNL     1      -2.473   3.359   2.281  0.00  0.00    +0.010 A 
ATOM     16  C   UNL     1      -2.792   2.540   3.347  0.00  0.00    +0.001 A 
ATOM     17  C   UNL     1      -2.464   1.196   3.311  0.00  0.00    +0.000 A 
ATOM     18  C   UNL     1      -1.819   0.662   2.211  0.00  0.00    +0.004 A 
ENDROOT
BRANCH   1  22
ATOM     19  C   UNL     1      -0.822   9.958  -0.523  0.00  0.00    +0.000 A 
ATOM     20  C   UNL     1      -0.578   9.372  -1.752  0.00  0.00    +0.001 A 
ATOM     21  C   UNL     1      -0.656   8.001  -1.894  0.00  0.00    +0.011 A 
ATOM     22  C   UNL     1      -0.982   7.207  -0.796  0.00  0.00    +0.019 A 
ATOM     23  C   UNL     1      -1.233   7.803   0.438  0.00  0.00    +0.011 A 
ATOM     24  C   UNL     1      -1.146   9.175   0.570  0.00  0.00    +0.001 A 
ENDBRANCH   1  22
BRANCH   5  25
ATOM     25  N   UNL     1      -0.642   3.311  -3.544  0.00  0.00    -0.267 N 
ATOM     26  H   UNL     1      -1.203   2.591  -3.874  0.00  0.00    +0.167 HD
BRANCH  25  27
ATOM     27  N   UNL     1       0.395   3.771  -4.305  0.00  0.00    -0.255 NA
ATOM     28  H   UNL     1       0.453   3.270  -5.179  0.00  0.00    +0.140 HD
ATOM     29  H   UNL     1       0.315   4.764  -4.463  0.00  0.00    +0.140 HD
ENDBRANCH  25  27
ENDBRANCH   5  25
TORSDOF 3
