REMARK  Name = ZINC62427326
REMARK  3 active torsions:
REMARK  status: ('A' for Active; 'I' for Inactive)
REMARK    1  A    between atoms: C_2  and  C_18
REMARK    2  A    between atoms: N_5  and  C_6
REMARK    3  A    between atoms: C_7  and  C_15
REMARK                            x       y       z     vdW  Elec       q    Type
REMARK                         _______ _______ _______ _____ _____    ______ ____
ROOT
ATOM      1  C   UNL     1      -1.105  -0.848   0.009  0.00  0.00    +0.117 A 
ATOM      2  C   UNL     1      -1.119  -2.233   0.007  0.00  0.00    +0.073 A 
ATOM      3  C   UNL     1      -2.415  -2.885   0.015  0.00  0.00    -0.023 A 
ATOM      4  C   UNL     1      -3.463  -2.031   0.023  0.00  0.00    -0.004 A 
ATOM      5  S   UNL     1      -2.729  -0.421   0.027  0.00  0.00    -0.073 S 
ATOM      6  C   UNL     1      -4.916  -2.391   0.031  0.00  0.00    +0.043 C 
ATOM      7  C   UNL     1      -5.048  -3.872  -0.352  0.00  0.00    +0.005 C 
ATOM      8  C   UNL     1      -4.052  -4.689   0.477  0.00  0.00    +0.005 C 
ATOM      9  C   UNL     1      -2.623  -4.392   0.015  0.00  0.00    +0.037 C 
ENDROOT
BRANCH   1  14
ATOM     10  C   UNL     1      -0.016   1.347   0.009  0.00  0.00    +0.152 A 
ATOM     11  C   UNL     1       1.299   1.759  -0.001  0.00  0.00    +0.194 A 
ATOM     12  N   UNL     1       2.083   0.665  -0.014  0.00  0.00    -0.122 NA
ATOM     13  N   UNL     1       1.349  -0.393  -0.013  0.00  0.00    -0.059 NA
ATOM     14  N   UNL     1       0.002  -0.004   0.002  0.00  0.00    -0.212 N 
BRANCH  11  15
ATOM     15  C   UNL     1       1.766   3.154   0.001  0.00  0.00    +0.408 C 
ATOM     16  O   UNL     1       0.955   4.070   0.013  0.00  0.00    -0.239 OA
ATOM     17  O   UNL     1       2.965   3.398  -0.009  0.00  0.00    -0.239 OA
ENDBRANCH  11  15
ENDBRANCH   1  14
BRANCH   2  18
ATOM     18  C   UNL     1       0.127  -3.010  -0.003  0.00  0.00    +0.244 C 
ATOM     19  O   UNL     1       0.651  -3.333   1.046  0.00  0.00    -0.270 OA
ATOM     20  N   UNL     1       0.691  -3.364  -1.175  0.00  0.00    -0.325 N 
ATOM     21  H   UNL     1       0.273  -3.106  -2.012  0.00  0.00    +0.145 HD
ATOM     22  H   UNL     1       1.514  -3.877  -1.182  0.00  0.00    +0.145 HD
ENDBRANCH   2  18
TORSDOF 3
