REMARK  Name = ZINC12621446
REMARK  4 active torsions:
REMARK  status: ('A' for Active; 'I' for Inactive)
REMARK    1  A    between atoms: C_9  and  C_11
REMARK    2  A    between atoms: C_11  and  S_12
REMARK    3  A    between atoms: S_12  and  C_13
REMARK    4  A    between atoms: C_13  and  C_14
REMARK                            x       y       z     vdW  Elec       q    Type
REMARK                         _______ _______ _______ _____ _____    ______ ____
ROOT
ATOM      1  C   UNL     1       1.036   6.014   1.562  0.00  0.00    +0.145 C 
ENDROOT
BRANCH   1   2
ATOM      2  C   UNL     1       1.030   6.642   2.932  0.00  0.00    +0.146 A 
ATOM      3  N   UNL     1      -0.117   6.888   3.539  0.00  0.00    -0.199 NA
ATOM      4  C   UNL     1      -0.127   7.438   4.751  0.00  0.00    +0.217 A 
ATOM      5  N   UNL     1       1.020   7.750   5.346  0.00  0.00    -0.181 NA
ATOM      6  C   UNL     1       2.171   7.506   4.730  0.00  0.00    +0.217 A 
ATOM      7  N   UNL     1       2.173   6.951   3.520  0.00  0.00    -0.199 NA
ATOM      8  N   UNL     1       3.365   7.829   5.343  0.00  0.00    -0.327 N 
ATOM      9  N   UNL     1      -1.325   7.689   5.387  0.00  0.00    -0.327 N 
ATOM     10  H   UNL     1       4.205   7.652   4.893  0.00  0.00    +0.145 HD
ATOM     11  H   UNL     1       3.363   8.234   6.225  0.00  0.00    +0.145 HD
ATOM     12  H   UNL     1      -1.331   8.093   6.269  0.00  0.00    +0.145 HD
ATOM     13  H   UNL     1      -2.162   7.460   4.952  0.00  0.00    +0.145 HD
ENDBRANCH   1   2
BRANCH   1  14
ATOM     14  S   UNL     1       1.092   4.209   1.725  0.00  0.00    -0.148 S 
BRANCH  14  15
ATOM     15  C   UNL     1       1.094   3.613   0.011  0.00  0.00    +0.106 C 
BRANCH  15  24
ATOM     16  C   UNL     1       0.002  -0.004   0.002  0.00  0.00    +0.001 A 
ATOM     17  C   UNL     1       1.180  -0.687  -0.013  0.00  0.00    +0.010 A 
ATOM     18  C   UNL     1       2.392   0.021  -0.021  0.00  0.00    +0.001 A 
ATOM     19  C   UNL     1       3.631  -0.646  -0.036  0.00  0.00    +0.011 A 
ATOM     20  C   UNL     1       4.770   0.108  -0.045  0.00  0.00    +0.020 A 
ATOM     21  C   UNL     1       4.683   1.499  -0.036  0.00  0.00    +0.111 A 
ATOM     22  N   UNL     1       3.527   2.117  -0.021  0.00  0.00    -0.255 NA
ATOM     23  C   UNL     1       2.376   1.438  -0.013  0.00  0.00    +0.075 A 
ATOM     24  C   UNL     1       1.139   2.107   0.003  0.00  0.00    -0.012 A 
ATOM     25  C   UNL     1      -0.017   1.389   0.010  0.00  0.00    +0.006 A 
ENDBRANCH  15  24
ENDBRANCH  14  15
ENDBRANCH   1  14
TORSDOF 4
