REMARK  Name = ZINC16312552
REMARK  12 active torsions:
REMARK  status: ('A' for Active; 'I' for Inactive)
REMARK    1  A    between atoms: C_1  and  C_2
REMARK    2  A    between atoms: C_5  and  N_9
REMARK    3  A    between atoms: C_7  and  C_8
REMARK    4  A    between atoms: N_9  and  S_10
REMARK    5  A    between atoms: S_10  and  C_13
REMARK    6  A    between atoms: C_26  and  C_29
REMARK    7  A    between atoms: C_31  and  O_39
REMARK    8  A    between atoms: C_32  and  O_37
REMARK    9  A    between atoms: C_33  and  O_35
REMARK   10  A    between atoms: O_35  and  C_36
REMARK   11  A    between atoms: O_37  and  C_38
REMARK   12  A    between atoms: O_39  and  C_40
REMARK                            x       y       z     vdW  Elec       q    Type
REMARK                         _______ _______ _______ _____ _____    ______ ____
ROOT
ATOM      1  C   UNL     1       0.864   4.297   0.842  0.00  0.00    +0.109 A 
ATOM      2  C   UNL     1       1.439   3.693   1.945  0.00  0.00    +0.030 A 
ATOM      3  C   UNL     1       1.440   4.347   3.160  0.00  0.00    +0.025 A 
ATOM      4  C   UNL     1       0.866   5.607   3.272  0.00  0.00    +0.031 A 
ATOM      5  C   UNL     1       0.290   6.218   2.169  0.00  0.00    -0.018 A 
ATOM      6  C   UNL     1       0.298   5.551   0.951  0.00  0.00    +0.034 A 
ATOM      7  C   UNL     1      -0.338   7.574   2.241  0.00  0.00    +0.049 C 
ATOM      8  C   UNL     1      -1.845   7.486   2.221  0.00  0.00    -0.023 C 
ATOM      9  C   UNL     1      -2.363   8.406   2.998  0.00  0.00    -0.030 C 
ATOM     10  C   UNL     1      -1.269   9.239   3.638  0.00  0.00    +0.033 C 
ATOM     11  C   UNL     1      -0.018   8.316   3.553  0.00  0.00    +0.029 C 
ATOM     12  C   UNL     1      -0.089   7.343   4.734  0.00  0.00    +0.105 C 
ATOM     13  N   UNL     1       0.871   6.256   4.512  0.00  0.00    -0.336 N 
ATOM     14  H   UNL     1       1.495   5.994   5.207  0.00  0.00    +0.147 HD
ENDROOT
BRANCH  12  15
ATOM     15  C   UNL     1      -1.480   6.773   4.835  0.00  0.00    -0.020 A 
ATOM     16  C   UNL     1      -2.446   7.440   5.565  0.00  0.00    +0.055 A 
ATOM     17  C   UNL     1      -3.730   6.923   5.656  0.00  0.00    +0.165 A 
ATOM     18  C   UNL     1      -4.041   5.726   5.023  0.00  0.00    +0.204 A 
ATOM     19  C   UNL     1      -3.065   5.055   4.295  0.00  0.00    +0.165 A 
ATOM     20  C   UNL     1      -1.786   5.582   4.203  0.00  0.00    +0.055 A 
BRANCH  19  21
ATOM     21  O   UNL     1      -3.364   3.882   3.674  0.00  0.00    -0.491 OA
ATOM     22  C   UNL     1      -2.318   3.259   2.926  0.00  0.00    +0.277 C 
ENDBRANCH  19  21
BRANCH  18  23
ATOM     23  O   UNL     1      -5.297   5.211   5.114  0.00  0.00    -0.488 OA
ATOM     24  C   UNL     1      -5.558   4.324   6.204  0.00  0.00    +0.277 C 
ENDBRANCH  18  23
BRANCH  17  25
ATOM     25  O   UNL     1      -4.681   7.583   6.369  0.00  0.00    -0.491 OA
ATOM     26  C   UNL     1      -4.322   8.858   6.905  0.00  0.00    +0.277 C 
ENDBRANCH  17  25
ENDBRANCH  12  15
BRANCH   1  27
ATOM     27  S   UNL     1       0.859   3.466  -0.712  0.00  0.00    +0.072 S 
ATOM     28  O   UNL     1       1.847   2.447  -0.630  0.00  0.00    -0.150 OA
ATOM     29  O   UNL     1       0.886   4.474  -1.712  0.00  0.00    -0.150 OA
BRANCH  27  30
ATOM     30  N   UNL     1      -0.602   2.699  -0.852  0.00  0.00    -0.216 N 
ATOM     31  H   UNL     1      -0.639   1.730  -0.888  0.00  0.00    +0.174 HD
BRANCH  30  36
ATOM     32  C   UNL     1      -5.382   5.735  -1.149  0.00  0.00    +0.044 C 
ATOM     33  C   UNL     1      -4.112   4.928  -1.070  0.00  0.00    -0.047 A 
ATOM     34  C   UNL     1      -3.021   5.281  -1.843  0.00  0.00    +0.005 A 
ATOM     35  C   UNL     1      -1.855   4.544  -1.774  0.00  0.00    +0.025 A 
ATOM     36  C   UNL     1      -1.779   3.446  -0.925  0.00  0.00    +0.048 A 
ATOM     37  C   UNL     1      -2.878   3.091  -0.153  0.00  0.00    +0.028 A 
ATOM     38  C   UNL     1      -4.039   3.836  -0.224  0.00  0.00    -0.046 A 
ATOM     39  C   UNL     1      -5.230   3.456   0.618  0.00  0.00    +0.044 C 
ENDBRANCH  30  36
ENDBRANCH  27  30
ENDBRANCH   1  27
TORSDOF 7
