REMARK  Name = ZINC13479807
REMARK  7 active torsions:
REMARK  status: ('A' for Active; 'I' for Inactive)
REMARK    1  A    between atoms: C_1  and  C_2
REMARK    2  A    between atoms: C_4  and  C_18
REMARK    3  A    between atoms: C_5  and  C_17
REMARK    4  A    between atoms: N_6  and  C_7
REMARK    5  A    between atoms: C_10  and  S_13
REMARK    6  A    between atoms: S_13  and  N_16
REMARK    7  A    between atoms: N_19  and  O_20
REMARK                            x       y       z     vdW  Elec       q    Type
REMARK                         _______ _______ _______ _____ _____    ______ ____
ROOT
ATOM      1  C   UNL     1      -0.022  -0.326   2.412  0.00  0.00    +0.047 A 
ATOM      2  C   UNL     1       1.071  -0.544   3.239  0.00  0.00    +0.028 A 
ATOM      3  C   UNL     1       1.058  -0.073   4.538  0.00  0.00    +0.030 A 
ATOM      4  C   UNL     1      -0.043   0.615   5.014  0.00  0.00    +0.105 A 
ATOM      5  C   UNL     1      -1.133   0.834   4.193  0.00  0.00    +0.030 A 
ATOM      6  C   UNL     1      -1.124   0.370   2.892  0.00  0.00    +0.028 A 
ENDROOT
BRANCH   1  12
ATOM      7  C   UNL     1      -0.047   1.492  -0.033  0.00  0.00    +0.064 C 
ATOM      8  C   UNL     1      -0.022  -0.015  -0.023  0.00  0.00    +0.022 A 
ATOM      9  C   UNL     1       0.000  -0.805  -1.112  0.00  0.00    +0.032 A 
ATOM     10  C   UNL     1       0.019  -2.188  -0.625  0.00  0.00    +0.017 A 
ATOM     11  C   UNL     1       0.007  -2.113   0.739  0.00  0.00    +0.030 A 
ATOM     12  N   UNL     1      -0.011  -0.802   1.094  0.00  0.00    -0.317 N 
ATOM     13  C   UNL     1       0.018  -3.284   1.688  0.00  0.00    +0.064 C 
BRANCH  10  14
ATOM     14  C   UNL     1       0.046  -3.413  -1.443  0.00  0.00    +0.162 C 
ATOM     15  N   UNL     1      -0.057  -3.334  -2.731  0.00  0.00    -0.095 NA
BRANCH  15  16
ATOM     16  O   UNL     1      -0.078  -2.067  -3.363  0.00  0.00    -0.409 OA
ATOM     17  H   UNL     1      -0.081  -2.109  -4.329  0.00  0.00    +0.328 HD
ENDBRANCH  15  16
ENDBRANCH  10  14
ENDBRANCH   1  12
BRANCH   4  18
ATOM     18  S   UNL     1      -0.056   1.213   6.671  0.00  0.00    +0.056 S 
ATOM     19  O   UNL     1      -1.421   1.348   7.043  0.00  0.00    -0.153 OA
ATOM     20  O   UNL     1       0.856   0.405   7.402  0.00  0.00    -0.153 OA
BRANCH  18  21
ATOM     21  N   UNL     1       0.581   2.741   6.646  0.00  0.00    -0.204 NA
ATOM     22  H   UNL     1       0.874   3.130   5.807  0.00  0.00    +0.144 HD
ATOM     23  H   UNL     1       0.660   3.247   7.469  0.00  0.00    +0.144 HD
ENDBRANCH  18  21
ENDBRANCH   4  18
TORSDOF 5
