REMARK  Name = ZINC04079164
REMARK  7 active torsions:
REMARK  status: ('A' for Active; 'I' for Inactive)
REMARK    1  A    between atoms: N_3  and  C_23
REMARK    2  A    between atoms: C_11  and  O_13
REMARK    3  A    between atoms: O_13  and  C_14
REMARK    4  A    between atoms: C_14  and  C_15
REMARK    5  A    between atoms: N_19  and  C_20
REMARK    6  A    between atoms: C_20  and  C_21
REMARK    7  A    between atoms: C_21  and  O_22
REMARK                            x       y       z     vdW  Elec       q    Type
REMARK                         _______ _______ _______ _____ _____    ______ ____
ROOT
ATOM      1  C   UNL     1      -0.018   1.467   0.010  0.00  0.00    +0.089 C 
ATOM      2  C   UNL     1       1.429   1.972  -0.001  0.00  0.00    -0.059 C 
ATOM      3  N   UNL     1       2.143   1.382  -1.140  0.00  0.00    +0.385 N 
ATOM      4  C   UNL     1       2.235  -0.074  -0.973  0.00  0.00    -0.059 C 
ATOM      5  C   UNL     1       0.829  -0.681  -1.010  0.00  0.00    +0.089 C 
ATOM      6  N   UNL     1       0.002  -0.004   0.002  0.00  0.00    -0.303 N 
ATOM      7  C   UNL     1      -0.733  -0.729   0.918  0.00  0.00    +0.225 A 
ATOM      8  N   UNL     1      -0.697  -2.057   0.897  0.00  0.00    -0.181 NA
ATOM      9  C   UNL     1      -1.406  -2.754   1.780  0.00  0.00    +0.223 A 
ATOM     10  N   UNL     1      -2.150  -2.122   2.683  0.00  0.00    -0.161 NA
ATOM     11  C   UNL     1      -2.185  -0.795   2.702  0.00  0.00    +0.324 A 
ATOM     12  N   UNL     1      -1.474  -0.098   1.824  0.00  0.00    -0.161 NA
ATOM     13  N   UNL     1      -1.370  -4.134   1.759  0.00  0.00    -0.311 N 
ATOM     14  H   UNL     1      -0.827  -4.595   1.100  0.00  0.00    +0.149 HD
ATOM     15  H   UNL     1       1.646   1.591  -1.992  0.00  0.00    -0.081 HD
ENDROOT
BRANCH   3  16
ATOM     16  C   UNL     1       3.496   1.951  -1.214  0.00  0.00    -0.065 C 
ATOM     17  C   UNL     1       3.402   3.466  -1.400  0.00  0.00    -0.009 C 
ATOM     18  C   UNL     1       4.811   4.059  -1.477  0.00  0.00    -0.012 C 
ATOM     19  C   UNL     1       5.558   3.445  -2.663  0.00  0.00    +0.007 C 
ATOM     20  C   UNL     1       5.651   1.929  -2.478  0.00  0.00    -0.012 C 
ATOM     21  C   UNL     1       4.243   1.337  -2.400  0.00  0.00    -0.009 C 
ATOM     22  C   UNL     1       6.407   1.619  -1.184  0.00  0.00    +0.007 C 
ATOM     23  C   UNL     1       5.660   2.233   0.002  0.00  0.00    -0.012 C 
ATOM     24  C   UNL     1       5.567   3.749  -0.184  0.00  0.00    +0.007 C 
ATOM     25  C   UNL     1       4.252   1.641   0.080  0.00  0.00    -0.009 C 
ENDBRANCH   3  16
BRANCH  11  26
ATOM     26  O   UNL     1      -2.943  -0.152   3.621  0.00  0.00    -0.453 OA
BRANCH  26  27
ATOM     27  C   UNL     1      -3.678  -0.965   4.538  0.00  0.00    +0.345 C 
BRANCH  27  28
ATOM     28  C   UNL     1      -4.469  -0.068   5.493  0.00  0.00    +0.424 C 
ATOM     29  F   UNL     1      -5.356   0.727   4.759  0.00  0.00    -0.167 F 
ATOM     30  F   UNL     1      -5.189  -0.864   6.391  0.00  0.00    -0.167 F 
ATOM     31  F   UNL     1      -3.585   0.752   6.202  0.00  0.00    -0.167 F 
ENDBRANCH  27  28
ENDBRANCH  26  27
ENDBRANCH  11  26
BRANCH  13  32
ATOM     32  C   UNL     1      -2.151  -4.902   2.732  0.00  0.00    +0.132 C 
BRANCH  32  33
ATOM     33  C   UNL     1      -1.935  -6.397   2.493  0.00  0.00    +0.174 C 
BRANCH  33  34
ATOM     34  O   UNL     1      -0.570  -6.730   2.756  0.00  0.00    -0.393 OA
ATOM     35  H   UNL     1      -0.361  -7.665   2.624  0.00  0.00    +0.209 HD
ENDBRANCH  33  34
ENDBRANCH  32  33
ENDBRANCH  13  32
TORSDOF 7
