REMARK  Name = ZINC45254546
REMARK  9 active torsions:
REMARK  status: ('A' for Active; 'I' for Inactive)
REMARK    1  A    between atoms: C_1  and  C_2
REMARK    2  A    between atoms: C_2  and  C_3
REMARK    3  A    between atoms: C_3  and  N_4
REMARK    4  A    between atoms: N_4  and  C_5
REMARK    5  A    between atoms: N_4  and  C_25
REMARK    6  A    between atoms: C_5  and  C_6
REMARK    7  A    between atoms: C_6  and  N_7
REMARK    8  A    between atoms: N_10  and  C_13
REMARK    9  A    between atoms: C_16  and  C_19
REMARK                            x       y       z     vdW  Elec       q    Type
REMARK                         _______ _______ _______ _____ _____    ______ ____
ROOT
ATOM      1  C   UNL     1       0.293  -1.951   3.733  0.00  0.00    +0.066 C 
ENDROOT
BRANCH   1   2
ATOM      2  N   UNL     1       0.888  -2.333   5.022  0.00  0.00    -0.301 NA
ATOM      3  C   UNL     1       1.037  -3.791   5.121  0.00  0.00    +0.103 C 
ATOM      4  C   UNL     1       1.821  -4.134   6.392  0.00  0.00    +0.120 C 
ATOM      5  N   UNL     1       1.155  -3.498   7.539  0.00  0.00    -0.327 N 
ATOM      6  C   UNL     1       0.847  -2.062   7.455  0.00  0.00    +0.120 C 
ATOM      7  C   UNL     1       0.102  -1.800   6.142  0.00  0.00    +0.103 C 
BRANCH   5   8
ATOM      8  C   UNL     1       0.825  -4.236   8.675  0.00  0.00    +0.030 A 
ATOM      9  C   UNL     1       0.086  -3.647   9.695  0.00  0.00    +0.024 A 
ATOM     10  C   UNL     1      -0.241  -4.374  10.819  0.00  0.00    +0.010 A 
ATOM     11  C   UNL     1       0.170  -5.702  10.933  0.00  0.00    -0.018 A 
ATOM     12  C   UNL     1       0.911  -6.290   9.909  0.00  0.00    +0.010 A 
ATOM     13  C   UNL     1       1.231  -5.561   8.784  0.00  0.00    +0.024 A 
BRANCH  11  14
ATOM     14  C   UNL     1      -0.181  -6.486  12.142  0.00  0.00    -0.015 A 
ATOM     15  C   UNL     1      -0.928  -5.915  13.177  0.00  0.00    +0.028 A 
ATOM     16  C   UNL     1      -1.231  -6.681  14.283  0.00  0.00    +0.111 A 
ATOM     17  N   UNL     1      -0.827  -7.933  14.372  0.00  0.00    -0.263 NA
ATOM     18  C   UNL     1      -0.120  -8.510  13.418  0.00  0.00    +0.111 A 
ATOM     19  C   UNL     1       0.222  -7.818  12.275  0.00  0.00    +0.028 A 
ENDBRANCH  11  14
ENDBRANCH   5   8
ENDBRANCH   1   2
BRANCH   1  20
ATOM     20  C   UNL     1       1.260  -2.304   2.601  0.00  0.00    -0.063 C 
BRANCH  20  21
ATOM     21  N   UNL     1       0.666  -1.923   1.313  0.00  0.00    +0.383 N 
ATOM     22  H   UNL     1      -0.240  -2.358   1.219  0.00  0.00    -0.081 HD
BRANCH  21  23
ATOM     23  C   UNL     1       1.540  -2.368   0.220  0.00  0.00    -0.063 C 
ATOM     24  C   UNL     1       2.961  -1.848   0.455  0.00  0.00    -0.009 C 
ATOM     25  C   UNL     1       3.822  -2.092  -0.786  0.00  0.00    +0.055 C 
ATOM     26  C   UNL     1       3.715  -3.560  -1.174  0.00  0.00    +0.054 A 
ATOM     27  C   UNL     1       2.692  -4.322  -0.713  0.00  0.00    +0.013 A 
ATOM     28  S   UNL     1       3.030  -5.902  -1.439  0.00  0.00    -0.057 S 
ATOM     29  C   UNL     1       4.434  -5.469  -2.264  0.00  0.00    +0.156 A 
ATOM     30  N   UNL     1       4.577  -4.197  -1.964  0.00  0.00    -0.230 NA
ATOM     31  N   UNL     1       5.241  -6.262  -3.065  0.00  0.00    -0.338 N 
ATOM     32  C   UNL     1       1.571  -3.904   0.178  0.00  0.00    +0.029 C 
ATOM     33  H   UNL     1       5.019  -7.196  -3.205  0.00  0.00    +0.144 HD
ATOM     34  H   UNL     1       6.029  -5.883  -3.486  0.00  0.00    +0.144 HD
ENDBRANCH  21  23
BRANCH  21  35
ATOM     35  C   UNL     1       0.515  -0.462   1.256  0.00  0.00    -0.079 C 
BRANCH  35  37
ATOM     36  C   UNL     1      -0.469   1.432  -0.042  0.00  0.00    +0.002 C 
ATOM     37  C   UNL     1      -0.193  -0.073  -0.043  0.00  0.00    -0.022 C 
ENDBRANCH  35  37
ENDBRANCH  21  35
ENDBRANCH  20  21
ENDBRANCH   1  20
TORSDOF 8
