REMARK  Name = ZINC06161896
REMARK  5 active torsions:
REMARK  status: ('A' for Active; 'I' for Inactive)
REMARK    1  A    between atoms: C_3  and  S_8
REMARK    2  A    between atoms: S_8  and  N_11
REMARK    3  A    between atoms: C_15  and  C_18
REMARK    4  A    between atoms: N_27  and  C_28
REMARK    5  A    between atoms: C_28  and  C_29
REMARK                            x       y       z     vdW  Elec       q    Type
REMARK                         _______ _______ _______ _____ _____    ______ ____
ROOT
ATOM      1  C   UNL     1       7.193   1.362   3.685  0.00  0.00    +0.140 A 
ATOM      2  N   UNL     1       8.451   1.151   3.361  0.00  0.00    -0.211 NA
ATOM      3  C   UNL     1       9.201   0.314   4.072  0.00  0.00    +0.186 A 
ATOM      4  C   UNL     1       8.634  -0.345   5.178  0.00  0.00    +0.197 A 
ATOM      5  C   UNL     1       7.285  -0.084   5.481  0.00  0.00    +0.303 A 
ATOM      6  N   UNL     1       6.618   0.770   4.717  0.00  0.00    -0.192 NA
ATOM      7  O   UNL     1       6.683  -0.688   6.533  0.00  0.00    -0.263 OA
ATOM      8  N   UNL     1       9.583  -1.126   5.722  0.00  0.00    -0.122 NA
ATOM      9  N   UNL     1      10.682  -1.014   5.061  0.00  0.00    -0.063 NA
ATOM     10  N   UNL     1      10.498  -0.113   4.002  0.00  0.00    -0.222 N 
ENDROOT
BRANCH   1  15
ATOM     11  N   UNL     1       4.326   2.557   1.557  0.00  0.00    -0.176 NA
ATOM     12  C   UNL     1       3.870   3.749   2.284  0.00  0.00    +0.109 C 
ATOM     13  C   UNL     1       5.090   4.460   2.879  0.00  0.00    +0.018 C 
ATOM     14  C   UNL     1       5.887   3.470   3.731  0.00  0.00    +0.014 C 
ATOM     15  C   UNL     1       6.380   2.319   2.852  0.00  0.00    +0.073 C 
ATOM     16  C   UNL     1       5.171   1.581   2.259  0.00  0.00    +0.120 C 
BRANCH  11  17
ATOM     17  S   UNL     1       3.891   2.314  -0.023  0.00  0.00    +0.061 S 
ATOM     18  O   UNL     1       4.872   1.456  -0.587  0.00  0.00    -0.153 OA
ATOM     19  O   UNL     1       3.596   3.595  -0.564  0.00  0.00    -0.153 OA
BRANCH  17  22
ATOM     20  C   UNL     1      -0.017   1.378   0.010  0.00  0.00    +0.003 A 
ATOM     21  C   UNL     1       1.171   2.086   0.002  0.00  0.00    +0.028 A 
ATOM     22  C   UNL     1       2.378   1.412  -0.013  0.00  0.00    +0.107 A 
ATOM     23  C   UNL     1       2.398   0.029  -0.021  0.00  0.00    +0.048 A 
ATOM     24  C   UNL     1       1.210  -0.679  -0.013  0.00  0.00    +0.043 A 
ATOM     25  C   UNL     1       0.002  -0.004   0.002  0.00  0.00    +0.020 A 
ATOM     26 CL   UNL     1       1.234  -2.415  -0.024  0.00  0.00    -0.083 Cl
ENDBRANCH  17  22
ENDBRANCH  11  17
ENDBRANCH   1  15
BRANCH  10  27
ATOM     27  C   UNL     1      11.501   0.292   3.014  0.00  0.00    +0.182 C 
BRANCH  27  28
ATOM     28  C   UNL     1      12.243   1.503   3.518  0.00  0.00    -0.026 A 
ATOM     29  C   UNL     1      11.774   2.771   3.228  0.00  0.00    +0.008 A 
ATOM     30  C   UNL     1      12.453   3.882   3.691  0.00  0.00    +0.038 A 
ATOM     31  C   UNL     1      13.604   3.726   4.444  0.00  0.00    +0.123 A 
ATOM     32  C   UNL     1      14.073   2.455   4.734  0.00  0.00    +0.038 A 
ATOM     33  C   UNL     1      13.389   1.346   4.275  0.00  0.00    +0.008 A 
ATOM     34  F   UNL     1      14.269   4.811   4.897  0.00  0.00    -0.205 F 
ENDBRANCH  27  28
ENDBRANCH  10  27
TORSDOF 5
