REMARK  Name = ZINC03007119
REMARK  12 active torsions:
REMARK  status: ('A' for Active; 'I' for Inactive)
REMARK    1  A    between atoms: C_1  and  C_2
REMARK    2  A    between atoms: C_2  and  C_3
REMARK    3  A    between atoms: C_2  and  N_65
REMARK    4  A    between atoms: C_9  and  N_15
REMARK    5  A    between atoms: C_10  and  C_11
REMARK    6  A    between atoms: C_11  and  O_13
REMARK    7  A    between atoms: O_13  and  C_14
REMARK    8  A    between atoms: C_16  and  C_18
REMARK    9  A    between atoms: C_21  and  S_24
REMARK   10  A    between atoms: S_24  and  N_27
REMARK   11  A    between atoms: N_27  and  C_28
REMARK   12  A    between atoms: N_27  and  C_29
REMARK                            x       y       z     vdW  Elec       q    Type
REMARK                         _______ _______ _______ _____ _____    ______ ____
ROOT
ATOM      1  N   UNL     1       0.465   2.687   2.257  0.00  0.00    -0.275 N 
ATOM      2  C   UNL     1       1.312   3.136   3.204  0.00  0.00    +0.249 C 
ATOM      3  O   UNL     1       2.242   3.856   2.896  0.00  0.00    -0.270 OA
ATOM      4  H   UNL     1      -0.277   2.112   2.502  0.00  0.00    +0.156 HD
ENDROOT
BRANCH   1  10
ATOM      5  C   UNL     1       0.044   3.981  -3.802  0.00  0.00    -0.073 C 
ATOM      6  C   UNL     1      -0.407   2.931  -2.781  0.00  0.00    +0.018 C 
ATOM      7  C   UNL     1       0.309   3.211  -1.465  0.00  0.00    -0.025 A 
ATOM      8  C   UNL     1       1.409   3.997  -1.444  0.00  0.00    -0.021 A 
ATOM      9  S   UNL     1       1.895   4.050   0.256  0.00  0.00    -0.079 S 
ATOM     10  C   UNL     1       0.654   3.046   0.932  0.00  0.00    +0.086 A 
ATOM     11  C   UNL     1      -0.104   2.688  -0.176  0.00  0.00    +0.091 A 
ATOM     12  C   UNL     1       2.049   4.661  -2.623  0.00  0.00    -0.035 C 
ATOM     13  N   UNL     1       1.520   4.015  -3.849  0.00  0.00    +0.384 N 
ATOM     14  H   UNL     1       1.876   3.054  -3.901  0.00  0.00    -0.081 HD
BRANCH  13  16
ATOM     15  C   UNL     1       3.492   4.910  -4.998  0.00  0.00    -0.014 C 
ATOM     16  C   UNL     1       1.970   4.758  -5.046  0.00  0.00    -0.074 C 
ATOM     17  C   UNL     1       1.576   3.969  -6.296  0.00  0.00    -0.014 C 
ENDBRANCH  13  16
BRANCH  11  18
ATOM     18  C   UNL     1      -1.278   1.822  -0.047  0.00  0.00    +0.342 C 
ATOM     19  O   UNL     1      -1.157   0.616  -0.142  0.00  0.00    -0.245 OA
BRANCH  18  20
ATOM     20  O   UNL     1      -2.494   2.363   0.171  0.00  0.00    -0.464 OA
ATOM     21  C   UNL     1      -3.614   1.445   0.283  0.00  0.00    +0.280 C 
ENDBRANCH  18  20
ENDBRANCH  11  18
ENDBRANCH   1  10
BRANCH   2  22
ATOM     22  C   UNL     1       1.111   2.752   4.617  0.00  0.00    +0.037 A 
ATOM     23  C   UNL     1       0.041   1.930   4.975  0.00  0.00    +0.015 A 
ATOM     24  C   UNL     1      -0.139   1.572   6.295  0.00  0.00    +0.029 A 
ATOM     25  C   UNL     1       0.733   2.035   7.265  0.00  0.00    +0.109 A 
ATOM     26  C   UNL     1       1.792   2.854   6.918  0.00  0.00    +0.029 A 
ATOM     27  C   UNL     1       1.986   3.216   5.601  0.00  0.00    +0.015 A 
BRANCH  25  28
ATOM     28  S   UNL     1       0.492   1.578   8.950  0.00  0.00    +0.074 S 
ATOM     29  O   UNL     1      -0.246   0.364   8.940  0.00  0.00    -0.150 OA
ATOM     30  O   UNL     1       1.757   1.695   9.587  0.00  0.00    -0.150 OA
BRANCH  28  31
ATOM     31  N   UNL     1      -0.489   2.724   9.632  0.00  0.00    -0.206 N 
ATOM     32  C   UNL     1      -1.944   2.616   9.498  0.00  0.00    +0.157 C 
BRANCH  31  33
ATOM     33  C   UNL     1       0.070   3.793  10.335  0.00  0.00    +0.051 A 
ATOM     34  C   UNL     1       0.853   3.555  11.457  0.00  0.00    +0.025 A 
ATOM     35  C   UNL     1       1.408   4.615  12.147  0.00  0.00    +0.002 A 
ATOM     36  C   UNL     1       1.176   5.913  11.728  0.00  0.00    +0.000 A 
ATOM     37  C   UNL     1       0.393   6.153  10.615  0.00  0.00    +0.002 A 
ATOM     38  C   UNL     1      -0.161   5.098   9.917  0.00  0.00    +0.025 A 
ENDBRANCH  31  33
ENDBRANCH  28  31
ENDBRANCH  25  28
ENDBRANCH   2  22
TORSDOF 8
