REMARK  Name = ZINC20833698
REMARK  11 active torsions:
REMARK  status: ('A' for Active; 'I' for Inactive)
REMARK    1  A    between atoms: C_1  and  C_2
REMARK    2  A    between atoms: C_2  and  C_3
REMARK    3  A    between atoms: C_3  and  C_5
REMARK    4  A    between atoms: C_3  and  C_6
REMARK    5  A    between atoms: C_9  and  N_12
REMARK    6  A    between atoms: C_13  and  C_15
REMARK    7  A    between atoms: C_15  and  C_16
REMARK    8  A    between atoms: C_16  and  S_17
REMARK    9  A    between atoms: S_17  and  C_18
REMARK   10  A    between atoms: N_23  and  N_24
REMARK   11  A    between atoms: C_25  and  C_26
REMARK                            x       y       z     vdW  Elec       q    Type
REMARK                         _______ _______ _______ _____ _____    ______ ____
ROOT
ATOM      1  S   UNL     1      -0.883   1.698  -1.462  0.00  0.00    -0.084 S 
ENDROOT
BRANCH   1   2
ATOM      2  C   UNL     1       0.049   1.049  -2.809  0.00  0.00    +0.210 A 
ATOM      3  N   UNL     1      -0.220   1.238  -4.135  0.00  0.00    -0.186 NA
ATOM      4  C   UNL     1       0.733   0.575  -4.858  0.00  0.00    +0.232 A 
ATOM      5  N   UNL     1       1.555   0.001  -4.013  0.00  0.00    -0.245 N 
ATOM      6  N   UNL     1       1.125   0.306  -2.715  0.00  0.00    -0.144 NA
ATOM      7  N   UNL     1       0.815   0.520  -6.242  0.00  0.00    -0.205 N 
ATOM      8  H   UNL     1       0.068   1.041  -6.858  0.00  0.00    +0.177 HD
ATOM      9  H   UNL     1       2.402  -0.593  -4.388  0.00  0.00    +0.192 HD
BRANCH   7  10
ATOM     10  N   UNL     1       1.849  -0.201  -6.854  0.00  0.00    -0.188 NA
ATOM     11  C   UNL     1       1.926  -0.252  -8.149  0.00  0.00    +0.138 C 
BRANCH  11  12
ATOM     12  C   UNL     1       3.014  -1.010  -8.793  0.00  0.00    -0.005 A 
ATOM     13  C   UNL     1       3.968  -1.669  -8.013  0.00  0.00    +0.010 A 
ATOM     14  C   UNL     1       4.980  -2.381  -8.622  0.00  0.00    +0.016 A 
ATOM     15  C   UNL     1       5.059  -2.434 -10.003  0.00  0.00    +0.018 A 
ATOM     16  C   UNL     1       4.121  -1.779 -10.782  0.00  0.00    +0.016 A 
ATOM     17  C   UNL     1       3.100  -1.068 -10.186  0.00  0.00    +0.010 A 
ATOM     18 BR   UNL     1       6.456  -3.405 -10.829  0.00  0.00    -0.050 Br
ENDBRANCH  11  12
ENDBRANCH   7  10
ENDBRANCH   1   2
BRANCH   1  19
ATOM     19  C   UNL     1      -0.011   1.088   0.008  0.00  0.00    +0.086 C 
BRANCH  19  20
ATOM     20  C   UNL     1      -0.725   1.585   1.267  0.00  0.00    +0.107 C 
BRANCH  20  22
ATOM     21  N   UNL     1      -0.453   1.393   3.718  0.00  0.00    -0.285 N 
ATOM     22  C   UNL     1      -0.001   1.079   2.488  0.00  0.00    +0.218 C 
ATOM     23  O   UNL     1       0.989   0.389   2.363  0.00  0.00    -0.275 OA
ATOM     24  H   UNL     1      -1.304   2.080   3.832  0.00  0.00    +0.155 HD
BRANCH  21  28
ATOM     25  C   UNL     1       1.373  -0.240   7.088  0.00  0.00    -0.044 A 
ATOM     26  C   UNL     1       2.133   0.079   5.977  0.00  0.00    +0.006 A 
ATOM     27  C   UNL     1       1.531   0.621   4.859  0.00  0.00    +0.023 A 
ATOM     28  C   UNL     1       0.160   0.845   4.850  0.00  0.00    +0.033 A 
ATOM     29  C   UNL     1      -0.599   0.529   5.969  0.00  0.00    +0.023 A 
ATOM     30  C   UNL     1       0.009  -0.017   7.082  0.00  0.00    +0.006 A 
BRANCH  25  31
ATOM     31  C   UNL     1       2.034  -0.830   8.307  0.00  0.00    +0.016 C 
ATOM     32  C   UNL     1       1.434  -2.207   8.596  0.00  0.00    +0.012 C 
BRANCH  31  34
ATOM     33  C   UNL     1       2.577  -0.445  10.715  0.00  0.00    +0.004 C 
ATOM     34  C   UNL     1       1.803   0.089   9.508  0.00  0.00    +0.004 C 
ENDBRANCH  31  34
ENDBRANCH  25  31
ENDBRANCH  21  28
ENDBRANCH  20  22
ENDBRANCH  19  20
ENDBRANCH   1  19
TORSDOF 9
