REMARK  Name = ZINC09884196
REMARK  8 active torsions:
REMARK  status: ('A' for Active; 'I' for Inactive)
REMARK    1  A    between atoms: C_1  and  C_2
REMARK    2  A    between atoms: C_2  and  O_3
REMARK    3  A    between atoms: O_3  and  C_4
REMARK    4  A    between atoms: C_4  and  C_6
REMARK    5  A    between atoms: C_10  and  N_11
REMARK    6  A    between atoms: C_12  and  C_14
REMARK    7  A    between atoms: C_14  and  N_15
REMARK    8  A    between atoms: C_32  and  C_36
REMARK                            x       y       z     vdW  Elec       q    Type
REMARK                         _______ _______ _______ _____ _____    ______ ____
ROOT
ATOM      1  N   UNL     1       5.389   4.794  -3.888  0.00  0.00    -0.278 N 
ATOM      2  C   UNL     1       4.696   4.235  -2.877  0.00  0.00    +0.236 C 
ATOM      3  O   UNL     1       3.715   4.793  -2.433  0.00  0.00    -0.274 OA
ATOM      4  H   UNL     1       6.173   4.347  -4.244  0.00  0.00    +0.155 HD
ENDROOT
BRANCH   1   9
ATOM      5  C   UNL     1       5.562   6.736  -5.450  0.00  0.00    +0.091 A 
ATOM      6  C   UNL     1       4.929   7.989  -5.825  0.00  0.00    -0.021 A 
ATOM      7  C   UNL     1       3.832   8.316  -5.109  0.00  0.00    -0.004 A 
ATOM      8  S   UNL     1       3.628   6.985  -3.959  0.00  0.00    -0.077 S 
ATOM      9  C   UNL     1       4.982   6.007  -4.421  0.00  0.00    +0.086 A 
ATOM     10  C   UNL     1       2.982   9.539  -5.265  0.00  0.00    +0.046 C 
ATOM     11  C   UNL     1       3.320  10.194  -6.612  0.00  0.00    -0.009 C 
ATOM     12  C   UNL     1       4.843  10.294  -6.743  0.00  0.00    +0.008 C 
ATOM     13  C   UNL     1       5.441   8.899  -6.935  0.00  0.00    +0.037 C 
ATOM     14  C   UNL     1       2.705  11.594  -6.671  0.00  0.00    +0.008 C 
BRANCH   5  15
ATOM     15  C   UNL     1       6.765   6.258  -6.135  0.00  0.00    +0.342 C 
ATOM     16  O   UNL     1       6.663   5.551  -7.120  0.00  0.00    -0.245 OA
BRANCH  15  17
ATOM     17  O   UNL     1       7.985   6.602  -5.675  0.00  0.00    -0.461 OA
BRANCH  17  19
ATOM     18  C   UNL     1      10.419   6.583  -5.739  0.00  0.00    +0.048 C 
ATOM     19  C   UNL     1       9.133   6.091  -6.404  0.00  0.00    +0.229 C 
ENDBRANCH  17  19
ENDBRANCH  15  17
ENDBRANCH   5  15
ENDBRANCH   1   9
BRANCH   2  20
ATOM     20  C   UNL     1       5.139   2.916  -2.298  0.00  0.00    +0.214 C 
BRANCH  20  21
ATOM     21  N   UNL     1       4.227   2.525  -1.220  0.00  0.00    -0.215 N 
ATOM     22  C   UNL     1       3.115   1.784  -1.399  0.00  0.00    +0.251 C 
ATOM     23  O   UNL     1       2.694   1.332  -2.443  0.00  0.00    -0.272 OA
ATOM     24  C   UNL     1       2.502   1.634  -0.025  0.00  0.00    +0.138 C 
ATOM     25  C   UNL     1       2.452   0.164   0.374  0.00  0.00    +0.040 C 
ATOM     26  C   UNL     1       1.362  -0.525  -0.456  0.00  0.00    +0.008 C 
ATOM     27  C   UNL     1       0.002  -0.004   0.002  0.00  0.00    +0.035 C 
ATOM     28  C   UNL     1      -0.018   1.502   0.010  0.00  0.00    -0.042 A 
ATOM     29  C   UNL     1       1.135   2.257   0.003  0.00  0.00    -0.012 A 
ATOM     30  C   UNL     1       1.048   3.643   0.020  0.00  0.00    +0.006 A 
ATOM     31  C   UNL     1      -0.181   4.269   0.038  0.00  0.00    +0.000 A 
ATOM     32  C   UNL     1      -1.337   3.511   0.039  0.00  0.00    +0.000 A 
ATOM     33  C   UNL     1      -1.254   2.134   0.031  0.00  0.00    +0.004 A 
ATOM     34  N   UNL     1       3.418   2.373   0.854  0.00  0.00    -0.281 N 
ATOM     35  C   UNL     1       4.396   2.858   0.065  0.00  0.00    +0.310 C 
ATOM     36  O   UNL     1       5.326   3.525   0.474  0.00  0.00    -0.252 OA
ATOM     37  H   UNL     1       3.335   2.489   1.814  0.00  0.00    +0.152 HD
ENDBRANCH  20  21
ENDBRANCH   2  20
TORSDOF 6
