REMARK  Name = ZINC08835240
REMARK  5 active torsions:
REMARK  status: ('A' for Active; 'I' for Inactive)
REMARK    1  A    between atoms: C_8  and  C_10
REMARK    2  A    between atoms: C_14  and  N_16
REMARK    3  A    between atoms: N_16  and  C_17
REMARK    4  A    between atoms: C_17  and  N_19
REMARK    5  A    between atoms: C_20  and  C_22
REMARK                            x       y       z     vdW  Elec       q    Type
REMARK                         _______ _______ _______ _____ _____    ______ ____
ROOT
ATOM      1  C   UNL     1      -1.260  -0.877  -0.416  0.00  0.00    +0.039 A 
ATOM      2  C   UNL     1      -2.456  -0.295   0.008  0.00  0.00    +0.015 A 
ATOM      3  C   UNL     1      -3.506  -1.093   0.414  0.00  0.00    +0.022 A 
ATOM      4  C   UNL     1      -3.374  -2.471   0.412  0.00  0.00    +0.062 A 
ATOM      5  C   UNL     1      -2.184  -3.059  -0.003  0.00  0.00    +0.052 A 
ATOM      6  C   UNL     1      -1.126  -2.266  -0.417  0.00  0.00    +0.038 A 
ATOM      7 CL   UNL     1      -4.697  -3.467   0.931  0.00  0.00    -0.082 Cl
ENDROOT
BRANCH   1  15
ATOM      8  C   UNL     1       2.894   3.054  -2.070  0.00  0.00    +0.023 A 
ATOM      9  C   UNL     1       1.595   2.994  -1.592  0.00  0.00    +0.051 A 
ATOM     10  C   UNL     1       1.042   1.745  -1.347  0.00  0.00    +0.174 A 
ATOM     11  C   UNL     1       1.810   0.593  -1.589  0.00  0.00    +0.199 A 
ATOM     12  N   UNL     1       3.054   0.704  -2.047  0.00  0.00    -0.233 NA
ATOM     13  C   UNL     1       3.596   1.879  -2.286  0.00  0.00    +0.113 A 
ATOM     14  N   UNL     1       1.027  -0.467  -1.266  0.00  0.00    -0.189 NA
ATOM     15  C   UNL     1      -0.136  -0.024  -0.856  0.00  0.00    +0.230 A 
ATOM     16  O   UNL     1      -0.157   1.321  -0.893  0.00  0.00    -0.434 OA
ENDBRANCH   1  15
BRANCH   5  17
ATOM     17  N   UNL     1      -2.055  -4.453  -0.003  0.00  0.00    -0.295 N 
ATOM     18  H   UNL     1      -2.774  -5.006  -0.348  0.00  0.00    +0.154 HD
BRANCH  17  19
ATOM     19  C   UNL     1      -0.934  -5.026   0.476  0.00  0.00    +0.141 C 
ATOM     20  S   UNL     1       0.274  -4.061   1.212  0.00  0.00    -0.018 S 
BRANCH  19  21
ATOM     21  N   UNL     1      -0.762  -6.359   0.376  0.00  0.00    -0.264 N 
ATOM     22  C   UNL     1       0.359  -6.932   0.855  0.00  0.00    +0.250 C 
ATOM     23  O   UNL     1       1.216  -6.247   1.377  0.00  0.00    -0.270 OA
ATOM     24  H   UNL     1      -1.446  -6.906  -0.042  0.00  0.00    +0.157 HD
BRANCH  22  25
ATOM     25  C   UNL     1       0.547  -8.393   0.745  0.00  0.00    +0.039 A 
ATOM     26  C   UNL     1      -0.438  -9.184   0.150  0.00  0.00    +0.014 A 
ATOM     27  C   UNL     1      -0.255 -10.546   0.043  0.00  0.00    +0.022 A 
ATOM     28  C   UNL     1       0.899 -11.133   0.537  0.00  0.00    +0.059 A 
ATOM     29  C   UNL     1       1.878 -10.355   1.134  0.00  0.00    +0.060 A 
ATOM     30  C   UNL     1       1.708  -8.990   1.240  0.00  0.00    +0.034 A 
ATOM     31 CL   UNL     1       3.321 -11.100   1.749  0.00  0.00    -0.082 Cl
ATOM     32 CL   UNL     1       1.119 -12.851   0.406  0.00  0.00    -0.082 Cl
ENDBRANCH  22  25
ENDBRANCH  19  21
ENDBRANCH  17  19
ENDBRANCH   5  17
TORSDOF 5
