REMARK  Name = ZINC34750191
REMARK  11 active torsions:
REMARK  status: ('A' for Active; 'I' for Inactive)
REMARK    1  A    between atoms: C_1  and  C_2
REMARK    2  A    between atoms: C_2  and  N_3
REMARK    3  A    between atoms: N_3  and  C_4
REMARK    4  A    between atoms: C_4  and  C_5
REMARK    5  A    between atoms: C_6  and  C_8
REMARK    6  A    between atoms: C_8  and  S_9
REMARK    7  A    between atoms: S_9  and  C_10
REMARK    8  A    between atoms: C_21  and  C_23
REMARK    9  A    between atoms: C_21  and  C_24
REMARK   10  A    between atoms: N_28  and  C_31
REMARK   11  A    between atoms: C_31  and  C_32
REMARK                            x       y       z     vdW  Elec       q    Type
REMARK                         _______ _______ _______ _____ _____    ______ ____
ROOT
ATOM      1  C   UNL     1      -3.880  -0.559  -3.863  0.00  0.00    +0.191 A 
ATOM      2  N   UNL     1      -4.664  -0.757  -4.917  0.00  0.00    -0.206 NA
ATOM      3  C   UNL     1      -5.965  -0.527  -4.878  0.00  0.00    +0.134 A 
ATOM      4  C   UNL     1      -6.553  -0.052  -3.672  0.00  0.00    +0.051 A 
ATOM      5  C   UNL     1      -7.953   0.269  -3.399  0.00  0.00    -0.020 A 
ATOM      6  C   UNL     1      -8.252   0.707  -2.157  0.00  0.00    +0.021 A 
ATOM      7  S   UNL     1      -6.710   0.717  -1.287  0.00  0.00    -0.071 S 
ATOM      8  C   UNL     1      -5.662   0.134  -2.595  0.00  0.00    +0.115 A 
ATOM      9  N   UNL     1      -4.374  -0.123  -2.712  0.00  0.00    -0.214 NA
ATOM     10  C   UNL     1      -9.610   1.094  -1.657  0.00  0.00    +0.203 C 
ATOM     11  O   UNL     1     -10.477   1.228  -2.794  0.00  0.00    -0.368 OA
ATOM     12  C   UNL     1     -10.405   0.123  -3.699  0.00  0.00    +0.068 C 
ATOM     13  C   UNL     1      -9.064   0.133  -4.437  0.00  0.00    +0.071 C 
ATOM     14  C   UNL     1     -10.544  -1.184  -2.915  0.00  0.00    +0.041 C 
ATOM     15  C   UNL     1     -11.544   0.225  -4.715  0.00  0.00    +0.041 C 
ATOM     16  N   UNL     1      -6.747  -0.746  -5.998  0.00  0.00    -0.318 N 
ATOM     17  C   UNL     1      -7.069   0.353  -6.921  0.00  0.00    +0.088 C 
ATOM     18  C   UNL     1      -6.744  -0.101  -8.348  0.00  0.00    -0.059 C 
ATOM     19  N   UNL     1      -7.448  -1.358  -8.633  0.00  0.00    +0.387 N 
ATOM     20  C   UNL     1      -6.945  -2.422  -7.756  0.00  0.00    -0.059 C 
ATOM     21  C   UNL     1      -7.275  -2.084  -6.302  0.00  0.00    +0.088 C 
ATOM     22  H   UNL     1      -8.437  -1.232  -8.474  0.00  0.00    -0.081 HD
ENDROOT
BRANCH   1  23
ATOM     23  S   UNL     1      -2.155  -0.889  -3.994  0.00  0.00    -0.077 S 
BRANCH  23  24
ATOM     24  C   UNL     1      -1.505  -0.493  -2.348  0.00  0.00    +0.173 C 
BRANCH  24  26
ATOM     25  N   UNL     1       0.683  -0.506  -1.194  0.00  0.00    -0.301 N 
ATOM     26  C   UNL     1      -0.018  -0.735  -2.322  0.00  0.00    +0.226 C 
ATOM     27  O   UNL     1       0.548  -1.135  -3.317  0.00  0.00    -0.275 OA
BRANCH  25  29
ATOM     28  C   UNL     1      -0.011   1.507   0.009  0.00  0.00    +0.024 C 
ATOM     29  C   UNL     1      -0.001  -0.023   0.008  0.00  0.00    +0.104 C 
ENDBRANCH  25  29
BRANCH  25  30
ATOM     30  C   UNL     1       2.129  -0.742  -1.169  0.00  0.00    +0.104 C 
ATOM     31  C   UNL     1       2.403  -2.185  -0.743  0.00  0.00    +0.024 C 
ENDBRANCH  25  30
ENDBRANCH  24  26
ENDBRANCH  23  24
ENDBRANCH   1  23
BRANCH  19  32
ATOM     32  C   UNL     1      -7.225  -1.735 -10.035  0.00  0.00    +0.018 C 
BRANCH  32  33
ATOM     33  C   UNL     1      -8.044  -2.957 -10.363  0.00  0.00    +0.194 C 
ATOM     34  O   UNL     1      -8.745  -3.463  -9.512  0.00  0.00    -0.278 OA
ATOM     35  N   UNL     1      -7.999  -3.486 -11.601  0.00  0.00    -0.331 N 
ATOM     36  H   UNL     1      -7.438  -3.081 -12.282  0.00  0.00    +0.145 HD
ATOM     37  H   UNL     1      -8.526  -4.273 -11.813  0.00  0.00    +0.145 HD
ENDBRANCH  32  33
ENDBRANCH  19  32
TORSDOF 7
