REMARK  Name = ZINC33113247
REMARK  7 active torsions:
REMARK  status: ('A' for Active; 'I' for Inactive)
REMARK    1  A    between atoms: C_1  and  C_2
REMARK    2  A    between atoms: C_5  and  N_9
REMARK    3  A    between atoms: C_6  and  C_8
REMARK    4  A    between atoms: C_16  and  C_19
REMARK    5  A    between atoms: C_22  and  C_24
REMARK    6  A    between atoms: N_26  and  C_27
REMARK    7  A    between atoms: C_32  and  C_33
REMARK                            x       y       z     vdW  Elec       q    Type
REMARK                         _______ _______ _______ _____ _____    ______ ____
ROOT
ATOM      1  N   UNL     1      -2.762 -10.381  -1.177  0.00  0.00    -0.269 N 
ATOM      2  C   UNL     1      -2.799  -9.034  -1.119  0.00  0.00    +0.306 C 
ATOM      3  O   UNL     1      -3.497  -8.412  -1.896  0.00  0.00    -0.252 OA
ATOM      4  N   UNL     1      -2.062  -8.379  -0.200  0.00  0.00    -0.285 N 
ATOM      5  C   UNL     1      -1.133  -9.108   0.673  0.00  0.00    +0.109 C 
ATOM      6  C   UNL     1      -1.449  -8.758   2.131  0.00  0.00    +0.020 C 
ATOM      7  C   UNL     1      -1.414  -7.238   2.305  0.00  0.00    +0.013 C 
ATOM      8  C   UNL     1      -2.478  -6.596   1.413  0.00  0.00    +0.064 C 
ATOM      9  C   UNL     1      -2.174  -6.921  -0.053  0.00  0.00    +0.119 C 
ATOM     10  H   UNL     1      -2.096 -10.942  -0.505  0.00  0.00    +0.156 HD
ENDROOT
BRANCH   1  15
ATOM     11  C   UNL     1      -6.042 -13.152  -4.885  0.00  0.00    +0.044 C 
ATOM     12  C   UNL     1      -5.170 -12.416  -3.900  0.00  0.00    -0.050 A 
ATOM     13  C   UNL     1      -4.723 -11.140  -4.193  0.00  0.00    +0.005 A 
ATOM     14  C   UNL     1      -3.928 -10.461  -3.290  0.00  0.00    +0.024 A 
ATOM     15  C   UNL     1      -3.570 -11.064  -2.091  0.00  0.00    +0.038 A 
ATOM     16  C   UNL     1      -4.021 -12.345  -1.800  0.00  0.00    -0.029 A 
ATOM     17  C   UNL     1      -4.820 -13.017  -2.705  0.00  0.00    +0.008 A 
ATOM     18  C   UNL     1      -3.640 -13.001  -0.498  0.00  0.00    +0.045 C 
ENDBRANCH   1  15
BRANCH   8  19
ATOM     19  C   UNL     1      -2.465  -5.102   1.609  0.00  0.00    +0.107 A 
ATOM     20  N   UNL     1      -1.485  -4.237   1.411  0.00  0.00    -0.145 NA
ATOM     21  N   UNL     1      -1.630  -3.001   1.624  0.00  0.00    -0.136 NA
ATOM     22  C   UNL     1      -2.794  -2.528   2.061  0.00  0.00    +0.187 A 
ATOM     23  S   UNL     1      -3.731  -4.048   2.165  0.00  0.00    -0.046 S 
BRANCH  22  24
ATOM     24  C   UNL     1      -3.195  -1.146   2.375  0.00  0.00    +0.275 C 
ATOM     25  O   UNL     1      -4.322  -0.914   2.768  0.00  0.00    -0.268 OA
ATOM     26  N   UNL     1      -2.312  -0.138   2.228  0.00  0.00    -0.280 N 
ATOM     27  H   UNL     1      -1.313  -0.338   1.813  0.00  0.00    +0.155 HD
BRANCH  26  28
ATOM     28  C   UNL     1      -2.667   1.162   2.601  0.00  0.00    +0.037 A 
ATOM     29  C   UNL     1      -3.998   1.558   2.565  0.00  0.00    +0.023 A 
ATOM     30  C   UNL     1      -4.345   2.841   2.939  0.00  0.00    +0.002 A 
ATOM     31  C   UNL     1      -3.369   3.735   3.340  0.00  0.00    +0.000 A 
ATOM     32  C   UNL     1      -2.042   3.345   3.372  0.00  0.00    +0.005 A 
ATOM     33  C   UNL     1      -1.689   2.062   3.003  0.00  0.00    -0.029 A 
ATOM     34  C   UNL     1      -0.243   1.639   3.037  0.00  0.00    +0.045 C 
ENDBRANCH  26  28
ENDBRANCH  22  24
ENDBRANCH   8  19
TORSDOF 4
