REMARK  Name = ZINC08822591
REMARK  7 active torsions:
REMARK  status: ('A' for Active; 'I' for Inactive)
REMARK    1  A    between atoms: C_1  and  C_2
REMARK    2  A    between atoms: N_4  and  C_5
REMARK    3  A    between atoms: C_9  and  N_11
REMARK    4  A    between atoms: C_12  and  C_14
REMARK    5  A    between atoms: C_14  and  S_15
REMARK    6  A    between atoms: S_15  and  C_16
REMARK    7  A    between atoms: C_22  and  C_24
REMARK                            x       y       z     vdW  Elec       q    Type
REMARK                         _______ _______ _______ _____ _____    ______ ____
ROOT
ATOM      1  S   UNL     1      -4.642  -8.734   0.822  0.00  0.00    -0.088 S 
ENDROOT
BRANCH   1   2
ATOM      2  C   UNL     1      -6.258  -9.422   0.967  0.00  0.00    +0.160 A 
ATOM      3  N   UNL     1      -7.443  -8.833   0.912  0.00  0.00    -0.133 NA
ATOM      4  N   UNL     1      -8.517  -9.482   1.036  0.00  0.00    -0.125 NA
ATOM      5  C   UNL     1      -8.527 -10.791   1.228  0.00  0.00    +0.189 A 
ATOM      6  S   UNL     1      -6.767 -11.120   1.222  0.00  0.00    -0.024 S 
ATOM      7  N   UNL     1      -9.600 -11.664   1.385  0.00  0.00    -0.259 N 
ATOM      8  C   UNL     1     -10.862 -11.193   1.350  0.00  0.00    +0.250 C 
ATOM      9  O   UNL     1     -11.064 -10.006   1.181  0.00  0.00    -0.270 OA
ATOM     10  H   UNL     1      -9.438 -12.611   1.520  0.00  0.00    +0.157 HD
BRANCH   8  11
ATOM     11  C   UNL     1     -12.001 -12.120   1.516  0.00  0.00    +0.038 A 
ATOM     12  C   UNL     1     -13.310 -11.636   1.480  0.00  0.00    +0.013 A 
ATOM     13  C   UNL     1     -14.369 -12.506   1.636  0.00  0.00    +0.002 A 
ATOM     14  C   UNL     1     -14.136 -13.857   1.827  0.00  0.00    +0.015 A 
ATOM     15  C   UNL     1     -12.841 -14.344   1.864  0.00  0.00    +0.019 A 
ATOM     16  C   UNL     1     -11.773 -13.484   1.704  0.00  0.00    +0.028 A 
ATOM     17 BR   UNL     1     -12.535 -16.192   2.126  0.00  0.00    -0.050 Br
ENDBRANCH   8  11
ENDBRANCH   1   2
BRANCH   1  18
ATOM     18  C   UNL     1      -4.941  -6.963   0.571  0.00  0.00    +0.172 C 
BRANCH  18  20
ATOM     19  N   UNL     1      -3.598  -4.913   0.234  0.00  0.00    -0.285 N 
ATOM     20  C   UNL     1      -3.622  -6.246   0.430  0.00  0.00    +0.227 C 
ATOM     21  O   UNL     1      -2.584  -6.869   0.494  0.00  0.00    -0.275 OA
ATOM     22  H   UNL     1      -4.428  -4.424   0.117  0.00  0.00    +0.155 HD
BRANCH  19  27
ATOM     23  C   UNL     1      -1.064  -2.280   0.685  0.00  0.00    +0.035 A 
ATOM     24  C   UNL     1       0.050  -2.894   0.127  0.00  0.00    +0.023 A 
ATOM     25  C   UNL     1      -0.049  -4.171  -0.391  0.00  0.00    +0.004 A 
ATOM     26  C   UNL     1      -1.257  -4.841  -0.357  0.00  0.00    +0.023 A 
ATOM     27  C   UNL     1      -2.375  -4.233   0.200  0.00  0.00    +0.035 A 
ATOM     28  C   UNL     1      -2.277  -2.953   0.727  0.00  0.00    +0.046 A 
BRANCH  23  32
ATOM     29  C   UNL     1      -1.942   1.207   1.796  0.00  0.00    +0.109 C 
ATOM     30  C   UNL     1      -2.010  -0.143   1.130  0.00  0.00    +0.214 C 
ATOM     31  O   UNL     1      -3.007  -0.470   0.523  0.00  0.00    -0.276 OA
ATOM     32  N   UNL     1      -0.962  -0.988   1.210  0.00  0.00    -0.286 N 
ATOM     33  H   UNL     1      -0.138  -0.699   1.632  0.00  0.00    +0.155 HD
ENDBRANCH  23  32
ENDBRANCH  19  27
ENDBRANCH  18  20
ENDBRANCH   1  18
TORSDOF 6
