REMARK  Name = ZINC62954207
REMARK  3 active torsions:
REMARK  status: ('A' for Active; 'I' for Inactive)
REMARK    1  A    between atoms: C_3  and  N_12
REMARK    2  A    between atoms: C_6  and  C_7
REMARK    3  A    between atoms: N_8  and  O_9
REMARK                            x       y       z     vdW  Elec       q    Type
REMARK                         _______ _______ _______ _____ _____    ______ ____
ROOT
ATOM      1  C   UNL     1       0.005   1.379   0.028  0.00  0.00    +0.013 A 
ATOM      2  C   UNL     1       1.195   2.072  -0.007  0.00  0.00    +0.025 A 
ATOM      3  C   UNL     1       2.400   1.384  -0.100  0.00  0.00    +0.048 A 
ATOM      4  C   UNL     1       2.407  -0.007  -0.157  0.00  0.00    +0.063 A 
ATOM      5  C   UNL     1       1.219  -0.705  -0.121  0.00  0.00    +0.033 A 
ATOM      6  C   UNL     1       0.009  -0.016  -0.028  0.00  0.00    +0.019 A 
ATOM      7 CL   UNL     1       3.913  -0.863  -0.274  0.00  0.00    -0.082 Cl
ENDROOT
BRANCH   3   8
ATOM      8  N   UNL     1       3.603   2.088  -0.136  0.00  0.00    -0.329 N 
ATOM      9  C   UNL     1       4.177   2.522  -1.417  0.00  0.00    +0.105 C 
ATOM     10  C   UNL     1       5.616   2.002  -1.512  0.00  0.00    +0.026 C 
ATOM     11  C   UNL     1       6.395   2.438  -0.277  0.00  0.00    -0.026 C 
ATOM     12  C   UNL     1       7.860   1.962  -0.380  0.00  0.00    +0.007 C 
ATOM     13  C   UNL     1       8.608   2.957   0.543  0.00  0.00    +0.001 C 
ATOM     14  C   UNL     1       7.897   4.305   0.303  0.00  0.00    +0.001 C 
ATOM     15  C   UNL     1       6.485   3.971  -0.213  0.00  0.00    +0.007 C 
ATOM     16  C   UNL     1       5.756   1.890   0.994  0.00  0.00    +0.026 C 
ATOM     17  C   UNL     1       4.316   2.414   1.107  0.00  0.00    +0.105 C 
ENDBRANCH   3   8
BRANCH   6  18
ATOM     18  C   UNL     1      -1.268  -0.762   0.011  0.00  0.00    +0.162 C 
ATOM     19  N   UNL     1      -1.298  -1.975   0.481  0.00  0.00    -0.072 NA
ATOM     20  N   UNL     1      -2.430  -0.170  -0.453  0.00  0.00    -0.340 N 
ATOM     21  H   UNL     1      -2.408   0.734  -0.804  0.00  0.00    +0.144 HD
ATOM     22  H   UNL     1      -3.268  -0.659  -0.428  0.00  0.00    +0.144 HD
BRANCH  19  23
ATOM     23  O   UNL     1      -0.142  -2.531   1.080  0.00  0.00    -0.408 OA
ATOM     24  H   UNL     1      -0.262  -3.437   1.399  0.00  0.00    +0.328 HD
ENDBRANCH  19  23
ENDBRANCH   6  18
TORSDOF 3
