REMARK  Name = ZINC20753137
REMARK  11 active torsions:
REMARK  status: ('A' for Active; 'I' for Inactive)
REMARK    1  A    between atoms: C_1  and  C_2
REMARK    2  A    between atoms: C_2  and  C_3
REMARK    3  A    between atoms: C_2  and  C_4
REMARK    4  A    between atoms: C_2  and  C_5
REMARK    5  A    between atoms: C_11  and  C_19
REMARK    6  A    between atoms: C_19  and  O_21
REMARK    7  A    between atoms: O_21  and  C_22
REMARK    8  A    between atoms: C_22  and  C_23
REMARK    9  A    between atoms: N_25  and  C_26
REMARK   10  A    between atoms: C_30  and  S_32
REMARK   11  A    between atoms: S_32  and  N_35
REMARK                            x       y       z     vdW  Elec       q    Type
REMARK                         _______ _______ _______ _____ _____    ______ ____
ROOT
ATOM      1  C   UNL     1      -1.901   1.617   6.707  0.00  0.00    +0.341 C 
ATOM      2  O   UNL     1      -2.239   2.784   6.680  0.00  0.00    -0.245 OA
ENDROOT
BRANCH   1   8
ATOM      3  C   UNL     1       0.435   0.649   3.192  0.00  0.00    -0.001 C 
ATOM      4  C   UNL     1       1.877   1.159   3.305  0.00  0.00    +0.010 C 
ATOM      5  C   UNL     1       2.514   0.537   4.545  0.00  0.00    +0.056 C 
ATOM      6  C   UNL     1       1.639   0.750   5.755  0.00  0.00    +0.046 A 
ATOM      7  C   UNL     1       0.296   1.087   5.643  0.00  0.00    -0.011 A 
ATOM      8  C   UNL     1      -0.469   1.264   6.795  0.00  0.00    +0.073 A 
ATOM      9  C   UNL     1       0.162   1.098   8.052  0.00  0.00    +0.015 A 
ATOM     10  C   UNL     1      -0.538   1.261   9.253  0.00  0.00    +0.011 A 
ATOM     11  C   UNL     1       0.111   1.093  10.440  0.00  0.00    +0.001 A 
ATOM     12  C   UNL     1       1.463   0.759  10.473  0.00  0.00    +0.002 A 
ATOM     13  C   UNL     1       2.173   0.592   9.324  0.00  0.00    +0.028 A 
ATOM     14  C   UNL     1       1.537   0.758   8.080  0.00  0.00    +0.072 A 
ATOM     15  N   UNL     1       2.204   0.602   6.938  0.00  0.00    -0.251 NA
ATOM     16  C   UNL     1      -0.387   1.279   4.315  0.00  0.00    +0.042 C 
BRANCH   3  18
ATOM     17  C   UNL     1       0.694   0.441   0.716  0.00  0.00    +0.011 C 
ATOM     18  C   UNL     1      -0.149   1.052   1.837  0.00  0.00    -0.035 C 
ATOM     19  C   UNL     1      -0.139   2.576   1.710  0.00  0.00    +0.011 C 
ATOM     20  C   UNL     1      -1.587   0.541   1.730  0.00  0.00    +0.011 C 
ENDBRANCH   3  18
ENDBRANCH   1   8
BRANCH   1  21
ATOM     21  O   UNL     1      -2.833   0.645   6.657  0.00  0.00    -0.452 OA
BRANCH  21  22
ATOM     22  C   UNL     1      -4.220   1.065   6.571  0.00  0.00    +0.328 C 
BRANCH  22  23
ATOM     23  C   UNL     1      -5.110  -0.150   6.524  0.00  0.00    +0.255 C 
ATOM     24  O   UNL     1      -4.624  -1.260   6.560  0.00  0.00    -0.272 OA
ATOM     25  N   UNL     1      -6.448  -0.003   6.443  0.00  0.00    -0.283 N 
ATOM     26  H   UNL     1      -6.895   1.001   6.499  0.00  0.00    +0.155 HD
BRANCH  25  27
ATOM     27  C   UNL     1      -7.267  -1.126   6.289  0.00  0.00    +0.035 A 
ATOM     28  C   UNL     1      -6.819  -2.220   5.559  0.00  0.00    +0.023 A 
ATOM     29  C   UNL     1      -7.628  -3.329   5.413  0.00  0.00    +0.004 A 
ATOM     30  C   UNL     1      -8.888  -3.348   5.983  0.00  0.00    +0.028 A 
ATOM     31  C   UNL     1      -9.339  -2.259   6.705  0.00  0.00    +0.107 A 
ATOM     32  C   UNL     1      -8.533  -1.148   6.860  0.00  0.00    +0.051 A 
BRANCH  31  33
ATOM     33  S   UNL     1     -10.946  -2.287   7.429  0.00  0.00    +0.056 S 
ATOM     34  O   UNL     1     -11.290  -3.655   7.601  0.00  0.00    -0.153 OA
ATOM     35  O   UNL     1     -10.919  -1.367   8.512  0.00  0.00    -0.153 OA
BRANCH  33  36
ATOM     36  N   UNL     1     -11.998  -1.671   6.310  0.00  0.00    -0.204 NA
ATOM     37  H   UNL     1     -13.017  -1.672   6.725  0.00  0.00    +0.144 HD
ATOM     38  H   UNL     1     -11.972  -2.291   5.402  0.00  0.00    +0.144 HD
ENDBRANCH  33  36
ENDBRANCH  31  33
ENDBRANCH  25  27
ENDBRANCH  22  23
ENDBRANCH  21  22
ENDBRANCH   1  21
TORSDOF 8
