REMARK  Name = ZINC12401671
REMARK  8 active torsions:
REMARK  status: ('A' for Active; 'I' for Inactive)
REMARK    1  A    between atoms: C_1  and  C_2
REMARK    2  A    between atoms: C_2  and  C_3
REMARK    3  A    between atoms: C_2  and  S_4
REMARK    4  A    between atoms: S_4  and  C_5
REMARK    5  A    between atoms: C_16  and  C_18
REMARK    6  A    between atoms: C_16  and  C_19
REMARK    7  A    between atoms: C_30  and  C_33
REMARK    8  A    between atoms: C_31  and  N_32
REMARK                            x       y       z     vdW  Elec       q    Type
REMARK                         _______ _______ _______ _____ _____    ______ ____
ROOT
ATOM      1  C   UNL     1       5.900   3.370  -0.450  0.00  0.00    +0.160 A 
ATOM      2  N   UNL     1       4.802   4.109  -0.388  0.00  0.00    -0.133 NA
ATOM      3  N   UNL     1       3.664   3.599  -0.199  0.00  0.00    -0.124 NA
ATOM      4  C   UNL     1       3.498   2.296  -0.038  0.00  0.00    +0.194 A 
ATOM      5  S   UNL     1       5.194   1.744  -0.195  0.00  0.00    -0.024 S 
ATOM      6  N   UNL     1       2.334   1.563   0.183  0.00  0.00    -0.237 N 
ATOM      7  C   UNL     1       1.118   2.192   0.140  0.00  0.00    +0.028 C 
ATOM      8  C   UNL     1      -0.018   1.482  -0.036  0.00  0.00    +0.037 C 
ATOM      9  C   UNL     1      -1.272   2.117  -0.064  0.00  0.00    +0.163 C 
ATOM     10  O   UNL     1      -2.274   1.451  -0.233  0.00  0.00    -0.292 OA
ATOM     11  C   UNL     1      -1.396   3.607   0.107  0.00  0.00    +0.086 C 
ATOM     12  C   UNL     1      -0.230   4.108   0.965  0.00  0.00    -0.023 C 
ATOM     13  C   UNL     1       1.080   3.693   0.292  0.00  0.00    +0.058 C 
ATOM     14  C   UNL     1      -0.311   3.485   2.360  0.00  0.00    +0.011 C 
ATOM     15  C   UNL     1      -0.288   5.633   1.079  0.00  0.00    +0.011 C 
ATOM     16  C   UNL     1       0.026  -0.014  -0.202  0.00  0.00    +0.141 C 
ATOM     17  C   UNL     1      -0.235  -0.395  -1.627  0.00  0.00    -0.002 A 
ATOM     18  C   UNL     1       0.458  -0.117  -2.786  0.00  0.00    +0.007 A 
ATOM     19  C   UNL     1      -0.063  -0.631  -3.970  0.00  0.00    +0.000 A 
ATOM     20  C   UNL     1      -1.219  -1.383  -3.979  0.00  0.00    +0.002 A 
ATOM     21  C   UNL     1      -1.921  -1.666  -2.817  0.00  0.00    +0.023 A 
ATOM     22  C   UNL     1      -1.409  -1.156  -1.623  0.00  0.00    +0.038 A 
ATOM     23  N   UNL     1      -1.897  -1.281  -0.334  0.00  0.00    -0.284 N 
ATOM     24  C   UNL     1      -1.120  -0.643   0.565  0.00  0.00    +0.238 C 
ATOM     25  O   UNL     1      -1.304  -0.584   1.762  0.00  0.00    -0.274 OA
ATOM     26  C   UNL     1       1.330  -0.583   0.272  0.00  0.00    +0.089 C 
ATOM     27  C   UNL     1       2.419   0.213   0.442  0.00  0.00    +0.109 C 
ATOM     28  H   UNL     1      -2.702  -1.770  -0.105  0.00  0.00    +0.155 HD
ENDROOT
BRANCH  27  29
ATOM     29  N   UNL     1       3.606  -0.330   0.872  0.00  0.00    -0.345 N 
ATOM     30  H   UNL     1       3.746  -1.289   0.824  0.00  0.00    +0.144 HD
ATOM     31  H   UNL     1       4.303   0.245   1.224  0.00  0.00    +0.144 HD
ENDBRANCH  27  29
BRANCH  26  32
ATOM     32  C   UNL     1       1.429  -1.984   0.551  0.00  0.00    +0.100 C 
ATOM     33  N   UNL     1       1.508  -3.095   0.772  0.00  0.00    -0.191 NA
ENDBRANCH  26  32
BRANCH   1  34
ATOM     34  S   UNL     1       7.575   3.849  -0.710  0.00  0.00    -0.094 S 
BRANCH  34  36
ATOM     35  C   UNL     1       7.029   6.272   0.435  0.00  0.00    +0.019 C 
ATOM     36  C   UNL     1       7.494   5.653  -0.884  0.00  0.00    +0.047 C 
ATOM     37  C   UNL     1       8.880   6.194  -1.241  0.00  0.00    +0.019 C 
ENDBRANCH  34  36
ENDBRANCH   1  34
TORSDOF 4
