REMARK  Name = ZINC14018915
REMARK  6 active torsions:
REMARK  status: ('A' for Active; 'I' for Inactive)
REMARK    1  A    between atoms: C_4  and  C_7
REMARK    2  A    between atoms: C_9  and  C_32
REMARK    3  A    between atoms: C_10  and  N_12
REMARK    4  A    between atoms: C_13  and  C_15
REMARK    5  A    between atoms: N_20  and  S_22
REMARK    6  A    between atoms: S_22  and  C_25
REMARK                            x       y       z     vdW  Elec       q    Type
REMARK                         _______ _______ _______ _____ _____    ______ ____
ROOT
ATOM      1  N   UNL     1      -2.191   4.086   0.045  0.00  0.00    -0.279 N 
ATOM      2  C   UNL     1      -1.927   5.408   0.050  0.00  0.00    +0.222 C 
ATOM      3  O   UNL     1      -0.779   5.798   0.042  0.00  0.00    -0.275 OA
ATOM      4  H   UNL     1      -3.109   3.775   0.052  0.00  0.00    +0.155 HD
ENDROOT
BRANCH   2   5
ATOM      5  C   UNL     1      -3.060   6.402   0.066  0.00  0.00    +0.091 C 
ATOM      6  C   UNL     1      -3.929   6.207  -1.178  0.00  0.00    +0.015 C 
ATOM      7  C   UNL     1      -5.098   7.194  -1.146  0.00  0.00    +0.018 C 
ATOM      8  C   UNL     1      -4.553   8.625  -1.157  0.00  0.00    +0.109 C 
ATOM      9  N   UNL     1      -3.603   8.778  -0.046  0.00  0.00    -0.176 NA
ATOM     10  C   UNL     1      -2.492   7.825   0.069  0.00  0.00    +0.122 C 
BRANCH   9  11
ATOM     11  S   UNL     1      -3.783  10.002   1.054  0.00  0.00    +0.061 S 
ATOM     12  O   UNL     1      -5.155  10.369   1.034  0.00  0.00    -0.153 OA
ATOM     13  O   UNL     1      -3.125   9.581   2.241  0.00  0.00    -0.153 OA
BRANCH  11  14
ATOM     14  C   UNL     1      -2.882  11.388   0.444  0.00  0.00    +0.106 A 
ATOM     15  C   UNL     1      -1.554  11.556   0.790  0.00  0.00    +0.030 A 
ATOM     16  C   UNL     1      -0.845  12.639   0.306  0.00  0.00    +0.022 A 
ATOM     17  C   UNL     1      -1.468  13.563  -0.514  0.00  0.00    +0.041 A 
ATOM     18  C   UNL     1      -2.798  13.398  -0.855  0.00  0.00    +0.022 A 
ATOM     19  C   UNL     1      -3.505  12.310  -0.376  0.00  0.00    +0.030 A 
ATOM     20 CL   UNL     1      -0.580  14.928  -1.116  0.00  0.00    -0.084 Cl
ENDBRANCH  11  14
ENDBRANCH   9  11
ENDBRANCH   2   5
BRANCH   1  24
ATOM     21  C   UNL     1       1.142   1.796   0.001  0.00  0.00    +0.022 A 
ATOM     22  C   UNL     1      -0.013   1.076   0.008  0.00  0.00    +0.031 A 
ATOM     23  C   UNL     1      -1.216   1.781   0.017  0.00  0.00    +0.066 A 
ATOM     24  C   UNL     1      -1.150   3.173   0.030  0.00  0.00    +0.084 A 
ATOM     25  S   UNL     1       0.556   3.479   0.015  0.00  0.00    -0.073 S 
BRANCH  21  29
ATOM     26  C   UNL     1       5.147   0.383  -0.044  0.00  0.00    +0.000 A 
ATOM     27  C   UNL     1       4.897   1.744  -0.035  0.00  0.00    +0.001 A 
ATOM     28  C   UNL     1       3.599   2.209  -0.020  0.00  0.00    +0.009 A 
ATOM     29  C   UNL     1       2.536   1.304  -0.015  0.00  0.00    -0.011 A 
ATOM     30  C   UNL     1       2.796  -0.068  -0.018  0.00  0.00    +0.009 A 
ATOM     31  C   UNL     1       4.099  -0.520  -0.039  0.00  0.00    +0.001 A 
ENDBRANCH  21  29
BRANCH  23  32
ATOM     32  C   UNL     1      -2.506   1.082   0.019  0.00  0.00    +0.244 C 
ATOM     33  O   UNL     1      -3.543   1.719   0.027  0.00  0.00    -0.270 OA
ATOM     34  N   UNL     1      -2.542  -0.265   0.013  0.00  0.00    -0.325 N 
ATOM     35  H   UNL     1      -1.716  -0.772   0.007  0.00  0.00    +0.145 HD
ATOM     36  H   UNL     1      -3.395  -0.727   0.014  0.00  0.00    +0.145 HD
ENDBRANCH  23  32
ENDBRANCH   1  24
TORSDOF 6
