REMARK  Name = ZINC02292353
REMARK  5 active torsions:
REMARK  status: ('A' for Active; 'I' for Inactive)
REMARK    1  A    between atoms: C_10  and  N_11
REMARK    2  A    between atoms: C_12  and  C_14
REMARK    3  A    between atoms: N_25  and  C_28
REMARK    4  A    between atoms: C_26  and  N_27
REMARK    5  A    between atoms: C_32  and  C_34
REMARK                            x       y       z     vdW  Elec       q    Type
REMARK                         _______ _______ _______ _____ _____    ______ ____
ROOT
ATOM      1  C   UNL     1       0.218   7.383  -0.659  0.00  0.00    +0.104 A 
ATOM      2  C   UNL     1      -0.392   7.438   0.680  0.00  0.00    +0.123 A 
ATOM      3  C   UNL     1      -0.565   6.040   1.085  0.00  0.00    +0.166 A 
ATOM      4  N   UNL     1      -1.090   5.767   2.260  0.00  0.00    -0.225 NA
ATOM      5  C   UNL     1      -1.470   6.765   3.069  0.00  0.00    +0.092 A 
ATOM      6  C   UNL     1      -2.038   6.483   4.325  0.00  0.00    +0.030 A 
ATOM      7  C   UNL     1      -2.420   7.503   5.140  0.00  0.00    +0.002 A 
ATOM      8  C   UNL     1      -2.258   8.831   4.750  0.00  0.00    +0.002 A 
ATOM      9  C   UNL     1      -1.714   9.144   3.543  0.00  0.00    +0.030 A 
ATOM     10  C   UNL     1      -1.306   8.116   2.673  0.00  0.00    +0.090 A 
ATOM     11  N   UNL     1      -0.768   8.412   1.483  0.00  0.00    -0.241 NA
ATOM     12  N   UNL     1      -0.081   5.258   0.054  0.00  0.00    -0.280 N 
ATOM     13  C   UNL     1       0.375   6.037  -0.968  0.00  0.00    +0.117 A 
ENDROOT
BRANCH  12  14
ATOM     14  C   UNL     1      -0.066   3.857   0.056  0.00  0.00    +0.050 A 
ATOM     15  C   UNL     1      -1.260   3.148   0.067  0.00  0.00    +0.026 A 
ATOM     16  C   UNL     1      -1.242   1.768   0.063  0.00  0.00    +0.003 A 
ATOM     17  C   UNL     1      -0.036   1.090   0.058  0.00  0.00    +0.012 A 
ATOM     18  C   UNL     1       1.154   1.793   0.047  0.00  0.00    +0.057 A 
ATOM     19  C   UNL     1       1.143   3.174   0.045  0.00  0.00    +0.038 A 
BRANCH  18  20
ATOM     20  C   UNL     1       2.466   1.051   0.036  0.00  0.00    +0.417 C 
ATOM     21  F   UNL     1       2.223  -0.327   0.041  0.00  0.00    -0.166 F 
ATOM     22  F   UNL     1       3.187   1.394  -1.113  0.00  0.00    -0.166 F 
ATOM     23  F   UNL     1       3.207   1.397   1.172  0.00  0.00    -0.166 F 
ENDBRANCH  18  20
ENDBRANCH  12  14
BRANCH   1  25
ATOM     24  N   UNL     1       1.808   9.025  -1.378  0.00  0.00    -0.281 N 
ATOM     25  C   UNL     1       0.576   8.488  -1.474  0.00  0.00    +0.254 C 
ATOM     26  O   UNL     1      -0.230   8.951  -2.260  0.00  0.00    -0.270 OA
ATOM     27  H   UNL     1       2.428   8.700  -0.706  0.00  0.00    +0.155 HD
BRANCH  24  37
ATOM     28  C   UNL     1       6.131  10.341  -3.626  0.00  0.00    +0.001 A 
ATOM     29  C   UNL     1       5.769   9.310  -2.760  0.00  0.00    +0.001 A 
ATOM     30  C   UNL     1       4.493   9.198  -2.300  0.00  0.00    +0.010 A 
ATOM     31  C   UNL     1       3.525  10.133  -2.700  0.00  0.00    +0.003 A 
ATOM     32  C   UNL     1       3.893  11.181  -3.580  0.00  0.00    -0.016 A 
ATOM     33  C   UNL     1       5.220  11.265  -4.035  0.00  0.00    +0.008 A 
ATOM     34  C   UNL     1       2.925  12.118  -3.982  0.00  0.00    +0.008 A 
ATOM     35  C   UNL     1       1.646  12.012  -3.527  0.00  0.00    +0.002 A 
ATOM     36  C   UNL     1       1.272  10.985  -2.666  0.00  0.00    +0.024 A 
ATOM     37  C   UNL     1       2.193  10.049  -2.244  0.00  0.00    +0.041 A 
ENDBRANCH  24  37
ENDBRANCH   1  25
BRANCH  13  38
ATOM     38  N   UNL     1       0.912   5.559  -2.135  0.00  0.00    -0.343 N 
ATOM     39  H   UNL     1       0.989   4.603  -2.279  0.00  0.00    +0.144 HD
ATOM     40  H   UNL     1       1.215   6.178  -2.818  0.00  0.00    +0.144 HD
ENDBRANCH  13  38
TORSDOF 5
