REMARK  Name = ZINC38563338
REMARK  6 active torsions:
REMARK  status: ('A' for Active; 'I' for Inactive)
REMARK    1  A    between atoms: C_3  and  C_6
REMARK    2  A    between atoms: C_6  and  C_8
REMARK    3  A    between atoms: C_6  and  S_22
REMARK    4  A    between atoms: C_8  and  N_9
REMARK    5  A    between atoms: N_12  and  C_13
REMARK    6  A    between atoms: S_22  and  C_25
REMARK                            x       y       z     vdW  Elec       q    Type
REMARK                         _______ _______ _______ _____ _____    ______ ____
ROOT
ATOM      1  C   UNL     1       3.757   1.857  -0.031  0.00  0.00    +0.189 C 
ENDROOT
BRANCH   1   4
ATOM      2  C   UNL     1      -0.020   1.359  -0.000  0.00  0.00    +0.008 A 
ATOM      3  C   UNL     1       1.179   2.047  -0.011  0.00  0.00    +0.013 A 
ATOM      4  C   UNL     1       2.339   1.346  -0.018  0.00  0.00    +0.016 A 
ATOM      5  S   UNL     1       1.752  -0.340  -0.011  0.00  0.00    -0.100 S 
ATOM      6  C   UNL     1       0.000   0.003   0.003  0.00  0.00    +0.045 A 
ENDBRANCH   1   4
BRANCH   1   7
ATOM      7  S   UNL     1       4.628   1.261   1.445  0.00  0.00    +0.006 S 
ATOM      8  O   UNL     1       4.590  -0.158   1.495  0.00  0.00    -0.169 OA
ATOM      9  O   UNL     1       5.855   1.960   1.605  0.00  0.00    -0.169 OA
BRANCH   7  10
ATOM     10  C   UNL     1       3.632   1.785   2.801  0.00  0.00    +0.089 A 
ATOM     11  C   UNL     1       3.851   3.021   3.382  0.00  0.00    +0.028 A 
ATOM     12  C   UNL     1       3.070   3.432   4.445  0.00  0.00    +0.022 A 
ATOM     13  C   UNL     1       2.069   2.608   4.928  0.00  0.00    +0.041 A 
ATOM     14  C   UNL     1       1.851   1.372   4.346  0.00  0.00    +0.022 A 
ATOM     15  C   UNL     1       2.628   0.964   3.279  0.00  0.00    +0.028 A 
ATOM     16 CL   UNL     1       1.089   3.124   6.265  0.00  0.00    -0.084 Cl
ENDBRANCH   7  10
ENDBRANCH   1   7
BRANCH   1  17
ATOM     17  C   UNL     1       4.471   1.349  -1.285  0.00  0.00    +0.137 C 
BRANCH  17  18
ATOM     18  N   UNL     1       5.849   1.846  -1.297  0.00  0.00    -0.297 N 
ATOM     19  C   UNL     1       6.673   1.523  -2.313  0.00  0.00    +0.304 C 
ATOM     20  O   UNL     1       6.273   0.820  -3.221  0.00  0.00    -0.253 OA
ATOM     21  N   UNL     1       7.941   1.980  -2.325  0.00  0.00    -0.269 N 
ATOM     22  H   UNL     1       6.169   2.407  -0.573  0.00  0.00    +0.150 HD
ATOM     23  H   UNL     1       8.241   2.595  -1.637  0.00  0.00    +0.156 HD
BRANCH  21  24
ATOM     24  C   UNL     1       8.826   1.567  -3.329  0.00  0.00    +0.038 A 
ATOM     25  C   UNL     1      10.169   1.376  -3.036  0.00  0.00    +0.027 A 
ATOM     26  C   UNL     1      11.043   0.968  -4.025  0.00  0.00    +0.051 A 
ATOM     27  C   UNL     1      10.582   0.749  -5.313  0.00  0.00    +0.166 A 
ATOM     28  C   UNL     1       9.235   0.941  -5.611  0.00  0.00    +0.168 A 
ATOM     29  C   UNL     1       8.359   1.344  -4.617  0.00  0.00    +0.073 A 
ATOM     30  O   UNL     1       9.036   0.662  -6.933  0.00  0.00    -0.453 OA
ATOM     31  C   UNL     1      10.344   0.695  -7.534  0.00  0.00    +0.466 C 
ATOM     32  O   UNL     1      11.227   0.351  -6.449  0.00  0.00    -0.453 OA
ENDBRANCH  21  24
ENDBRANCH  17  18
ENDBRANCH   1  17
TORSDOF 6
