REMARK  Name = ZINC51630780
REMARK  4 active torsions:
REMARK  status: ('A' for Active; 'I' for Inactive)
REMARK    1  A    between atoms: C_10  and  N_12
REMARK    2  A    between atoms: N_12  and  S_13
REMARK    3  A    between atoms: S_13  and  C_16
REMARK    4  A    between atoms: C_18  and  N_21
REMARK                            x       y       z     vdW  Elec       q    Type
REMARK                         _______ _______ _______ _____ _____    ______ ____
ROOT
ATOM      1  N   UNL     1       4.651   0.038   0.875  0.00  0.00    -0.182 NA
ATOM      2  H   UNL     1       4.324   0.418   1.705  0.00  0.00    +0.149 HD
ENDROOT
BRANCH   1  12
ATOM      3  C   UNL     1       0.185   1.883  -0.114  0.00  0.00    +0.000 A 
ATOM      4  C   UNL     1       1.440   2.460  -0.059  0.00  0.00    +0.000 A 
ATOM      5  C   UNL     1       2.563   1.659  -0.050  0.00  0.00    +0.005 A 
ATOM      6  C   UNL     1       2.443   0.276  -0.093  0.00  0.00    -0.026 A 
ATOM      7  C   UNL     1       1.193  -0.299  -0.142  0.00  0.00    -0.043 A 
ATOM      8  C   UNL     1       0.064   0.510  -0.155  0.00  0.00    +0.004 A 
ATOM      9  C   UNL     1       0.988  -1.791  -0.175  0.00  0.00    +0.035 C 
ATOM     10  C   UNL     1       2.276  -2.502  -0.586  0.00  0.00    +0.007 C 
ATOM     11  C   UNL     1       3.417  -1.986   0.299  0.00  0.00    +0.025 C 
ATOM     12  C   UNL     1       3.711  -0.538  -0.088  0.00  0.00    +0.107 C 
ENDBRANCH   1  12
BRANCH   1  13
ATOM     13  S   UNL     1       6.275   0.041   0.547  0.00  0.00    +0.065 S 
ATOM     14  O   UNL     1       6.909   0.690   1.641  0.00  0.00    -0.153 OA
ATOM     15  O   UNL     1       6.611  -1.281   0.148  0.00  0.00    -0.153 OA
BRANCH  13  16
ATOM     16  C   UNL     1       6.520   1.071  -0.861  0.00  0.00    +0.144 A 
ATOM     17  C   UNL     1       6.844   2.386  -0.910  0.00  0.00    +0.059 A 
ATOM     18  C   UNL     1       6.987   2.997  -2.145  0.00  0.00    +0.034 A 
ATOM     19  C   UNL     1       6.798   2.256  -3.269  0.00  0.00    +0.069 A 
ATOM     20  S   UNL     1       6.414   0.649  -2.592  0.00  0.00    -0.075 S 
BRANCH  18  21
ATOM     21  N   UNL     1       7.322   4.361  -2.235  0.00  0.00    -0.358 N 
ATOM     22  H   UNL     1       7.455   4.882  -1.428  0.00  0.00    +0.142 HD
ATOM     23  H   UNL     1       7.420   4.780  -3.104  0.00  0.00    +0.142 HD
ENDBRANCH  18  21
ENDBRANCH  13  16
ENDBRANCH   1  13
TORSDOF 4
