REMARK  Name = ZINC59019557
REMARK  9 active torsions:
REMARK  status: ('A' for Active; 'I' for Inactive)
REMARK    1  A    between atoms: C_1  and  C_2
REMARK    2  A    between atoms: C_5  and  C_8
REMARK    3  A    between atoms: N_9  and  N_10
REMARK    4  A    between atoms: C_13  and  S_16
REMARK    5  A    between atoms: S_16  and  C_17
REMARK    6  A    between atoms: C_17  and  C_18
REMARK    7  A    between atoms: C_24  and  S_26
REMARK    8  A    between atoms: S_26  and  C_27
REMARK    9  A    between atoms: C_27  and  C_28
REMARK                            x       y       z     vdW  Elec       q    Type
REMARK                         _______ _______ _______ _____ _____    ______ ____
ROOT
ATOM      1  S   UNL     1       0.122  -7.206   6.154  0.00  0.00    -0.075 S 
ENDROOT
BRANCH   1   5
ATOM      2  N   UNL     1       0.094  -6.304   1.091  0.00  0.00    -0.205 N 
ATOM      3  C   UNL     1       0.110  -7.002   2.285  0.00  0.00    +0.232 A 
ATOM      4  N   UNL     1       0.103  -6.473   3.491  0.00  0.00    -0.186 NA
ATOM      5  C   UNL     1       0.123  -7.446   4.409  0.00  0.00    +0.211 A 
ATOM      6  N   UNL     1       0.142  -8.607   3.799  0.00  0.00    -0.144 NA
ATOM      7  N   UNL     1       0.129  -8.345   2.419  0.00  0.00    -0.245 N 
ATOM      8  H   UNL     1       0.096  -6.784   0.249  0.00  0.00    +0.177 HD
ATOM      9  H   UNL     1       0.134  -9.000   1.704  0.00  0.00    +0.192 HD
BRANCH   2  11
ATOM     10  C   UNL     1       0.061  -4.248  -0.021  0.00  0.00    +0.138 C 
ATOM     11  N   UNL     1       0.075  -4.903   1.099  0.00  0.00    -0.188 NA
BRANCH  10  16
ATOM     12  C   UNL     1      -0.018   1.503   0.010  0.00  0.00    +0.044 C 
ATOM     13  C   UNL     1       0.002  -0.004   0.002  0.00  0.00    -0.050 A 
ATOM     14  C   UNL     1       0.006  -0.686  -1.202  0.00  0.00    +0.004 A 
ATOM     15  C   UNL     1       0.025  -2.065  -1.217  0.00  0.00    +0.010 A 
ATOM     16  C   UNL     1       0.041  -2.773  -0.013  0.00  0.00    -0.005 A 
ATOM     17  C   UNL     1       0.037  -2.078   1.198  0.00  0.00    +0.010 A 
ATOM     18  C   UNL     1       0.023  -0.699   1.198  0.00  0.00    +0.004 A 
ENDBRANCH  10  16
ENDBRANCH   2  11
ENDBRANCH   1   5
BRANCH   1  19
ATOM     19  C   UNL     1       0.155  -8.890   6.828  0.00  0.00    +0.173 C 
BRANCH  19  20
ATOM     20  C   UNL     1       0.157  -8.828   8.334  0.00  0.00    +0.229 C 
ATOM     21  O   UNL     1       0.139  -7.754   8.897  0.00  0.00    -0.275 OA
ATOM     22  N   UNL     1       0.180  -9.967   9.055  0.00  0.00    -0.263 N 
ATOM     23  C   UNL     1       0.182  -9.910  10.447  0.00  0.00    +0.189 A 
ATOM     24  N   UNL     1       0.159  -8.863  11.255  0.00  0.00    -0.125 NA
ATOM     25  N   UNL     1       0.165  -8.987  12.510  0.00  0.00    -0.133 NA
ATOM     26  C   UNL     1       0.194 -10.175  13.097  0.00  0.00    +0.160 A 
ATOM     27  S   UNL     1       0.209 -11.233  11.652  0.00  0.00    -0.024 S 
ATOM     28  H   UNL     1       0.194 -10.826   8.605  0.00  0.00    +0.157 HD
BRANCH  26  29
ATOM     29  S   UNL     1       0.209 -10.593  14.808  0.00  0.00    -0.092 S 
BRANCH  29  30
ATOM     30  C   UNL     1       0.173  -8.988  15.652  0.00  0.00    +0.111 C 
BRANCH  30  31
ATOM     31  C   UNL     1       0.182  -9.204  17.144  0.00  0.00    -0.037 A 
ATOM     32  C   UNL     1      -1.010  -9.338  17.830  0.00  0.00    +0.004 A 
ATOM     33  C   UNL     1      -1.002  -9.536  19.198  0.00  0.00    +0.000 A 
ATOM     34  C   UNL     1       0.199  -9.602  19.880  0.00  0.00    +0.000 A 
ATOM     35  C   UNL     1       1.391  -9.469  19.193  0.00  0.00    +0.000 A 
ATOM     36  C   UNL     1       1.383  -9.275  17.824  0.00  0.00    +0.004 A 
ENDBRANCH  30  31
ENDBRANCH  29  30
ENDBRANCH  26  29
ENDBRANCH  19  20
ENDBRANCH   1  19
TORSDOF 8
