REMARK  Name = ZINC64518594
REMARK  8 active torsions:
REMARK  status: ('A' for Active; 'I' for Inactive)
REMARK    1  A    between atoms: C_1  and  C_2
REMARK    2  A    between atoms: C_3  and  C_13
REMARK    3  A    between atoms: N_5  and  C_7
REMARK    4  A    between atoms: C_18  and  C_21
REMARK    5  A    between atoms: C_21  and  C_22
REMARK    6  A    between atoms: N_24  and  C_25
REMARK    7  A    between atoms: C_25  and  C_26
REMARK    8  A    between atoms: C_26  and  C_27
REMARK                            x       y       z     vdW  Elec       q    Type
REMARK                         _______ _______ _______ _____ _____    ______ ____
ROOT
ATOM      1  C   UNL     1      -2.443  -0.325   0.013  0.00  0.00    +0.246 C 
ATOM      2  O   UNL     1      -1.299  -0.712  -0.143  0.00  0.00    -0.270 OA
ATOM      3  N   UNL     1      -3.448  -1.217   0.115  0.00  0.00    -0.298 N 
ATOM      4  C   UNL     1      -3.165  -2.655   0.223  0.00  0.00    +0.108 C 
ATOM      5  C   UNL     1      -3.949  -3.395  -0.866  0.00  0.00    +0.023 C 
ATOM      6  C   UNL     1      -5.432  -3.036  -0.753  0.00  0.00    +0.001 C 
ATOM      7  C   UNL     1      -5.613  -1.532  -0.966  0.00  0.00    +0.023 C 
ATOM      8  C   UNL     1      -4.847  -0.770   0.127  0.00  0.00    +0.108 C 
ENDROOT
BRANCH   1  11
ATOM      9  C   UNL     1      -0.319   1.841   0.135  0.00  0.00    +0.062 C 
ATOM     10  C   UNL     1      -1.811   2.055   0.142  0.00  0.00    +0.029 C 
ATOM     11  C   UNL     1      -2.717   1.060   0.087  0.00  0.00    +0.051 C 
ATOM     12  C   UNL     1      -4.084   1.708   0.119  0.00  0.00    +0.169 C 
ATOM     13  N   UNL     1      -3.802   3.151   0.198  0.00  0.00    -0.249 N 
ATOM     14  N   UNL     1      -2.406   3.274   0.212  0.00  0.00    -0.268 N 
ATOM     15  H   UNL     1      -1.929   4.117   0.263  0.00  0.00    +0.170 HD
BRANCH  13  16
ATOM     16  C   UNL     1      -4.736   4.188   0.251  0.00  0.00    +0.048 A 
ATOM     17  C   UNL     1      -6.095   3.901   0.238  0.00  0.00    +0.025 A 
ATOM     18  C   UNL     1      -7.016   4.929   0.292  0.00  0.00    +0.002 A 
ATOM     19  C   UNL     1      -6.587   6.242   0.358  0.00  0.00    +0.000 A 
ATOM     20  C   UNL     1      -5.235   6.531   0.370  0.00  0.00    +0.002 A 
ATOM     21  C   UNL     1      -4.308   5.508   0.323  0.00  0.00    +0.025 A 
ENDBRANCH  13  16
ENDBRANCH   1  11
BRANCH   6  22
ATOM     22  C   UNL     1      -6.224  -3.800  -1.817  0.00  0.00    +0.099 C 
BRANCH  22  23
ATOM     23  C   UNL     1      -7.697  -3.543  -1.628  0.00  0.00    +0.213 C 
ATOM     24  O   UNL     1      -8.076  -2.820  -0.732  0.00  0.00    -0.276 OA
ATOM     25  N   UNL     1      -8.592  -4.116  -2.456  0.00  0.00    -0.315 N 
ATOM     26  H   UNL     1      -8.289  -4.695  -3.174  0.00  0.00    +0.149 HD
BRANCH  25  27
ATOM     27  C   UNL     1     -10.024  -3.866  -2.273  0.00  0.00    +0.108 C 
BRANCH  27  28
ATOM     28  C   UNL     1     -10.815  -4.630  -3.337  0.00  0.00    +0.052 C 
BRANCH  28  29
ATOM     29  C   UNL     1     -12.288  -4.373  -3.148  0.00  0.00    -0.040 C 
ATOM     30  C   UNL     1     -13.039  -3.444  -3.782  0.00  0.00    -0.001 A 
ATOM     31  C   UNL     1     -12.721  -2.432  -4.797  0.00  0.00    +0.010 A 
ATOM     32  C   UNL     1     -13.707  -1.625  -5.250  0.00  0.00    +0.001 A 
ATOM     33  C   UNL     1     -15.022  -1.730  -4.776  0.00  0.00    +0.002 A 
ATOM     34  C   UNL     1     -15.391  -2.635  -3.845  0.00  0.00    +0.026 A 
ATOM     35  C   UNL     1     -14.435  -3.535  -3.298  0.00  0.00    +0.043 A 
ATOM     36  N   UNL     1     -14.543  -4.484  -2.400  0.00  0.00    -0.380 N 
ATOM     37  C   UNL     1     -13.227  -5.106  -2.217  0.00  0.00    +0.144 C 
ATOM     38  H   UNL     1     -15.357  -4.735  -1.937  0.00  0.00    +0.160 HD
ENDBRANCH  28  29
ENDBRANCH  27  28
ENDBRANCH  25  27
ENDBRANCH  22  23
ENDBRANCH   6  22
TORSDOF 7
