REMARK  Name = ZINC38893986
REMARK  9 active torsions:
REMARK  status: ('A' for Active; 'I' for Inactive)
REMARK    1  A    between atoms: C_1  and  C_2
REMARK    2  A    between atoms: C_2  and  C_4
REMARK    3  A    between atoms: C_2  and  N_10
REMARK    4  A    between atoms: C_11  and  C_13
REMARK    5  A    between atoms: C_18  and  N_19
REMARK    6  A    between atoms: C_20  and  C_22
REMARK    7  A    between atoms: N_27  and  C_29
REMARK    8  A    between atoms: C_29  and  C_30
REMARK    9  A    between atoms: C_32  and  C_35
REMARK                            x       y       z     vdW  Elec       q    Type
REMARK                         _______ _______ _______ _____ _____    ______ ____
ROOT
ATOM      1  N   UNL     1      -3.698  -0.803  -3.570  0.00  0.00    -0.285 N 
ATOM      2  C   UNL     1      -4.485  -0.772  -4.664  0.00  0.00    +0.219 C 
ATOM      3  O   UNL     1      -5.668  -1.019  -4.567  0.00  0.00    -0.275 OA
ATOM      4  H   UNL     1      -2.769  -0.532  -3.633  0.00  0.00    +0.155 HD
ENDROOT
BRANCH   2   5
ATOM      5  C   UNL     1      -3.894  -0.431  -6.008  0.00  0.00    +0.059 C 
ATOM      6  C   UNL     1      -2.809  -1.452  -6.364  0.00  0.00    +0.009 C 
ATOM      7  C   UNL     1      -2.270  -1.142  -7.763  0.00  0.00    -0.018 C 
ATOM      8  C   UNL     1      -3.428  -1.154  -8.764  0.00  0.00    -0.078 C 
ATOM      9  N   UNL     1      -4.418  -0.139  -8.384  0.00  0.00    +0.386 N 
ATOM     10  C   UNL     1      -4.992  -0.468  -7.073  0.00  0.00    -0.065 C 
ATOM     11  H   UNL     1      -3.971   0.764  -8.336  0.00  0.00    -0.081 HD
BRANCH   9  12
ATOM     12  C   UNL     1      -5.488  -0.100  -9.389  0.00  0.00    +0.022 C 
BRANCH  12  13
ATOM     13  C   UNL     1      -4.924   0.366 -10.706  0.00  0.00    +0.211 A 
ATOM     14  N   UNL     1      -4.432  -0.400 -11.637  0.00  0.00    -0.193 NA
ATOM     15  C   UNL     1      -4.018   0.346 -12.677  0.00  0.00    +0.202 A 
ATOM     16  N   UNL     1      -4.250   1.607 -12.406  0.00  0.00    -0.056 NA
ATOM     17  O   UNL     1      -4.849   1.638 -11.119  0.00  0.00    -0.340 OA
BRANCH  15  18
ATOM     18  C   UNL     1      -3.402  -0.172 -13.924  0.00  0.00    +0.023 A 
ATOM     19  C   UNL     1      -3.215  -1.542 -14.093  0.00  0.00    +0.014 A 
ATOM     20  C   UNL     1      -2.642  -2.020 -15.254  0.00  0.00    +0.039 A 
ATOM     21  C   UNL     1      -2.254  -1.139 -16.251  0.00  0.00    +0.123 A 
ATOM     22  C   UNL     1      -2.438   0.225 -16.086  0.00  0.00    +0.039 A 
ATOM     23  C   UNL     1      -3.015   0.710 -14.931  0.00  0.00    +0.014 A 
ATOM     24  F   UNL     1      -1.693  -1.610 -17.386  0.00  0.00    -0.205 F 
ENDBRANCH  15  18
ENDBRANCH  12  13
ENDBRANCH   9  12
ENDBRANCH   2   5
BRANCH   1  30
ATOM     25  C   UNL     1      -3.775  -0.641  -1.154  0.00  0.00    +0.058 A 
ATOM     26  C   UNL     1      -4.309  -1.069   0.064  0.00  0.00    +0.015 A 
ATOM     27  C   UNL     1      -5.263  -2.063   0.084  0.00  0.00    +0.001 A 
ATOM     28  C   UNL     1      -5.696  -2.641  -1.099  0.00  0.00    +0.002 A 
ATOM     29  C   UNL     1      -5.177  -2.229  -2.309  0.00  0.00    +0.024 A 
ATOM     30  C   UNL     1      -4.219  -1.225  -2.349  0.00  0.00    +0.046 A 
BRANCH  25  32
ATOM     31  N   UNL     1      -2.402   1.052  -0.043  0.00  0.00    -0.305 N 
ATOM     32  C   UNL     1      -2.754   0.424  -1.183  0.00  0.00    +0.246 C 
ATOM     33  O   UNL     1      -2.229   0.734  -2.235  0.00  0.00    -0.270 OA
ATOM     34  H   UNL     1      -2.821   0.804   0.796  0.00  0.00    +0.150 HD
BRANCH  31  36
ATOM     35  C   UNL     1      -2.050   3.441  -0.429  0.00  0.00    +0.033 C 
ATOM     36  C   UNL     1      -1.388   2.108  -0.072  0.00  0.00    +0.100 C 
BRANCH  36  37
ATOM     37  C   UNL     1      -0.739   2.218   1.284  0.00  0.00    -0.027 A 
ATOM     38  C   UNL     1      -1.504   2.100   2.429  0.00  0.00    +0.005 A 
ATOM     39  C   UNL     1      -0.908   2.200   3.672  0.00  0.00    +0.000 A 
ATOM     40  C   UNL     1       0.454   2.419   3.770  0.00  0.00    +0.000 A 
ATOM     41  C   UNL     1       1.219   2.536   2.625  0.00  0.00    +0.000 A 
ATOM     42  C   UNL     1       0.624   2.432   1.382  0.00  0.00    +0.005 A 
ENDBRANCH  36  37
ENDBRANCH  31  36
ENDBRANCH  25  32
ENDBRANCH   1  30
TORSDOF 8
