REMARK  Name = ZINC20744943
REMARK  2 active torsions:
REMARK  status: ('A' for Active; 'I' for Inactive)
REMARK    1  A    between atoms: C_3  and  C_9
REMARK    2  A    between atoms: C_18  and  O_21
REMARK                            x       y       z     vdW  Elec       q    Type
REMARK                         _______ _______ _______ _____ _____    ______ ____
ROOT
ATOM      1  C   UNL     1       3.671   2.186  -0.023  0.00  0.00    +0.113 C 
ATOM      2  C   UNL     1       4.184   2.288   1.382  0.00  0.00    +0.033 A 
ATOM      3  C   UNL     1       3.873   1.371   2.341  0.00  0.00    +0.112 A 
ATOM      4  N   UNL     1       4.488   1.730   3.482  0.00  0.00    -0.282 N 
ATOM      5  H   UNL     1       4.443   1.256   4.327  0.00  0.00    +0.188 HD
ATOM      6  N   UNL     1       5.202   2.903   3.236  0.00  0.00    -0.154 NA
ATOM      7  C   UNL     1       5.018   3.253   1.962  0.00  0.00    +0.182 A 
ATOM      8  N   UNL     1       5.585   4.370   1.453  0.00  0.00    -0.195 NA
ATOM      9  C   UNL     1       5.604   4.947   0.344  0.00  0.00    +0.199 C 
ATOM     10  C   UNL     1       5.001   4.554  -0.946  0.00  0.00    +0.165 C 
ATOM     11  S   UNL     1       3.382   3.793  -0.772  0.00  0.00    -0.138 S 
ENDROOT
BRANCH   1  14
ATOM     12  C   UNL     1      -0.017   1.380   0.010  0.00  0.00    +0.039 A 
ATOM     13  C   UNL     1       1.171   2.088   0.002  0.00  0.00    +0.009 A 
ATOM     14  C   UNL     1       2.377   1.414  -0.013  0.00  0.00    -0.011 A 
ATOM     15  C   UNL     1       2.398   0.030  -0.021  0.00  0.00    +0.048 A 
ATOM     16  C   UNL     1       1.211  -0.679  -0.013  0.00  0.00    +0.058 A 
ATOM     17  C   UNL     1       0.002  -0.004   0.002  0.00  0.00    +0.125 A 
ATOM     18  F   UNL     1      -1.158  -0.696   0.010  0.00  0.00    -0.205 F 
ATOM     19 CL   UNL     1       3.914  -0.815  -0.041  0.00  0.00    -0.083 Cl
ENDBRANCH   1  14
BRANCH   9  20
ATOM     20  O   UNL     1       6.282   6.113   0.322  0.00  0.00    -0.495 OA
ATOM     21  H   UNL     1       6.671   6.358   1.173  0.00  0.00    +0.293 HD
ENDBRANCH   9  20
TORSDOF 2
