REMARK  Name = ZINC20347498
REMARK  12 active torsions:
REMARK  status: ('A' for Active; 'I' for Inactive)
REMARK    1  A    between atoms: C_1  and  C_2
REMARK    2  A    between atoms: C_6  and  N_8
REMARK    3  A    between atoms: C_9  and  C_11
REMARK    4  A    between atoms: C_11  and  S_12
REMARK    5  A    between atoms: S_12  and  C_13
REMARK    6  A    between atoms: C_14  and  C_37
REMARK    7  A    between atoms: C_15  and  C_32
REMARK    8  A    between atoms: C_17  and  C_21
REMARK    9  A    between atoms: C_18  and  C_20
REMARK   10  A    between atoms: N_23  and  C_24
REMARK   11  A    between atoms: C_25  and  C_31
REMARK   12  A    between atoms: C_29  and  C_30
REMARK                            x       y       z     vdW  Elec       q    Type
REMARK                         _______ _______ _______ _____ _____    ______ ____
ROOT
ATOM      1  C   UNL     1       2.663   9.947   1.122  0.00  0.00    +0.080 C 
ATOM      2  C   UNL     1       3.476  10.682   0.317  0.00  0.00    +0.072 C 
ATOM      3  C   UNL     1       3.452  12.184   0.347  0.00  0.00    +0.134 C 
ATOM      4  C   UNL     1       2.214  12.685   1.034  0.00  0.00    +0.047 C 
ATOM      5  C   UNL     1       1.460  11.883   1.803  0.00  0.00    +0.015 C 
ATOM      6  N   UNL     1       1.784  10.568   1.981  0.00  0.00    -0.312 N 
ATOM      7  C   UNL     1       0.233  12.442   2.476  0.00  0.00    +0.061 C 
ATOM      8  H   UNL     1       1.339  10.004   2.814  0.00  0.00    +0.152 HD
ENDROOT
BRANCH   3   9
ATOM      9  C   UNL     1       4.665  12.684   1.089  0.00  0.00    +0.118 A 
ATOM     10  C   UNL     1       5.625  13.479   0.582  0.00  0.00    +0.045 A 
ATOM     11  C   UNL     1       6.563  13.700   1.616  0.00  0.00    +0.041 A 
ATOM     12  C   UNL     1       6.125  13.019   2.691  0.00  0.00    +0.195 A 
ATOM     13  O   UNL     1       4.975  12.406   2.366  0.00  0.00    -0.467 OA
ENDBRANCH   3   9
BRANCH   4  14
ATOM     14  C   UNL     1       1.833  14.037   0.866  0.00  0.00    +0.247 C 
ATOM     15  O   UNL     1       0.894  14.488   1.497  0.00  0.00    -0.270 OA
ATOM     16  N   UNL     1       2.508  14.826   0.007  0.00  0.00    -0.281 N 
ATOM     17  H   UNL     1       3.329  14.409  -0.594  0.00  0.00    +0.155 HD
BRANCH  16  18
ATOM     18  C   UNL     1       2.165  16.176  -0.120  0.00  0.00    +0.040 A 
ATOM     19  C   UNL     1       0.870  16.535  -0.471  0.00  0.00    -0.029 A 
ATOM     20  C   UNL     1       0.533  17.869  -0.590  0.00  0.00    +0.005 A 
ATOM     21  C   UNL     1       1.486  18.847  -0.371  0.00  0.00    +0.001 A 
ATOM     22  C   UNL     1       2.778  18.493  -0.027  0.00  0.00    +0.005 A 
ATOM     23  C   UNL     1       3.120  17.161   0.099  0.00  0.00    -0.029 A 
ATOM     24  C   UNL     1       4.528  16.776   0.474  0.00  0.00    +0.045 C 
ATOM     25  C   UNL     1      -0.168  15.470  -0.716  0.00  0.00    +0.045 C 
ENDBRANCH  16  18
ENDBRANCH   4  14
BRANCH   2  26
ATOM     26  C   UNL     1       4.371  10.011  -0.578  0.00  0.00    +0.098 C 
ATOM     27  N   UNL     1       5.081   9.480  -1.288  0.00  0.00    -0.191 NA
ENDBRANCH   2  26
BRANCH   1  28
ATOM     28  S   UNL     1       2.731   8.187   1.061  0.00  0.00    -0.100 S 
BRANCH  28  29
ATOM     29  C   UNL     1       1.477   7.781   2.302  0.00  0.00    +0.171 C 
BRANCH  29  31
ATOM     30  N   UNL     1       0.479   5.747   3.294  0.00  0.00    -0.285 N 
ATOM     31  C   UNL     1       1.357   6.284   2.424  0.00  0.00    +0.227 C 
ATOM     32  O   UNL     1       2.052   5.562   1.740  0.00  0.00    -0.275 OA
ATOM     33  H   UNL     1      -0.214   6.397   3.848  0.00  0.00    +0.155 HD
BRANCH  30  39
ATOM     34  C   UNL     1      -2.048   1.693   4.456  0.00  0.00    +0.044 C 
ATOM     35  C   UNL     1      -0.763   2.371   4.056  0.00  0.00    -0.049 A 
ATOM     36  C   UNL     1       0.389   1.624   3.885  0.00  0.00    +0.003 A 
ATOM     37  C   UNL     1       1.568   2.242   3.513  0.00  0.00    +0.002 A 
ATOM     38  C   UNL     1       1.601   3.608   3.316  0.00  0.00    +0.023 A 
ATOM     39  C   UNL     1       0.449   4.362   3.492  0.00  0.00    +0.034 A 
ATOM     40  C   UNL     1      -0.735   3.738   3.866  0.00  0.00    +0.026 A 
ENDBRANCH  30  39
ENDBRANCH  29  31
ENDBRANCH  28  29
ENDBRANCH   1  28
TORSDOF 8
