REMARK  Name = ZINC13078284
REMARK  7 active torsions:
REMARK  status: ('A' for Active; 'I' for Inactive)
REMARK    1  A    between atoms: C_3  and  N_9
REMARK    2  A    between atoms: C_6  and  C_7
REMARK    3  A    between atoms: N_9  and  S_10
REMARK    4  A    between atoms: S_10  and  C_13
REMARK    5  A    between atoms: C_16  and  C_19
REMARK    6  A    between atoms: C_19  and  C_21
REMARK    7  A    between atoms: C_22  and  C_23
REMARK                            x       y       z     vdW  Elec       q    Type
REMARK                         _______ _______ _______ _____ _____    ______ ____
ROOT
ATOM      1  C   UNL     1       1.042  -0.404   1.503  0.00  0.00    +0.109 A 
ATOM      2  C   UNL     1       2.423  -0.433   1.415  0.00  0.00    +0.029 A 
ATOM      3  C   UNL     1       3.181  -0.744   2.525  0.00  0.00    +0.013 A 
ATOM      4  C   UNL     1       2.552  -1.040   3.736  0.00  0.00    +0.022 A 
ATOM      5  C   UNL     1       1.158  -1.014   3.816  0.00  0.00    +0.013 A 
ATOM      6  C   UNL     1       0.412  -0.697   2.700  0.00  0.00    +0.029 A 
ENDROOT
BRANCH   1   7
ATOM      7  S   UNL     1       0.081  -0.000   0.082  0.00  0.00    +0.072 S 
ATOM      8  O   UNL     1      -1.237  -0.465   0.337  0.00  0.00    -0.150 OA
ATOM      9  O   UNL     1       0.832  -0.421  -1.049  0.00  0.00    -0.150 OA
BRANCH   7  10
ATOM     10  N   UNL     1      -0.006   1.652   0.004  0.00  0.00    -0.216 N 
ATOM     11  H   UNL     1       0.380   2.123  -0.751  0.00  0.00    +0.174 HD
BRANCH  10  14
ATOM     12  C   UNL     1      -0.635   4.210   2.546  0.00  0.00    +0.017 A 
ATOM     13  C   UNL     1      -0.024   3.505   1.542  0.00  0.00    +0.025 A 
ATOM     14  C   UNL     1      -0.629   2.364   1.022  0.00  0.00    +0.048 A 
ATOM     15  C   UNL     1      -1.858   1.937   1.517  0.00  0.00    +0.025 A 
ATOM     16  C   UNL     1      -2.473   2.634   2.526  0.00  0.00    +0.017 A 
ATOM     17  C   UNL     1      -1.868   3.781   3.049  0.00  0.00    +0.063 A 
BRANCH  17  18
ATOM     18  C   UNL     1      -2.528   4.536   4.130  0.00  0.00    +0.387 C 
ATOM     19  O   UNL     1      -2.001   5.532   4.584  0.00  0.00    -0.241 OA
ATOM     20  O   UNL     1      -3.715   4.122   4.613  0.00  0.00    -0.241 OA
ENDBRANCH  17  18
ENDBRANCH  10  14
ENDBRANCH   7  10
ENDBRANCH   1   7
BRANCH   4  21
ATOM     21  C   UNL     1       3.358  -1.379   4.928  0.00  0.00    +0.186 C 
ATOM     22  O   UNL     1       2.807  -1.637   5.983  0.00  0.00    -0.287 OA
BRANCH  21  23
ATOM     23  C   UNL     1       4.773  -1.405   4.843  0.00  0.00    +0.052 C 
ATOM     24  C   UNL     1       5.511  -1.715   5.934  0.00  0.00    +0.012 C 
BRANCH  24  25
ATOM     25  C   UNL     1       6.976  -1.741   5.846  0.00  0.00    -0.020 A 
ATOM     26  C   UNL     1       7.742  -2.063   6.974  0.00  0.00    +0.057 A 
ATOM     27  C   UNL     1       9.120  -2.087   6.887  0.00  0.00    +0.168 A 
ATOM     28  C   UNL     1       9.748  -1.790   5.676  0.00  0.00    +0.184 A 
ATOM     29  C   UNL     1       8.988  -1.472   4.556  0.00  0.00    +0.087 A 
ATOM     30  C   UNL     1       7.612  -1.451   4.633  0.00  0.00    +0.031 A 
ATOM     31 CL   UNL     1       9.775  -1.104   3.053  0.00  0.00    -0.080 Cl
ATOM     32  O   UNL     1      11.097  -1.882   5.852  0.00  0.00    -0.451 OA
ATOM     33  C   UNL     1      11.277  -2.634   7.067  0.00  0.00    +0.466 C 
ATOM     34  O   UNL     1      10.079  -2.363   7.818  0.00  0.00    -0.453 OA
ENDBRANCH  24  25
ENDBRANCH  21  23
ENDBRANCH   4  21
TORSDOF 7
