REMARK  Name = ZINC67133148
REMARK  6 active torsions:
REMARK  status: ('A' for Active; 'I' for Inactive)
REMARK    1  A    between atoms: C_1  and  C_2
REMARK    2  A    between atoms: C_3  and  C_17
REMARK    3  A    between atoms: N_6  and  C_7
REMARK    4  A    between atoms: N_19  and  C_20
REMARK    5  A    between atoms: C_24  and  N_26
REMARK    6  A    between atoms: C_27  and  C_29
REMARK                            x       y       z     vdW  Elec       q    Type
REMARK                         _______ _______ _______ _____ _____    ______ ____
ROOT
ATOM      1  C   UNL     1      -0.636   1.650   0.129  0.00  0.00    +0.068 C 
ATOM      2  C   UNL     1      -0.237   0.203  -0.011  0.00  0.00    +0.074 A 
ATOM      3  C   UNL     1      -0.166  -0.514  -1.172  0.00  0.00    +0.170 A 
ATOM      4  N   UNL     1       0.228  -1.764  -0.876  0.00  0.00    -0.124 NA
ATOM      5  N   UNL     1       0.406  -1.872   0.395  0.00  0.00    -0.060 NA
ATOM      6  N   UNL     1       0.125  -0.633   0.987  0.00  0.00    -0.214 N 
ENDROOT
BRANCH   6   7
ATOM      7  C   UNL     1       0.201  -0.323   2.350  0.00  0.00    +0.093 A 
ATOM      8  C   UNL     1       0.837   0.826   2.766  0.00  0.00    +0.030 A 
ATOM      9  C   UNL     1       0.920   1.146   4.118  0.00  0.00    +0.003 A 
ATOM     10  C   UNL     1       0.374   0.334   5.065  0.00  0.00    +0.010 A 
ATOM     11  C   UNL     1      -0.283  -0.846   4.681  0.00  0.00    +0.002 A 
ATOM     12  C   UNL     1      -0.379  -1.182   3.308  0.00  0.00    +0.096 A 
ATOM     13  N   UNL     1      -1.008  -2.301   2.939  0.00  0.00    -0.253 NA
ATOM     14  C   UNL     1      -1.548  -3.103   3.824  0.00  0.00    +0.111 A 
ATOM     15  C   UNL     1      -1.495  -2.830   5.189  0.00  0.00    +0.020 A 
ATOM     16  C   UNL     1      -0.858  -1.707   5.635  0.00  0.00    +0.011 A 
ENDBRANCH   6   7
BRANCH   3  17
ATOM     17  C   UNL     1      -0.469  -0.002  -2.521  0.00  0.00    +0.270 C 
ATOM     18  O   UNL     1      -0.819   1.154  -2.668  0.00  0.00    -0.268 OA
ATOM     19  N   UNL     1      -0.360  -0.814  -3.591  0.00  0.00    -0.280 N 
ATOM     20  H   UNL     1      -0.153  -1.754  -3.467  0.00  0.00    +0.155 HD
BRANCH  19  21
ATOM     21  C   UNL     1      -0.545  -0.303  -4.879  0.00  0.00    +0.035 A 
ATOM     22  C   UNL     1      -1.119  -1.095  -5.866  0.00  0.00    +0.023 A 
ATOM     23  C   UNL     1      -1.302  -0.591  -7.139  0.00  0.00    +0.004 A 
ATOM     24  C   UNL     1      -0.915   0.702  -7.435  0.00  0.00    +0.023 A 
ATOM     25  C   UNL     1      -0.341   1.499  -6.453  0.00  0.00    +0.035 A 
ATOM     26  C   UNL     1      -0.160   0.997  -5.172  0.00  0.00    +0.046 A 
BRANCH  25  27
ATOM     27  N   UNL     1       0.051   2.808  -6.754  0.00  0.00    -0.286 N 
ATOM     28  C   UNL     1      -0.646   3.530  -7.654  0.00  0.00    +0.214 C 
ATOM     29  O   UNL     1      -1.667   3.082  -8.131  0.00  0.00    -0.276 OA
ATOM     30  C   UNL     1      -0.157   4.894  -8.067  0.00  0.00    +0.109 C 
ATOM     31  H   UNL     1       0.824   3.196  -6.316  0.00  0.00    +0.155 HD
ENDBRANCH  25  27
ENDBRANCH  19  21
ENDBRANCH   3  17
TORSDOF 4
