REMARK  Name = ZINC38737721
REMARK  13 active torsions:
REMARK  status: ('A' for Active; 'I' for Inactive)
REMARK    1  A    between atoms: C_1  and  O_2
REMARK    2  A    between atoms: O_2  and  C_3
REMARK    3  A    between atoms: C_5  and  C_13
REMARK    4  A    between atoms: C_7  and  O_11
REMARK    5  A    between atoms: C_8  and  O_9
REMARK    6  A    between atoms: O_9  and  C_10
REMARK    7  A    between atoms: O_11  and  C_12
REMARK    8  A    between atoms: N_16  and  C_36
REMARK    9  A    between atoms: C_18  and  C_20
REMARK   10  A    between atoms: N_22  and  C_23
REMARK   11  A    between atoms: N_27  and  C_29
REMARK   12  A    between atoms: C_29  and  C_30
REMARK   13  A    between atoms: C_36  and  C_37
REMARK                            x       y       z     vdW  Elec       q    Type
REMARK                         _______ _______ _______ _____ _____    ______ ____
ROOT
ATOM      1  C   UNL     1       2.553   0.234   4.238  0.00  0.00    +0.046 C 
ATOM      2  C   UNL     1       3.996  -0.190   4.589  0.00  0.00    +0.093 C 
ATOM      3  N   UNL     1       4.098   0.014   6.057  0.00  0.00    -0.297 NA
ATOM      4  C   UNL     1       2.785  -0.439   6.582  0.00  0.00    +0.098 C 
ATOM      5  C   UNL     1       1.755   0.072   5.548  0.00  0.00    +0.097 C 
ENDROOT
BRANCH   1   8
ATOM      6  C   UNL     1       0.788  -0.940   1.109  0.00  0.00    +0.165 A 
ATOM      7  C   UNL     1       1.308  -0.117   2.097  0.00  0.00    +0.053 A 
ATOM      8  C   UNL     1       1.990  -0.664   3.167  0.00  0.00    -0.035 A 
ATOM      9  C   UNL     1       2.157  -2.033   3.258  0.00  0.00    +0.053 A 
ATOM     10  C   UNL     1       1.641  -2.863   2.274  0.00  0.00    +0.165 A 
ATOM     11  C   UNL     1       0.950  -2.317   1.199  0.00  0.00    +0.204 A 
BRANCH   6  13
ATOM     12  C   UNL     1      -0.009   1.023   0.029  0.00  0.00    +0.277 C 
ATOM     13  O   UNL     1       0.118  -0.400   0.056  0.00  0.00    -0.491 OA
ENDBRANCH   6  13
BRANCH  11  14
ATOM     14  O   UNL     1       0.436  -3.129   0.235  0.00  0.00    -0.488 OA
ATOM     15  C   UNL     1       1.282  -3.431  -0.877  0.00  0.00    +0.277 C 
ENDBRANCH  11  14
BRANCH  10  16
ATOM     16  O   UNL     1       1.806  -4.210   2.364  0.00  0.00    -0.491 OA
ATOM     17  C   UNL     1       2.523  -4.702   3.498  0.00  0.00    +0.277 C 
ENDBRANCH  10  16
ENDBRANCH   1   8
BRANCH   5  18
ATOM     18  C   UNL     1       0.650  -0.936   5.366  0.00  0.00    +0.218 C 
ATOM     19  O   UNL     1       0.860  -2.111   5.582  0.00  0.00    -0.275 OA
ATOM     20  N   UNL     1      -0.571  -0.533   4.963  0.00  0.00    -0.314 N 
ATOM     21  H   UNL     1      -0.739   0.407   4.791  0.00  0.00    +0.149 HD
BRANCH  20  22
ATOM     22  C   UNL     1      -1.645  -1.513   4.786  0.00  0.00    +0.055 C 
ATOM     23  C   UNL     1      -1.609  -2.096   3.355  0.00  0.00    +0.002 C 
ATOM     24  C   UNL     1      -3.110  -2.207   2.988  0.00  0.00    -0.077 C 
ATOM     25  N   UNL     1      -3.701  -0.992   3.605  0.00  0.00    +0.384 N 
ATOM     26  C   UNL     1      -3.019  -0.828   4.909  0.00  0.00    -0.056 C 
ATOM     27  H   UNL     1      -3.532  -0.187   3.020  0.00  0.00    -0.081 HD
BRANCH  25  28
ATOM     28  C   UNL     1      -5.144  -1.177   3.808  0.00  0.00    -0.043 C 
BRANCH  28  29
ATOM     29  C   UNL     1      -5.832  -1.274   2.471  0.00  0.00    -0.064 A 
ATOM     30  C   UNL     1      -6.296  -0.130   1.849  0.00  0.00    +0.002 A 
ATOM     31  C   UNL     1      -6.927  -0.218   0.622  0.00  0.00    +0.000 A 
ATOM     32  C   UNL     1      -7.093  -1.450   0.017  0.00  0.00    +0.000 A 
ATOM     33  C   UNL     1      -6.628  -2.594   0.639  0.00  0.00    +0.000 A 
ATOM     34  C   UNL     1      -5.994  -2.505   1.864  0.00  0.00    +0.002 A 
ENDBRANCH  28  29
ENDBRANCH  25  28
ENDBRANCH  20  22
ENDBRANCH   5  18
BRANCH   3  35
ATOM     35  C   UNL     1       5.195  -0.783   6.624  0.00  0.00    +0.119 C 
BRANCH  35  36
ATOM     36  C   UNL     1       5.428  -0.370   8.054  0.00  0.00    -0.033 A 
ATOM     37  C   UNL     1       6.319   0.646   8.344  0.00  0.00    +0.005 A 
ATOM     38  C   UNL     1       6.533   1.025   9.656  0.00  0.00    +0.000 A 
ATOM     39  C   UNL     1       5.856   0.387  10.679  0.00  0.00    +0.000 A 
ATOM     40  C   UNL     1       4.965  -0.629  10.389  0.00  0.00    +0.000 A 
ATOM     41  C   UNL     1       4.748  -1.005   9.077  0.00  0.00    +0.005 A 
ENDBRANCH  35  36
ENDBRANCH   3  35
TORSDOF 10
