REMARK  Name = ZINC08832438
REMARK  13 active torsions:
REMARK  status: ('A' for Active; 'I' for Inactive)
REMARK    1  A    between atoms: C_1  and  C_2
REMARK    2  A    between atoms: C_5  and  C_30
REMARK    3  A    between atoms: C_6  and  O_8
REMARK    4  A    between atoms: O_8  and  C_9
REMARK    5  A    between atoms: C_9  and  C_10
REMARK    6  A    between atoms: N_12  and  C_13
REMARK    7  A    between atoms: C_14  and  C_27
REMARK    8  A    between atoms: C_19  and  C_23
REMARK    9  A    between atoms: C_23  and  C_24
REMARK   10  A    between atoms: C_23  and  C_25
REMARK   11  A    between atoms: C_23  and  C_26
REMARK   12  A    between atoms: C_30  and  C_31
REMARK   13  A    between atoms: C_30  and  C_32
REMARK                            x       y       z     vdW  Elec       q    Type
REMARK                         _______ _______ _______ _____ _____    ______ ____
ROOT
ATOM      1  C   UNL     1      -2.382   1.157   0.020  0.00  0.00    +0.084 A 
ATOM      2  C   UNL     1      -3.679   1.650   0.034  0.00  0.00    +0.068 A 
ATOM      3  C   UNL     1      -4.764   0.684   0.028  0.00  0.00    -0.023 A 
ATOM      4  C   UNL     1      -4.382  -0.611   0.020  0.00  0.00    -0.004 A 
ATOM      5  S   UNL     1      -2.612  -0.560   0.012  0.00  0.00    -0.077 S 
ATOM      6  C   UNL     1      -5.272  -1.816   0.016  0.00  0.00    +0.046 C 
ATOM      7  C   UNL     1      -6.693  -1.367  -0.354  0.00  0.00    -0.000 C 
ATOM      8  C   UNL     1      -7.059  -0.143   0.491  0.00  0.00    +0.009 C 
ATOM      9  C   UNL     1      -6.239   1.066   0.037  0.00  0.00    +0.037 C 
ENDROOT
BRANCH   2  10
ATOM     10  C   UNL     1      -3.944   3.092   0.050  0.00  0.00    +0.244 C 
ATOM     11  O   UNL     1      -4.063   3.700  -0.997  0.00  0.00    -0.270 OA
ATOM     12  N   UNL     1      -4.057   3.743   1.225  0.00  0.00    -0.325 N 
ATOM     13  H   UNL     1      -3.963   3.258   2.059  0.00  0.00    +0.145 HD
ATOM     14  H   UNL     1      -4.233   4.697   1.235  0.00  0.00    +0.145 HD
ENDBRANCH   2  10
BRANCH   1  17
ATOM     15  C   UNL     1      -0.014   1.209   0.009  0.00  0.00    +0.255 C 
ATOM     16  O   UNL     1       0.002  -0.004   0.002  0.00  0.00    -0.272 OA
ATOM     17  N   UNL     1      -1.191   1.867   0.018  0.00  0.00    -0.277 N 
ATOM     18  H   UNL     1      -1.204   2.836   0.023  0.00  0.00    +0.155 HD
BRANCH  15  19
ATOM     19  C   UNL     1       1.280   1.980   0.001  0.00  0.00    +0.324 C 
BRANCH  19  20
ATOM     20  O   UNL     1       2.379   1.066  -0.015  0.00  0.00    -0.482 OA
BRANCH  20  26
ATOM     21  C   UNL     1       5.241   5.019  -0.020  0.00  0.00    +0.044 C 
ATOM     22  C   UNL     1       5.062   3.523  -0.027  0.00  0.00    -0.047 A 
ATOM     23  C   UNL     1       6.169   2.695  -0.042  0.00  0.00    +0.004 A 
ATOM     24  C   UNL     1       6.008   1.322  -0.048  0.00  0.00    +0.008 A 
ATOM     25  C   UNL     1       4.740   0.774  -0.039  0.00  0.00    -0.003 A 
ATOM     26  C   UNL     1       3.627   1.603  -0.024  0.00  0.00    +0.125 A 
ATOM     27  C   UNL     1       3.792   2.980  -0.024  0.00  0.00    +0.049 A 
BRANCH  25  28
ATOM     28  C   UNL     1       4.565  -0.723  -0.045  0.00  0.00    +0.016 C 
ATOM     29  C   UNL     1       5.210  -1.307  -1.304  0.00  0.00    +0.012 C 
ATOM     30  C   UNL     1       5.234  -1.320   1.195  0.00  0.00    +0.012 C 
ENDBRANCH  25  28
ENDBRANCH  20  26
ENDBRANCH  19  20
ENDBRANCH  15  19
ENDBRANCH   1  17
BRANCH   7  31
ATOM     31  C   UNL     1      -7.679  -2.501  -0.069  0.00  0.00    -0.035 C 
ATOM     32  C   UNL     1      -7.630  -2.858   1.418  0.00  0.00    +0.011 C 
ATOM     33  C   UNL     1      -9.094  -2.050  -0.438  0.00  0.00    +0.011 C 
ATOM     34  C   UNL     1      -7.301  -3.727  -0.901  0.00  0.00    +0.011 C 
ENDBRANCH   7  31
TORSDOF 7
