REMARK  Name = ZINC27102727
REMARK  6 active torsions:
REMARK  status: ('A' for Active; 'I' for Inactive)
REMARK    1  A    between atoms: C_1  and  N_2
REMARK    2  A    between atoms: N_2  and  S_3
REMARK    3  A    between atoms: S_3  and  C_6
REMARK    4  A    between atoms: C_8  and  C_12
REMARK    5  A    between atoms: N_9  and  C_11
REMARK    6  A    between atoms: N_14  and  C_15
REMARK                            x       y       z     vdW  Elec       q    Type
REMARK                         _______ _______ _______ _____ _____    ______ ____
ROOT
ATOM      1  C   UNL     1      -1.385   1.213   5.883  0.00  0.00    +0.265 C 
ATOM      2  O   UNL     1      -0.774   2.249   6.070  0.00  0.00    -0.268 OA
ATOM      3  N   UNL     1      -2.149   0.695   6.864  0.00  0.00    -0.280 N 
ATOM      4  H   UNL     1      -2.530  -0.192   6.765  0.00  0.00    +0.155 HD
ENDROOT
BRANCH   3   5
ATOM      5  C   UNL     1      -2.391   1.435   8.028  0.00  0.00    +0.037 A 
ATOM      6  C   UNL     1      -1.519   2.449   8.399  0.00  0.00    +0.027 A 
ATOM      7  C   UNL     1      -1.756   3.181   9.548  0.00  0.00    +0.051 A 
ATOM      8  C   UNL     1      -2.864   2.904  10.329  0.00  0.00    +0.167 A 
ATOM      9  C   UNL     1      -3.742   1.886   9.959  0.00  0.00    +0.169 A 
ATOM     10  C   UNL     1      -3.507   1.158   8.806  0.00  0.00    +0.073 A 
ATOM     11  O   UNL     1      -4.744   1.820  10.892  0.00  0.00    -0.447 OA
ATOM     12  C   UNL     1      -4.180   2.458  12.047  0.00  0.00    +0.254 C 
ATOM     13  O   UNL     1      -3.324   3.467  11.493  0.00  0.00    -0.448 OA
ATOM     14  C   UNL     1      -5.271   3.077  12.926  0.00  0.00    +0.093 C 
ATOM     15  C   UNL     1      -5.475   2.038  14.059  0.00  0.00    +0.008 C 
ATOM     16  C   UNL     1      -4.037   1.519  14.314  0.00  0.00    +0.008 C 
ATOM     17  C   UNL     1      -3.397   1.468  12.908  0.00  0.00    +0.093 C 
ENDBRANCH   3   5
BRANCH   1  20
ATOM     18  C   UNL     1      -1.497  -0.967   2.943  0.00  0.00    +0.123 A 
ATOM     19  C   UNL     1      -1.826  -0.702   4.276  0.00  0.00    +0.061 A 
ATOM     20  C   UNL     1      -1.289   0.529   4.589  0.00  0.00    +0.106 A 
ATOM     21  N   UNL     1      -0.647   0.999   3.466  0.00  0.00    -0.344 N 
ATOM     22  C   UNL     1      -0.776   0.081   2.477  0.00  0.00    +0.114 A 
ATOM     23  C   UNL     1       0.063   2.276   3.358  0.00  0.00    +0.149 C 
BRANCH  18  24
ATOM     24  S   UNL     1      -1.935  -2.411   2.034  0.00  0.00    +0.060 S 
ATOM     25  O   UNL     1      -1.906  -2.050   0.660  0.00  0.00    -0.153 OA
ATOM     26  O   UNL     1      -3.095  -2.946   2.657  0.00  0.00    -0.153 OA
BRANCH  24  28
ATOM     27  C   UNL     1      -0.476  -4.072   3.592  0.00  0.00    +0.127 C 
ATOM     28  N   UNL     1      -0.724  -3.518   2.258  0.00  0.00    -0.193 NA
ATOM     29  H   UNL     1      -0.178  -3.799   1.507  0.00  0.00    +0.148 HD
ENDBRANCH  24  28
ENDBRANCH  18  24
ENDBRANCH   1  20
TORSDOF 4
