REMARK  Name = ZINC00888344
REMARK  11 active torsions:
REMARK  status: ('A' for Active; 'I' for Inactive)
REMARK    1  A    between atoms: C_1  and  O_2
REMARK    2  A    between atoms: O_2  and  C_3
REMARK    3  A    between atoms: C_6  and  C_9
REMARK    4  A    between atoms: N_12  and  C_14
REMARK    5  A    between atoms: C_14  and  C_15
REMARK    6  A    between atoms: N_17  and  C_18
REMARK    7  A    between atoms: N_17  and  C_24
REMARK    8  A    between atoms: C_18  and  C_19
REMARK    9  A    between atoms: C_24  and  C_26
REMARK   10  A    between atoms: C_24  and  C_31
REMARK   11  A    between atoms: N_33  and  C_34
REMARK                            x       y       z     vdW  Elec       q    Type
REMARK                         _______ _______ _______ _____ _____    ______ ____
ROOT
ATOM      1  C   UNL     1      -1.930   3.069  -2.359  0.00  0.00    +0.240 C 
ATOM      2  O   UNL     1      -2.374   2.864  -3.469  0.00  0.00    -0.273 OA
ATOM      3  N   UNL     1      -1.619   2.033  -1.555  0.00  0.00    -0.277 N 
ENDROOT
BRANCH   1   4
ATOM      4  C   UNL     1      -1.727   4.483  -1.879  0.00  0.00    +0.264 C 
BRANCH   4   8
ATOM      5  C   UNL     1      -1.574   6.640  -4.667  0.00  0.00    +0.205 A 
ATOM      6  N   UNL     1      -2.873   6.711  -4.344  0.00  0.00    -0.108 NA
ATOM      7  N   UNL     1      -3.054   5.949  -3.319  0.00  0.00    -0.045 NA
ATOM      8  N   UNL     1      -1.931   5.412  -2.993  0.00  0.00    -0.154 N 
ATOM      9  N   UNL     1      -1.012   5.823  -3.798  0.00  0.00    -0.130 NA
BRANCH   5  13
ATOM     10  C   UNL     1       0.364   8.672  -7.864  0.00  0.00    +0.120 A 
ATOM     11  C   UNL     1      -0.998   8.848  -7.655  0.00  0.00    +0.046 A 
ATOM     12  C   UNL     1      -1.628   8.190  -6.619  0.00  0.00    +0.015 A 
ATOM     13  C   UNL     1      -0.898   7.349  -5.782  0.00  0.00    +0.023 A 
ATOM     14  C   UNL     1       0.470   7.179  -5.991  0.00  0.00    +0.015 A 
ATOM     15  C   UNL     1       1.094   7.835  -7.031  0.00  0.00    +0.046 A 
BRANCH  10  17
ATOM     16  C   UNL     1       2.385   9.095  -9.042  0.00  0.00    +0.277 C 
ATOM     17  O   UNL     1       0.982   9.321  -8.885  0.00  0.00    -0.495 OA
ENDBRANCH  10  17
ENDBRANCH   5  13
ENDBRANCH   4   8
ENDBRANCH   1   4
BRANCH   3  18
ATOM     18  C   UNL     1      -1.216   2.277  -0.168  0.00  0.00    +0.151 C 
BRANCH  18  19
ATOM     19  C   UNL     1      -2.438   2.563   0.667  0.00  0.00    +0.007 A 
ATOM     20  C   UNL     1      -3.123   1.732   1.490  0.00  0.00    +0.013 A 
ATOM     21  C   UNL     1      -4.227   2.217   2.165  0.00  0.00    +0.008 A 
ATOM     22  C   UNL     1      -4.592   3.510   1.984  0.00  0.00    +0.045 A 
ATOM     23  S   UNL     1      -3.353   4.087   0.835  0.00  0.00    -0.100 S 
ENDBRANCH  18  19
ENDBRANCH   3  18
BRANCH   3  24
ATOM     24  C   UNL     1      -1.684   0.663  -2.069  0.00  0.00    +0.228 C 
BRANCH  24  25
ATOM     25  C   UNL     1      -2.520  -0.182  -1.143  0.00  0.00    +0.134 A 
ATOM     26  C   UNL     1      -3.792  -0.562  -1.358  0.00  0.00    +0.047 A 
ATOM     27  C   UNL     1      -4.182  -1.339  -0.243  0.00  0.00    +0.041 A 
ATOM     28  C   UNL     1      -3.127  -1.381   0.591  0.00  0.00    +0.195 A 
ATOM     29  O   UNL     1      -2.123  -0.679   0.041  0.00  0.00    -0.465 OA
ENDBRANCH  24  25
BRANCH  24  30
ATOM     30  C   UNL     1      -0.292   0.091  -2.151  0.00  0.00    +0.241 C 
ATOM     31  O   UNL     1       0.660   0.762  -1.814  0.00  0.00    -0.273 OA
ATOM     32  N   UNL     1      -0.105  -1.166  -2.599  0.00  0.00    -0.311 N 
ATOM     33  H   UNL     1      -0.867  -1.703  -2.869  0.00  0.00    +0.149 HD
BRANCH  32  34
ATOM     34  C   UNL     1       1.248  -1.722  -2.679  0.00  0.00    +0.073 C 
ATOM     35  C   UNL     1       1.891  -1.311  -4.005  0.00  0.00    +0.022 C 
ATOM     36  C   UNL     1       3.304  -1.891  -4.088  0.00  0.00    +0.002 C 
ATOM     37  C   UNL     1       3.234  -3.417  -4.007  0.00  0.00    +0.000 C 
ATOM     38  C   UNL     1       2.591  -3.829  -2.682  0.00  0.00    +0.002 C 
ATOM     39  C   UNL     1       1.178  -3.248  -2.598  0.00  0.00    +0.022 C 
ENDBRANCH  32  34
ENDBRANCH  24  30
ENDBRANCH   3  24
TORSDOF 10
