REMARK  Name = ZINC39836557
REMARK  9 active torsions:
REMARK  status: ('A' for Active; 'I' for Inactive)
REMARK    1  A    between atoms: C_1  and  C_2
REMARK    2  A    between atoms: C_10  and  C_11
REMARK    3  A    between atoms: N_13  and  C_14
REMARK    4  A    between atoms: C_15  and  C_28
REMARK    5  A    between atoms: C_20  and  C_24
REMARK    6  A    between atoms: C_24  and  C_25
REMARK    7  A    between atoms: C_24  and  C_26
REMARK    8  A    between atoms: C_24  and  C_27
REMARK    9  A    between atoms: N_30  and  C_31
REMARK                            x       y       z     vdW  Elec       q    Type
REMARK                         _______ _______ _______ _____ _____    ______ ____
ROOT
ATOM      1  C   UNL     1       0.061  -0.873   4.798  0.00  0.00    +0.085 A 
ATOM      2  C   UNL     1       0.089  -1.657   5.941  0.00  0.00    +0.069 A 
ATOM      3  C   UNL     1       0.091  -0.968   7.220  0.00  0.00    -0.023 A 
ATOM      4  C   UNL     1       0.064   0.379   7.122  0.00  0.00    -0.004 A 
ATOM      5  S   UNL     1       0.046   0.702   5.383  0.00  0.00    -0.077 S 
ATOM      6  C   UNL     1       0.058   1.363   8.250  0.00  0.00    +0.046 C 
ATOM      7  C   UNL     1      -0.295   0.613   9.543  0.00  0.00    -0.000 C 
ATOM      8  C   UNL     1       0.566  -0.650   9.633  0.00  0.00    +0.009 C 
ATOM      9  C   UNL     1       0.120  -1.661   8.574  0.00  0.00    +0.037 C 
ENDROOT
BRANCH   1  12
ATOM     10  C   UNL     1       0.032  -0.383   2.483  0.00  0.00    +0.284 C 
ATOM     11  O   UNL     1       0.018   0.805   2.745  0.00  0.00    -0.266 OA
ATOM     12  N   UNL     1       0.054  -1.292   3.478  0.00  0.00    -0.273 N 
ATOM     13  H   UNL     1       0.065  -2.239   3.270  0.00  0.00    +0.156 HD
BRANCH  10  23
ATOM     14  C   UNL     1      -0.018   1.503   0.010  0.00  0.00    +0.048 C 
ATOM     15  C   UNL     1       0.002  -0.004   0.002  0.00  0.00    +0.008 A 
ATOM     16  C   UNL     1       0.009  -0.877  -1.171  0.00  0.00    +0.024 A 
ATOM     17  C   UNL     1      -0.001  -0.654  -2.550  0.00  0.00    +0.012 A 
ATOM     18  C   UNL     1       0.009  -1.718  -3.408  0.00  0.00    +0.001 A 
ATOM     19  C   UNL     1       0.029  -3.017  -2.918  0.00  0.00    +0.004 A 
ATOM     20  C   UNL     1       0.039  -3.257  -1.561  0.00  0.00    +0.047 A 
ATOM     21  C   UNL     1       0.029  -2.191  -0.669  0.00  0.00    +0.136 A 
ATOM     22  O   UNL     1       0.034  -2.113   0.676  0.00  0.00    -0.450 OA
ATOM     23  C   UNL     1       0.024  -0.827   1.083  0.00  0.00    +0.194 A 
ENDBRANCH  10  23
ENDBRANCH   1  12
BRANCH   7  24
ATOM     24  C   UNL     1      -0.019   1.512  10.749  0.00  0.00    -0.035 C 
ATOM     25  C   UNL     1      -0.872   2.778  10.647  0.00  0.00    +0.011 C 
ATOM     26  C   UNL     1      -0.371   0.762  12.035  0.00  0.00    +0.011 C 
ATOM     27  C   UNL     1       1.462   1.895  10.771  0.00  0.00    +0.011 C 
ENDBRANCH   7  24
BRANCH   2  28
ATOM     28  C   UNL     1       0.115  -3.121   5.863  0.00  0.00    +0.247 C 
ATOM     29  O   UNL     1       1.180  -3.709   5.818  0.00  0.00    -0.270 OA
ATOM     30  N   UNL     1      -1.040  -3.815   5.840  0.00  0.00    -0.307 N 
ATOM     31  H   UNL     1      -1.888  -3.346   5.875  0.00  0.00    +0.149 HD
BRANCH  30  32
ATOM     32  C   UNL     1      -1.014  -5.278   5.761  0.00  0.00    +0.096 C 
ATOM     33  C   UNL     1      -0.874  -5.863   7.176  0.00  0.00    +0.046 C 
ATOM     34  C   UNL     1      -1.163  -7.389   7.100  0.00  0.00    +0.168 C 
ATOM     35  S   UNL     1      -2.587  -7.405   5.932  0.00  0.00    -0.029 S 
ATOM     36  O   UNL     1      -3.796  -7.356   6.677  0.00  0.00    -0.174 OA
ATOM     37  O   UNL     1      -2.393  -8.442   4.980  0.00  0.00    -0.174 OA
ATOM     38  C   UNL     1      -2.326  -5.781   5.112  0.00  0.00    +0.188 C 
ENDBRANCH  30  32
ENDBRANCH   2  28
TORSDOF 5
