REMARK  Name = ZINC31399412
REMARK  11 active torsions:
REMARK  status: ('A' for Active; 'I' for Inactive)
REMARK    1  A    between atoms: C_1  and  C_2
REMARK    2  A    between atoms: C_5  and  S_9
REMARK    3  A    between atoms: C_7  and  C_8
REMARK    4  A    between atoms: S_9  and  N_12
REMARK    5  A    between atoms: N_12  and  C_13
REMARK    6  A    between atoms: C_16  and  C_19
REMARK    7  A    between atoms: N_21  and  C_22
REMARK    8  A    between atoms: C_22  and  C_24
REMARK    9  A    between atoms: C_22  and  C_25
REMARK   10  A    between atoms: C_28  and  N_31
REMARK   11  A    between atoms: C_32  and  C_34
REMARK                            x       y       z     vdW  Elec       q    Type
REMARK                         _______ _______ _______ _____ _____    ______ ____
ROOT
ATOM      1  C   UNL     1       1.619   2.573   0.820  0.00  0.00    +0.048 A 
ATOM      2  C   UNL     1       2.785   2.166   1.463  0.00  0.00    +0.025 A 
ATOM      3  C   UNL     1       3.994   2.727   1.119  0.00  0.00    +0.015 A 
ATOM      4  C   UNL     1       4.049   3.715   0.131  0.00  0.00    +0.037 A 
ATOM      5  C   UNL     1       2.875   4.125  -0.508  0.00  0.00    +0.015 A 
ATOM      6  C   UNL     1       1.671   3.556  -0.164  0.00  0.00    +0.025 A 
ENDROOT
BRANCH   4   7
ATOM      7  C   UNL     1       5.342   4.323  -0.235  0.00  0.00    +0.245 C 
ATOM      8  O   UNL     1       5.388   5.182  -1.094  0.00  0.00    -0.270 OA
ATOM      9  N   UNL     1       6.472   3.926   0.383  0.00  0.00    -0.305 N 
ATOM     10  H   UNL     1       6.430   3.149   1.160  0.00  0.00    +0.150 HD
BRANCH   9  11
ATOM     11  C   UNL     1       7.756   4.530   0.019  0.00  0.00    +0.100 C 
ATOM     12  C   UNL     1       7.953   5.826   0.810  0.00  0.00    +0.033 C 
BRANCH  11  13
ATOM     13  C   UNL     1       8.872   3.571   0.342  0.00  0.00    -0.027 A 
ATOM     14  C   UNL     1       8.830   2.831   1.509  0.00  0.00    +0.007 A 
ATOM     15  C   UNL     1       9.849   1.947   1.806  0.00  0.00    +0.023 A 
ATOM     16  C   UNL     1      10.922   1.809   0.935  0.00  0.00    +0.033 A 
ATOM     17  C   UNL     1      10.964   2.557  -0.234  0.00  0.00    +0.023 A 
ATOM     18  C   UNL     1       9.939   3.436  -0.527  0.00  0.00    +0.007 A 
BRANCH  16  19
ATOM     19  N   UNL     1      11.958   0.918   1.235  0.00  0.00    -0.285 N 
ATOM     20  C   UNL     1      13.221   1.203   0.860  0.00  0.00    +0.220 C 
ATOM     21  O   UNL     1      13.475   2.272   0.347  0.00  0.00    -0.275 OA
ATOM     22  H   UNL     1      11.742  -0.015   1.776  0.00  0.00    +0.155 HD
BRANCH  20  23
ATOM     23  C   UNL     1      14.318   0.193   1.079  0.00  0.00    +0.075 C 
ATOM     24  C   UNL     1      15.387   0.525   2.122  0.00  0.00    +0.013 C 
ATOM     25  C   UNL     1      15.730   0.576   0.632  0.00  0.00    +0.013 C 
ENDBRANCH  20  23
ENDBRANCH  16  19
ENDBRANCH  11  13
ENDBRANCH   9  11
ENDBRANCH   4   7
BRANCH   1  26
ATOM     26  N   UNL     1       0.401   2.000   1.165  0.00  0.00    -0.216 N 
ATOM     27  H   UNL     1      -0.482   2.637   1.323  0.00  0.00    +0.174 HD
BRANCH  26  28
ATOM     28  S   UNL     1       0.278   0.357   1.339  0.00  0.00    +0.072 S 
ATOM     29  O   UNL     1       1.325  -0.038   2.215  0.00  0.00    -0.150 OA
ATOM     30  O   UNL     1      -1.089   0.079   1.612  0.00  0.00    -0.150 OA
BRANCH  28  35
ATOM     31  C   UNL     1       1.499  -2.103  -4.032  0.00  0.00    +0.044 C 
ATOM     32  C   UNL     1       1.194  -1.489  -2.691  0.00  0.00    -0.047 A 
ATOM     33  C   UNL     1      -0.086  -1.049  -2.407  0.00  0.00    +0.005 A 
ATOM     34  C   UNL     1      -0.366  -0.490  -1.174  0.00  0.00    +0.029 A 
ATOM     35  C   UNL     1       0.634  -0.361  -0.229  0.00  0.00    +0.109 A 
ATOM     36  C   UNL     1       1.914  -0.801  -0.513  0.00  0.00    +0.032 A 
ATOM     37  C   UNL     1       2.193  -1.365  -1.744  0.00  0.00    -0.046 A 
ATOM     38  C   UNL     1       3.588  -1.845  -2.054  0.00  0.00    +0.044 C 
ENDBRANCH  28  35
ENDBRANCH  26  28
ENDBRANCH   1  26
TORSDOF 8
