REMARK  Name = ZINC53602520
REMARK  4 active torsions:
REMARK  status: ('A' for Active; 'I' for Inactive)
REMARK    1  A    between atoms: N_10  and  C_13
REMARK    2  A    between atoms: C_13  and  C_14
REMARK    3  A    between atoms: C_17  and  C_19
REMARK    4  A    between atoms: C_22  and  C_25
REMARK                            x       y       z     vdW  Elec       q    Type
REMARK                         _______ _______ _______ _____ _____    ______ ____
ROOT
ATOM      1  C   UNL     1       0.405  -6.750   1.671  0.00  0.00    +0.063 A 
ATOM      2  C   UNL     1       0.601  -7.840   0.879  0.00  0.00    +0.071 A 
ATOM      3  S   UNL     1      -1.013  -8.606   0.968  0.00  0.00    -0.075 S 
ATOM      4  C   UNL     1      -1.769  -7.396   2.045  0.00  0.00    +0.109 A 
ATOM      5  N   UNL     1      -0.761  -6.555   2.236  0.00  0.00    -0.243 NA
ENDROOT
BRANCH   4   6
ATOM      6  C   UNL     1      -3.144  -7.348   2.582  0.00  0.00    +0.007 A 
ATOM      7  C   UNL     1      -3.533  -6.295   3.413  0.00  0.00    +0.011 A 
ATOM      8  C   UNL     1      -4.814  -6.250   3.914  0.00  0.00    +0.014 A 
ATOM      9  C   UNL     1      -5.726  -7.259   3.591  0.00  0.00    +0.037 A 
ATOM     10  C   UNL     1      -5.337  -8.313   2.760  0.00  0.00    +0.014 A 
ATOM     11  C   UNL     1      -4.057  -8.354   2.255  0.00  0.00    +0.011 A 
BRANCH   9  12
ATOM     12  C   UNL     1      -7.101  -7.211   4.128  0.00  0.00    +0.242 C 
ATOM     13  O   UNL     1      -7.440  -6.295   4.851  0.00  0.00    -0.270 OA
ATOM     14  N   UNL     1      -7.980  -8.184   3.817  0.00  0.00    -0.325 N 
ATOM     15  H   UNL     1      -7.710  -8.915   3.240  0.00  0.00    +0.145 HD
ATOM     16  H   UNL     1      -8.883  -8.153   4.170  0.00  0.00    +0.145 HD
ENDBRANCH   9  12
ENDBRANCH   4   6
BRANCH   1  17
ATOM     17  C   UNL     1       1.529  -5.774   1.902  0.00  0.00    +0.140 C 
BRANCH  17  27
ATOM     18  C   UNL     1       2.370   1.437   0.009  0.00  0.00    +0.005 A 
ATOM     19  C   UNL     1       1.127   2.057   0.003  0.00  0.00    +0.018 A 
ATOM     20  C   UNL     1      -0.015   1.282  -0.012  0.00  0.00    +0.084 A 
ATOM     21  N   UNL     1       0.061  -0.036  -0.020  0.00  0.00    -0.350 N 
ATOM     22  C   UNL     1       1.227  -0.664  -0.014  0.00  0.00    +0.099 A 
ATOM     23  C   UNL     1       2.418   0.054   0.001  0.00  0.00    +0.042 A 
ATOM     24  N   UNL     1       1.260  -2.054  -0.022  0.00  0.00    -0.314 N 
ATOM     25  C   UNL     1       2.535  -2.777  -0.142  0.00  0.00    +0.122 C 
ATOM     26  C   UNL     1       2.615  -3.814   0.984  0.00  0.00    +0.104 C 
ATOM     27  N   UNL     1       1.414  -4.660   0.951  0.00  0.00    -0.294 NA
ATOM     28  C   UNL     1       0.200  -3.874   1.206  0.00  0.00    +0.104 C 
ATOM     29  C   UNL     1       0.023  -2.839   0.095  0.00  0.00    +0.122 C 
ATOM     30  H   UNL     1      -0.757  -0.557  -0.031  0.00  0.00    +0.166 HD
ENDBRANCH  17  27
ENDBRANCH   1  17
TORSDOF 4
