REMARK  Name = ZINC09088922
REMARK  7 active torsions:
REMARK  status: ('A' for Active; 'I' for Inactive)
REMARK    1  A    between atoms: C_1  and  C_2
REMARK    2  A    between atoms: C_2  and  C_3
REMARK    3  A    between atoms: C_3  and  C_4
REMARK    4  A    between atoms: C_11  and  N_23
REMARK    5  A    between atoms: C_12  and  C_21
REMARK    6  A    between atoms: C_13  and  C_15
REMARK    7  A    between atoms: C_19  and  C_20
REMARK                            x       y       z     vdW  Elec       q    Type
REMARK                         _______ _______ _______ _____ _____    ______ ____
ROOT
ATOM      1  C   UNL     1       0.762  -2.018   1.233  0.00  0.00    +0.044 A 
ATOM      2  C   UNL     1       1.657  -2.794   0.604  0.00  0.00    +0.049 A 
ATOM      3  C   UNL     1       1.319  -4.143   0.851  0.00  0.00    +0.245 A 
ATOM      4  N   UNL     1       0.256  -4.160   1.602  0.00  0.00    -0.135 NA
ATOM      5  N   UNL     1      -0.115  -2.832   1.864  0.00  0.00    -0.278 N 
ATOM      6  H   UNL     1      -0.870  -2.547   2.402  0.00  0.00    +0.189 HD
ATOM      7  O   UNL     1       2.048  -5.173   0.345  0.00  0.00    -0.421 OA
ATOM      8  C   UNL     1       3.257  -4.882  -0.175  0.00  0.00    +0.201 C 
ATOM      9  C   UNL     1       3.685  -3.636  -0.464  0.00  0.00    +0.098 C 
ATOM     10  C   UNL     1       2.844  -2.404  -0.240  0.00  0.00    +0.102 C 
ENDROOT
BRANCH  10  11
ATOM     11  C   UNL     1       2.371  -1.863  -1.564  0.00  0.00    -0.025 A 
ATOM     12  C   UNL     1       1.610  -2.647  -2.411  0.00  0.00    +0.012 A 
ATOM     13  C   UNL     1       1.201  -2.129  -3.595  0.00  0.00    +0.046 A 
ATOM     14  S   UNL     1       1.897  -0.486  -3.540  0.00  0.00    -0.102 S 
ATOM     15  C   UNL     1       2.682  -0.598  -1.941  0.00  0.00    -0.009 A 
ATOM     16  C   UNL     1       3.482   0.443  -1.201  0.00  0.00    +0.052 C 
ENDBRANCH  10  11
BRANCH   8  17
ATOM     17  N   UNL     1       4.112  -5.926  -0.427  0.00  0.00    -0.328 N 
ATOM     18  H   UNL     1       3.838  -6.835  -0.231  0.00  0.00    +0.145 HD
ATOM     19  H   UNL     1       4.990  -5.754  -0.801  0.00  0.00    +0.145 HD
ENDBRANCH   8  17
BRANCH   9  20
ATOM     20  C   UNL     1       5.000  -3.475  -1.010  0.00  0.00    +0.101 C 
ATOM     21  N   UNL     1       6.042  -3.347  -1.442  0.00  0.00    -0.191 NA
ENDBRANCH   9  20
BRANCH   1  22
ATOM     22  C   UNL     1       0.742  -0.511   1.242  0.00  0.00    +0.055 C 
BRANCH  22  24
ATOM     23  C   UNL     1      -0.019   1.526   0.010  0.00  0.00    +0.004 C 
ATOM     24  C   UNL     1       0.002  -0.004   0.002  0.00  0.00    +0.003 C 
ENDBRANCH  22  24
ENDBRANCH   1  22
TORSDOF 5
