REMARK  Name = ZINC59092672
REMARK  15 active torsions:
REMARK  status: ('A' for Active; 'I' for Inactive)
REMARK    1  A    between atoms: C_1  and  C_2
REMARK    2  A    between atoms: C_2  and  C_3
REMARK    3  A    between atoms: C_7  and  C_30
REMARK    4  A    between atoms: C_8  and  N_9
REMARK    5  A    between atoms: N_9  and  C_10
REMARK    6  A    between atoms: C_10  and  N_12
REMARK    7  A    between atoms: N_12  and  C_13
REMARK    8  A    between atoms: N_12  and  C_20
REMARK    9  A    between atoms: C_13  and  C_14
REMARK   10  A    between atoms: C_17  and  C_19
REMARK   11  A    between atoms: C_22  and  C_28
REMARK   12  A    between atoms: C_22  and  C_29
REMARK   13  A    between atoms: C_24  and  C_26
REMARK   14  A    between atoms: C_24  and  C_27
REMARK   15  A    between atoms: C_30  and  C_31
REMARK                            x       y       z     vdW  Elec       q    Type
REMARK                         _______ _______ _______ _____ _____    ______ ____
ROOT
ATOM      1  N   UNL     1       5.938   0.693   0.030  0.00  0.00    -0.302 N 
ENDROOT
BRANCH   1   2
ATOM      2  C   UNL     1       5.842   0.908   1.480  0.00  0.00    +0.073 C 
ATOM      3  C   UNL     1       5.565  -0.429   2.170  0.00  0.00    +0.009 C 
ATOM      4  C   UNL     1       5.451  -0.219   3.679  0.00  0.00    -0.072 C 
ATOM      5  N   UNL     1       4.467   0.799   4.018  0.00  0.00    +0.386 N 
ATOM      6  C   UNL     1       4.504   2.048   3.276  0.00  0.00    -0.072 C 
ATOM      7  C   UNL     1       4.676   1.851   1.774  0.00  0.00    +0.009 C 
ATOM      8  C   UNL     1       3.147   2.758   3.493  0.00  0.00    -0.010 C 
ATOM      9  C   UNL     1       5.589   2.989   3.806  0.00  0.00    -0.010 C 
ATOM     10  C   UNL     1       6.824   0.087   4.276  0.00  0.00    -0.010 C 
ATOM     11  C   UNL     1       4.971  -1.555   4.292  0.00  0.00    -0.010 C 
ATOM     12  H   UNL     1       3.534   0.390   3.914  0.00  0.00    -0.084 HD
ATOM     13  H   UNL     1       4.556   1.012   5.014  0.00  0.00    -0.084 HD
ENDBRANCH   1   2
BRANCH   1  14
ATOM     14  C   UNL     1       4.972   0.009  -0.614  0.00  0.00    +0.138 C 
ATOM     15  S   UNL     1       5.173  -0.408  -2.263  0.00  0.00    -0.018 S 
BRANCH  14  16
ATOM     16  N   UNL     1       3.849  -0.348   0.039  0.00  0.00    -0.296 N 
ATOM     17  H   UNL     1       3.779  -1.230   0.438  0.00  0.00    +0.154 HD
BRANCH  16  23
ATOM     18  C   UNL     1       1.663   0.223   0.893  0.00  0.00    -0.026 A 
ATOM     19  C   UNL     1       0.615   1.117   0.997  0.00  0.00    +0.005 A 
ATOM     20  C   UNL     1       0.679   2.337   0.349  0.00  0.00    +0.001 A 
ATOM     21  C   UNL     1       1.790   2.666  -0.404  0.00  0.00    +0.005 A 
ATOM     22  C   UNL     1       2.841   1.776  -0.512  0.00  0.00    -0.026 A 
ATOM     23  C   UNL     1       2.783   0.552   0.141  0.00  0.00    +0.039 A 
BRANCH  18  25
ATOM     24  C   UNL     1       2.256  -0.991   2.972  0.00  0.00    +0.009 C 
ATOM     25  C   UNL     1       1.592  -1.107   1.598  0.00  0.00    +0.033 C 
ENDBRANCH  18  25
BRANCH  22  26
ATOM     26  C   UNL     1       4.053   2.136  -1.333  0.00  0.00    +0.033 C 
ATOM     27  C   UNL     1       3.864   1.636  -2.767  0.00  0.00    +0.009 C 
ENDBRANCH  22  26
ENDBRANCH  16  23
ENDBRANCH  14  16
ENDBRANCH   1  14
BRANCH   1  28
ATOM     28  C   UNL     1       7.083   1.222  -0.715  0.00  0.00    +0.181 C 
BRANCH  28  29
ATOM     29  C   UNL     1       6.768   2.614  -1.197  0.00  0.00    +0.122 A 
ATOM     30  C   UNL     1       7.019   3.754  -0.528  0.00  0.00    +0.046 A 
ATOM     31  C   UNL     1       6.566   4.816  -1.344  0.00  0.00    +0.045 A 
ATOM     32  C   UNL     1       6.064   4.262  -2.462  0.00  0.00    +0.102 A 
ATOM     33  O   UNL     1       6.195   2.929  -2.370  0.00  0.00    -0.463 OA
ATOM     34  C   UNL     1       5.463   5.011  -3.623  0.00  0.00    +0.086 C 
ENDBRANCH  28  29
ENDBRANCH   1  28
TORSDOF 8
