REMARK  Name = ZINC50006675
REMARK  6 active torsions:
REMARK  status: ('A' for Active; 'I' for Inactive)
REMARK    1  A    between atoms: C_1  and  C_2
REMARK    2  A    between atoms: C_5  and  C_7
REMARK    3  A    between atoms: C_13  and  C_15
REMARK    4  A    between atoms: C_17  and  C_26
REMARK    5  A    between atoms: C_21  and  C_25
REMARK    6  A    between atoms: N_23  and  C_24
REMARK                            x       y       z     vdW  Elec       q    Type
REMARK                         _______ _______ _______ _____ _____    ______ ____
ROOT
ATOM      1  C   UNL     1       1.336  -4.079   0.083  0.00  0.00    +0.165 A 
ATOM      2  N   UNL     1       0.634  -5.175  -0.143  0.00  0.00    -0.193 NA
ATOM      3  C   UNL     1       1.343  -6.246   0.218  0.00  0.00    +0.241 A 
ATOM      4  N   UNL     1       2.508  -5.858   0.680  0.00  0.00    -0.136 NA
ATOM      5  N   UNL     1       2.536  -4.456   0.601  0.00  0.00    -0.257 N 
ATOM      6  N   UNL     1       0.912  -7.571   0.119  0.00  0.00    -0.249 N 
ATOM      7  C   UNL     1       1.720  -8.574   0.517  0.00  0.00    +0.251 C 
ATOM      8  O   UNL     1       2.824  -8.325   0.962  0.00  0.00    -0.270 OA
ATOM      9  H   UNL     1       0.031  -7.770  -0.236  0.00  0.00    +0.158 HD
ATOM     10  H   UNL     1       3.265  -3.873   0.864  0.00  0.00    +0.191 HD
ENDROOT
BRANCH   7  11
ATOM     11  C   UNL     1       1.264  -9.976   0.412  0.00  0.00    +0.051 A 
ATOM     12  C   UNL     1      -0.059 -10.325   0.677  0.00  0.00    +0.037 A 
ATOM     13  C   UNL     1      -0.447 -11.651   0.568  0.00  0.00    +0.041 A 
ATOM     14  N   UNL     1       0.402 -12.593   0.220  0.00  0.00    -0.233 NA
ATOM     15  C   UNL     1       1.673 -12.329  -0.045  0.00  0.00    +0.159 A 
ATOM     16  C   UNL     1       2.155 -11.006   0.035  0.00  0.00    +0.054 A 
ATOM     17  C   UNL     1       3.523 -11.041  -0.305  0.00  0.00    +0.070 A 
ATOM     18  N   UNL     1       3.853 -12.272  -0.576  0.00  0.00    -0.174 NA
ATOM     19  N   UNL     1       2.739 -13.105  -0.419  0.00  0.00    -0.249 N 
ATOM     20  C   UNL     1       2.713 -14.554  -0.634  0.00  0.00    +0.174 C 
ATOM     21  C   UNL     1       4.449  -9.853  -0.348  0.00  0.00    +0.068 C 
ATOM     22  C   UNL     1      -1.879 -12.023   0.855  0.00  0.00    +0.065 C 
ENDBRANCH   7  11
BRANCH   1  27
ATOM     23  C   UNL     1       0.560   1.458  -0.580  0.00  0.00    +0.051 C 
ATOM     24  C   UNL     1       0.525  -0.047  -0.502  0.00  0.00    -0.013 A 
ATOM     25  C   UNL     1      -0.470  -0.898  -0.865  0.00  0.00    +0.011 A 
ATOM     26  C   UNL     1      -0.286  -2.252  -0.705  0.00  0.00    +0.019 A 
ATOM     27  C   UNL     1       0.901  -2.699  -0.183  0.00  0.00    +0.056 A 
ATOM     28  S   UNL     1       1.783  -1.169   0.084  0.00  0.00    -0.090 S 
ENDBRANCH   1  27
TORSDOF 2
