REMARK  Name = ZINC40946590
REMARK  10 active torsions:
REMARK  status: ('A' for Active; 'I' for Inactive)
REMARK    1  A    between atoms: C_1  and  C_2
REMARK    2  A    between atoms: C_2  and  C_4
REMARK    3  A    between atoms: C_2  and  O_18
REMARK    4  A    between atoms: N_6  and  C_7
REMARK    5  A    between atoms: C_8  and  C_15
REMARK    6  A    between atoms: O_18  and  C_19
REMARK    7  A    between atoms: C_22  and  C_25
REMARK    8  A    between atoms: C_25  and  C_26
REMARK    9  A    between atoms: C_25  and  C_27
REMARK   10  A    between atoms: C_25  and  C_28
REMARK                            x       y       z     vdW  Elec       q    Type
REMARK                         _______ _______ _______ _____ _____    ______ ____
ROOT
ATOM      1  C   UNL     1       0.627  -0.283  -1.345  0.00  0.00    +0.258 C 
ATOM      2  O   UNL     1      -0.044  -0.756  -2.238  0.00  0.00    -0.271 OA
ATOM      3  N   UNL     1       1.927  -0.000  -1.555  0.00  0.00    -0.276 N 
ATOM      4  H   UNL     1       2.463   0.378  -0.841  0.00  0.00    +0.155 HD
ENDROOT
BRANCH   3   5
ATOM      5  C   UNL     1       2.499  -0.250  -2.793  0.00  0.00    +0.084 A 
ATOM      6  C   UNL     1       3.807  -0.031  -3.186  0.00  0.00    +0.068 A 
ATOM      7  C   UNL     1       4.162  -0.382  -4.559  0.00  0.00    -0.023 A 
ATOM      8  C   UNL     1       3.142  -0.884  -5.278  0.00  0.00    -0.004 A 
ATOM      9  S   UNL     1       1.766  -0.894  -4.157  0.00  0.00    -0.077 S 
ATOM     10  C   UNL     1       3.560  -1.225  -6.683  0.00  0.00    +0.043 C 
ATOM     11  C   UNL     1       4.891  -0.468  -6.888  0.00  0.00    +0.010 C 
ATOM     12  C   UNL     1       5.408  -0.343  -5.441  0.00  0.00    +0.037 C 
BRANCH   6  13
ATOM     13  C   UNL     1       4.797   0.532  -2.262  0.00  0.00    +0.244 C 
ATOM     14  O   UNL     1       5.465  -0.207  -1.563  0.00  0.00    -0.270 OA
ATOM     15  N   UNL     1       4.966   1.867  -2.187  0.00  0.00    -0.325 N 
ATOM     16  H   UNL     1       4.433   2.455  -2.744  0.00  0.00    +0.145 HD
ATOM     17  H   UNL     1       5.621   2.239  -1.575  0.00  0.00    +0.145 HD
ENDBRANCH   6  13
ENDBRANCH   3   5
BRANCH   1  19
ATOM     18  C   UNL     1       0.004   1.495   0.268  0.00  0.00    +0.062 C 
ATOM     19  C   UNL     1       0.005  -0.012   0.001  0.00  0.00    +0.256 C 
BRANCH  19  20
ATOM     20  O   UNL     1      -1.339  -0.499   0.012  0.00  0.00    -0.480 OA
BRANCH  20  21
ATOM     21  C   UNL     1      -1.869  -0.818   1.222  0.00  0.00    +0.122 A 
ATOM     22  C   UNL     1      -3.124  -1.405   1.297  0.00  0.00    +0.046 A 
ATOM     23  C   UNL     1      -3.661  -1.729   2.528  0.00  0.00    +0.008 A 
ATOM     24  C   UNL     1      -2.950  -1.468   3.684  0.00  0.00    -0.042 A 
ATOM     25  C   UNL     1      -1.699  -0.881   3.612  0.00  0.00    +0.008 A 
ATOM     26  C   UNL     1      -1.155  -0.561   2.383  0.00  0.00    +0.046 A 
BRANCH  24  27
ATOM     27  C   UNL     1      -3.538  -1.821   5.026  0.00  0.00    -0.013 C 
ATOM     28  C   UNL     1      -3.802  -3.327   5.086  0.00  0.00    +0.015 C 
ATOM     29  C   UNL     1      -2.556  -1.431   6.132  0.00  0.00    +0.015 C 
ATOM     30  C   UNL     1      -4.854  -1.065   5.221  0.00  0.00    +0.015 C 
ENDBRANCH  24  27
ENDBRANCH  20  21
ENDBRANCH  19  20
ENDBRANCH   1  19
TORSDOF 6
