REMARK  Name = ZINC20746115
REMARK  5 active torsions:
REMARK  status: ('A' for Active; 'I' for Inactive)
REMARK    1  A    between atoms: C_1  and  O_2
REMARK    2  A    between atoms: O_2  and  C_3
REMARK    3  A    between atoms: C_3  and  C_5
REMARK    4  A    between atoms: C_9  and  N_11
REMARK    5  A    between atoms: C_23  and  C_25
REMARK                            x       y       z     vdW  Elec       q    Type
REMARK                         _______ _______ _______ _____ _____    ______ ____
ROOT
ATOM      1  N   UNL     1       1.394  -5.270  -2.609  0.00  0.00    -0.269 N 
ATOM      2  C   UNL     1       1.796  -6.520  -2.917  0.00  0.00    +0.307 C 
ATOM      3  O   UNL     1       1.548  -7.441  -2.163  0.00  0.00    -0.252 OA
ATOM      4  N   UNL     1       2.472  -6.748  -4.060  0.00  0.00    -0.272 N 
ATOM      5  C   UNL     1       2.850  -5.636  -4.945  0.00  0.00    +0.116 C 
ATOM      6  C   UNL     1       4.380  -5.537  -5.000  0.00  0.00    +0.074 C 
ATOM      7  C   UNL     1       4.951  -6.920  -5.176  0.00  0.00    +0.040 A 
ATOM      8  C   UNL     1       4.282  -8.067  -4.932  0.00  0.00    +0.062 A 
ATOM      9  N   UNL     1       5.100  -9.089  -5.193  0.00  0.00    -0.348 N 
ATOM     10  C   UNL     1       6.254  -8.621  -5.594  0.00  0.00    +0.171 A 
ATOM     11  N   UNL     1       6.198  -7.270  -5.598  0.00  0.00    -0.349 N 
ATOM     12  H   UNL     1       6.912  -6.664  -5.852  0.00  0.00    +0.166 HD
ATOM     13  C   UNL     1       2.856  -8.117  -4.450  0.00  0.00    +0.156 C 
ATOM     14  H   UNL     1       1.602  -4.534  -3.205  0.00  0.00    +0.156 HD
ATOM     15  H   UNL     1       4.875 -10.028  -5.100  0.00  0.00    +0.167 HD
ENDROOT
BRANCH  13  16
ATOM     16  C   UNL     1       1.960  -8.604  -5.560  0.00  0.00    -0.021 A 
ATOM     17  C   UNL     1       2.116  -8.108  -6.841  0.00  0.00    +0.007 A 
ATOM     18  C   UNL     1       1.295  -8.554  -7.859  0.00  0.00    +0.015 A 
ATOM     19  C   UNL     1       0.318  -9.498  -7.596  0.00  0.00    +0.018 A 
ATOM     20  C   UNL     1       0.163  -9.994  -6.315  0.00  0.00    +0.015 A 
ATOM     21  C   UNL     1       0.988  -9.550  -5.298  0.00  0.00    +0.007 A 
ATOM     22 BR   UNL     1      -0.805 -10.109  -8.989  0.00  0.00    -0.050 Br
ENDBRANCH  13  16
BRANCH   1  27
ATOM     23  C   UNL     1       0.049  -3.576   0.377  0.00  0.00    +0.061 A 
ATOM     24  C   UNL     1      -0.751  -4.590   0.910  0.00  0.00    +0.015 A 
ATOM     25  C   UNL     1      -0.830  -5.812   0.274  0.00  0.00    +0.003 A 
ATOM     26  C   UNL     1      -0.120  -6.038  -0.891  0.00  0.00    +0.023 A 
ATOM     27  C   UNL     1       0.678  -5.036  -1.430  0.00  0.00    +0.036 A 
ATOM     28  C   UNL     1       0.760  -3.803  -0.802  0.00  0.00    +0.038 A 
BRANCH  23  29
ATOM     29  C   UNL     1       0.135  -2.267   1.055  0.00  0.00    +0.339 C 
ATOM     30  O   UNL     1       0.827  -1.385   0.586  0.00  0.00    -0.245 OA
BRANCH  29  32
ATOM     31  C   UNL     1      -0.423  -0.761   2.794  0.00  0.00    +0.280 C 
ATOM     32  O   UNL     1      -0.553  -2.050   2.192  0.00  0.00    -0.464 OA
ENDBRANCH  29  32
ENDBRANCH  23  29
ENDBRANCH   1  27
TORSDOF 4
