REMARK  Name = ZINC09662710
REMARK  7 active torsions:
REMARK  status: ('A' for Active; 'I' for Inactive)
REMARK    1  A    between atoms: C_1  and  C_2
REMARK    2  A    between atoms: N_5  and  S_8
REMARK    3  A    between atoms: S_8  and  C_11
REMARK    4  A    between atoms: C_13  and  C_18
REMARK    5  A    between atoms: N_20  and  C_21
REMARK    6  A    between atoms: C_24  and  N_27
REMARK    7  A    between atoms: C_28  and  C_30
REMARK                            x       y       z     vdW  Elec       q    Type
REMARK                         _______ _______ _______ _____ _____    ______ ____
ROOT
ATOM      1  C   UNL     1       0.981  12.000   0.285  0.00  0.00    +0.107 A 
ATOM      2  C   UNL     1       1.020  10.620   0.280  0.00  0.00    +0.041 A 
ATOM      3  C   UNL     1      -0.165   9.891   0.380  0.00  0.00    +0.040 A 
ATOM      4  C   UNL     1      -1.384  10.563   0.495  0.00  0.00    +0.028 A 
ATOM      5  C   UNL     1      -1.409  11.943   0.504  0.00  0.00    +0.020 A 
ATOM      6  C   UNL     1      -0.229  12.660   0.399  0.00  0.00    +0.043 A 
ATOM      7 BR   UNL     1      -3.057  12.856   0.660  0.00  0.00    -0.050 Br
ENDROOT
BRANCH   3   8
ATOM      8  C   UNL     1      -0.131   8.413   0.370  0.00  0.00    +0.248 C 
ATOM      9  O   UNL     1       0.931   7.831   0.270  0.00  0.00    -0.270 OA
ATOM     10  N   UNL     1      -1.277   7.712   0.472  0.00  0.00    -0.282 N 
ATOM     11  H   UNL     1      -2.117   8.174   0.620  0.00  0.00    +0.155 HD
BRANCH  10  12
ATOM     12  C   UNL     1      -1.255   6.316   0.365  0.00  0.00    +0.034 A 
ATOM     13  C   UNL     1      -2.312   5.650  -0.242  0.00  0.00    +0.025 A 
ATOM     14  C   UNL     1      -2.291   4.274  -0.348  0.00  0.00    +0.025 A 
ATOM     15  C   UNL     1      -1.213   3.555   0.153  0.00  0.00    +0.033 A 
ATOM     16  C   UNL     1      -0.159   4.221   0.765  0.00  0.00    +0.025 A 
ATOM     17  C   UNL     1      -0.177   5.597   0.866  0.00  0.00    +0.025 A 
BRANCH  15  18
ATOM     18  N   UNL     1      -1.192   2.159   0.046  0.00  0.00    -0.286 N 
ATOM     19  C   UNL     1      -0.015   1.502   0.027  0.00  0.00    +0.214 C 
ATOM     20  O   UNL     1       1.026   2.124  -0.007  0.00  0.00    -0.276 OA
ATOM     21  C   UNL     1       0.007  -0.005   0.041  0.00  0.00    +0.109 C 
ATOM     22  H   UNL     1      -2.024   1.664  -0.014  0.00  0.00    +0.155 HD
ENDBRANCH  15  18
ENDBRANCH  10  12
ENDBRANCH   3   8
BRANCH   1  23
ATOM     23  S   UNL     1       2.477  12.922   0.152  0.00  0.00    +0.061 S 
ATOM     24  O   UNL     1       3.420  12.076  -0.492  0.00  0.00    -0.153 OA
ATOM     25  O   UNL     1       2.122  14.198  -0.362  0.00  0.00    -0.153 OA
BRANCH  23  30
ATOM     26  C   UNL     1       6.004  14.826   4.253  0.00  0.00    +0.007 C 
ATOM     27  C   UNL     1       4.763  14.099   3.730  0.00  0.00    -0.012 C 
ATOM     28  C   UNL     1       5.192  12.951   2.814  0.00  0.00    +0.020 C 
ATOM     29  C   UNL     1       3.949  12.205   2.320  0.00  0.00    +0.110 C 
ATOM     30  N   UNL     1       3.037  13.170   1.691  0.00  0.00    -0.177 NA
ATOM     31  C   UNL     1       2.637  14.362   2.450  0.00  0.00    +0.110 C 
ATOM     32  C   UNL     1       3.890  15.082   2.944  0.00  0.00    +0.020 C 
ENDBRANCH  23  30
ENDBRANCH   1  23
TORSDOF 5
