REMARK  Name = ZINC13479774
REMARK  7 active torsions:
REMARK  status: ('A' for Active; 'I' for Inactive)
REMARK    1  A    between atoms: C_1  and  C_2
REMARK    2  A    between atoms: C_2  and  C_3
REMARK    3  A    between atoms: C_11  and  C_23
REMARK    4  A    between atoms: C_13  and  C_19
REMARK    5  A    between atoms: C_13  and  C_21
REMARK    6  A    between atoms: C_14  and  N_18
REMARK    7  A    between atoms: C_15  and  C_16
REMARK                            x       y       z     vdW  Elec       q    Type
REMARK                         _______ _______ _______ _____ _____    ______ ____
ROOT
ATOM      1  C   UNL     1       1.391   2.095   0.000  0.00  0.00    -0.007 C 
ATOM      2  C   UNL     1       2.139   1.581   1.238  0.00  0.00    +0.031 C 
ATOM      3  C   UNL     1       2.214   0.080   1.139  0.00  0.00    -0.021 C 
ATOM      4  C   UNL     1       1.255  -0.613   0.558  0.00  0.00    -0.029 C 
ATOM      5  C   UNL     1       0.002  -0.004   0.002  0.00  0.00    +0.031 C 
ATOM      6  C   UNL     1      -0.018   1.506   0.010  0.00  0.00    +0.012 C 
ATOM      7  C   UNL     1      -0.227  -0.571  -1.401  0.00  0.00    +0.073 C 
ATOM      8  C   UNL     1      -0.450  -2.080  -1.295  0.00  0.00    +0.189 C 
ATOM      9  C   UNL     1       0.626  -2.743  -0.489  0.00  0.00    +0.054 C 
ATOM     10  C   UNL     1       1.423  -2.080   0.386  0.00  0.00    +0.074 C 
ENDROOT
BRANCH   7  11
ATOM     11  C   UNL     1       0.982  -0.298  -2.258  0.00  0.00    -0.004 A 
ATOM     12  C   UNL     1       1.068   0.410  -3.411  0.00  0.00    +0.011 A 
ATOM     13  C   UNL     1       2.297   0.530  -4.033  0.00  0.00    +0.008 A 
ATOM     14  C   UNL     1       3.378  -0.063  -3.472  0.00  0.00    +0.045 A 
ATOM     15  S   UNL     1       2.673  -0.817  -2.016  0.00  0.00    -0.101 S 
ENDBRANCH   7  11
BRANCH   9  16
ATOM     16  N   UNL     1       0.815  -4.087  -0.646  0.00  0.00    -0.358 N 
ATOM     17  H   UNL     1       1.596  -4.604  -0.069  0.00  0.00    +0.142 HD
ATOM     18  H   UNL     1       0.185  -4.653  -1.348  0.00  0.00    +0.142 HD
ENDBRANCH   9  16
BRANCH   1  20
ATOM     19  C   UNL     1       2.718   4.210  -0.093  0.00  0.00    +0.004 C 
ATOM     20  C   UNL     1       1.312   3.623   0.043  0.00  0.00    +0.000 C 
ENDBRANCH   1  20
BRANCH  10  21
ATOM     21  C   UNL     1       2.416  -2.788   1.138  0.00  0.00    +0.101 C 
ATOM     22  N   UNL     1       3.203  -3.348   1.734  0.00  0.00    -0.191 NA
ENDBRANCH  10  21
BRANCH   8  23
ATOM     23  C   UNL     1      -1.752  -2.329  -0.655  0.00  0.00    +0.091 C 
ATOM     24  N   UNL     1      -2.757  -2.521  -0.161  0.00  0.00    -0.194 NA
ENDBRANCH   8  23
BRANCH   8  25
ATOM     25  C   UNL     1      -0.462  -2.659  -2.648  0.00  0.00    +0.091 C 
ATOM     26  N   UNL     1      -0.470  -3.107  -3.692  0.00  0.00    -0.194 NA
ENDBRANCH   8  25
TORSDOF 6
