REMARK  Name = ZINC39695994
REMARK  11 active torsions:
REMARK  status: ('A' for Active; 'I' for Inactive)
REMARK    1  A    between atoms: C_1  and  C_2
REMARK    2  A    between atoms: C_2  and  C_3
REMARK    3  A    between atoms: C_6  and  C_9
REMARK    4  A    between atoms: C_9  and  C_11
REMARK    5  A    between atoms: C_9  and  N_12
REMARK    6  A    between atoms: C_13  and  C_15
REMARK    7  A    between atoms: C_26  and  C_28
REMARK    8  A    between atoms: C_31  and  O_36
REMARK    9  A    between atoms: C_33  and  O_34
REMARK   10  A    between atoms: O_34  and  C_35
REMARK   11  A    between atoms: O_36  and  C_37
REMARK                            x       y       z     vdW  Elec       q    Type
REMARK                         _______ _______ _______ _____ _____    ______ ____
ROOT
ATOM      1  C   UNL     1      -6.691  -4.975  -2.000  0.00  0.00    +0.100 C 
ATOM      2  C   UNL     1      -7.220  -4.313  -3.292  0.00  0.00    +0.121 C 
ATOM      3  N   UNL     1      -8.149  -5.312  -3.871  0.00  0.00    -0.296 N 
ATOM      4  C   UNL     1      -8.856  -5.881  -2.699  0.00  0.00    +0.115 C 
ATOM      5  C   UNL     1      -7.768  -6.003  -1.613  0.00  0.00    -0.004 C 
ATOM      6  C   UNL     1      -8.351  -5.668  -0.244  0.00  0.00    -0.010 C 
ATOM      7  C   UNL     1      -9.377  -6.736   0.145  0.00  0.00    -0.082 C 
ATOM      8  N   UNL     1      -8.729  -8.052   0.175  0.00  0.00    +0.379 N 
ATOM      9  C   UNL     1      -8.253  -8.408  -1.167  0.00  0.00    -0.082 C 
ATOM     10  C   UNL     1      -7.179  -7.410  -1.611  0.00  0.00    -0.010 C 
ATOM     11  C   UNL     1      -8.313  -5.632  -5.170  0.00  0.00    +0.250 C 
ATOM     12  O   UNL     1      -7.585  -5.144  -6.013  0.00  0.00    -0.270 OA
ATOM     13  H   UNL     1      -7.946  -8.026   0.812  0.00  0.00    -0.086 HD
ATOM     14  H   UNL     1      -9.392  -8.745   0.490  0.00  0.00    -0.086 HD
ENDROOT
BRANCH  11  15
ATOM     15  C   UNL     1      -9.375  -6.571  -5.569  0.00  0.00    +0.079 A 
ATOM     16  C   UNL     1     -10.595  -6.583  -4.886  0.00  0.00    +0.020 A 
ATOM     17  C   UNL     1     -11.585  -7.462  -5.261  0.00  0.00    +0.046 A 
ATOM     18  C   UNL     1     -11.376  -8.341  -6.319  0.00  0.00    +0.124 A 
ATOM     19  C   UNL     1     -10.170  -8.339  -7.004  0.00  0.00    +0.092 A 
ATOM     20  C   UNL     1      -9.168  -7.455  -6.639  0.00  0.00    +0.136 A 
BRANCH  20  21
ATOM     21  O   UNL     1      -7.990  -7.447  -7.311  0.00  0.00    -0.494 OA
ATOM     22  C   UNL     1      -7.851  -8.374  -8.389  0.00  0.00    +0.277 C 
ENDBRANCH  20  21
BRANCH  18  23
ATOM     23  O   UNL     1     -12.357  -9.206  -6.683  0.00  0.00    -0.495 OA
ATOM     24  C   UNL     1     -13.575  -9.156  -5.937  0.00  0.00    +0.277 C 
ENDBRANCH  18  23
ENDBRANCH  11  15
BRANCH   1  26
ATOM     25  N   UNL     1      -5.720  -4.192   0.136  0.00  0.00    -0.308 N 
ATOM     26  C   UNL     1      -6.533  -3.946  -0.910  0.00  0.00    +0.219 C 
ATOM     27  O   UNL     1      -7.137  -2.897  -0.975  0.00  0.00    -0.275 OA
ATOM     28  H   UNL     1      -5.237  -5.032   0.188  0.00  0.00    +0.149 HD
BRANCH  25  29
ATOM     29  C   UNL     1      -5.566  -3.192   1.195  0.00  0.00    +0.100 C 
ATOM     30  C   UNL     1      -4.493  -2.180   0.789  0.00  0.00    +0.033 C 
BRANCH  29  34
ATOM     31  C   UNL     1      -4.399  -5.127   4.821  0.00  0.00    -0.048 A 
ATOM     32  C   UNL     1      -5.313  -4.091   4.854  0.00  0.00    +0.004 A 
ATOM     33  C   UNL     1      -5.691  -3.465   3.680  0.00  0.00    +0.006 A 
ATOM     34  C   UNL     1      -5.153  -3.874   2.474  0.00  0.00    -0.027 A 
ATOM     35  C   UNL     1      -4.238  -4.910   2.442  0.00  0.00    +0.006 A 
ATOM     36  C   UNL     1      -3.857  -5.533   3.615  0.00  0.00    +0.004 A 
BRANCH  31  38
ATOM     37  C   UNL     1      -2.774  -5.090   6.694  0.00  0.00    +0.009 C 
ATOM     38  C   UNL     1      -3.987  -5.809   6.099  0.00  0.00    +0.032 C 
ENDBRANCH  31  38
ENDBRANCH  29  34
ENDBRANCH  25  29
ENDBRANCH   1  26
TORSDOF 7
