REMARK  Name = ZINC39668752
REMARK  8 active torsions:
REMARK  status: ('A' for Active; 'I' for Inactive)
REMARK    1  A    between atoms: C_1  and  C_2
REMARK    2  A    between atoms: C_2  and  C_4
REMARK    3  A    between atoms: C_2  and  O_33
REMARK    4  A    between atoms: C_4  and  N_5
REMARK    5  A    between atoms: C_6  and  C_8
REMARK    6  A    between atoms: C_19  and  C_21
REMARK    7  A    between atoms: C_24  and  C_26
REMARK    8  A    between atoms: O_33  and  C_34
REMARK                            x       y       z     vdW  Elec       q    Type
REMARK                         _______ _______ _______ _____ _____    ______ ____
ROOT
ATOM      1  C   UNL     1       1.210  -4.090  -2.382  0.00  0.00    +0.100 C 
ATOM      2  C   UNL     1       1.829  -4.710  -1.109  0.00  0.00    +0.121 C 
ATOM      3  N   UNL     1       2.546  -5.914  -1.591  0.00  0.00    -0.294 N 
ATOM      4  C   UNL     1       3.156  -5.491  -2.874  0.00  0.00    +0.115 C 
ATOM      5  C   UNL     1       2.084  -4.604  -3.538  0.00  0.00    -0.004 C 
ATOM      6  C   UNL     1       1.244  -5.428  -4.509  0.00  0.00    -0.010 C 
ATOM      7  C   UNL     1       2.123  -5.881  -5.679  0.00  0.00    -0.082 C 
ATOM      8  N   UNL     1       2.680  -4.705  -6.358  0.00  0.00    +0.379 N 
ATOM      9  C   UNL     1       3.560  -3.968  -5.443  0.00  0.00    -0.082 C 
ATOM     10  C   UNL     1       2.743  -3.435  -4.263  0.00  0.00    -0.010 C 
ATOM     11  C   UNL     1       2.626  -7.121  -0.997  0.00  0.00    +0.282 C 
ATOM     12  O   UNL     1       3.260  -8.018  -1.522  0.00  0.00    -0.267 OA
ATOM     13  H   UNL     1       3.209  -5.003  -7.164  0.00  0.00    -0.086 HD
ATOM     14  H   UNL     1       1.928  -4.103  -6.656  0.00  0.00    -0.086 HD
ENDROOT
BRANCH  11  15
ATOM     15  C   UNL     1       1.950  -7.354   0.282  0.00  0.00    +0.190 A 
ATOM     16  C   UNL     1       1.954  -8.532   0.996  0.00  0.00    +0.055 A 
ATOM     17  C   UNL     1       1.189  -8.310   2.146  0.00  0.00    +0.050 A 
ATOM     18  C   UNL     1       0.749  -7.018   2.092  0.00  0.00    +0.136 A 
ATOM     19  O   UNL     1       1.218  -6.451   0.968  0.00  0.00    -0.450 OA
BRANCH  18  20
ATOM     20  C   UNL     1      -0.096  -6.354   3.104  0.00  0.00    +0.017 A 
ATOM     21  C   UNL     1      -0.510  -7.053   4.239  0.00  0.00    +0.014 A 
ATOM     22  C   UNL     1      -1.300  -6.428   5.181  0.00  0.00    +0.039 A 
ATOM     23  C   UNL     1      -1.682  -5.107   5.003  0.00  0.00    +0.123 A 
ATOM     24  C   UNL     1      -1.274  -4.409   3.877  0.00  0.00    +0.039 A 
ATOM     25  C   UNL     1      -0.480  -5.022   2.931  0.00  0.00    +0.014 A 
ATOM     26  F   UNL     1      -2.455  -4.499   5.928  0.00  0.00    -0.205 F 
ENDBRANCH  18  20
ENDBRANCH  11  15
BRANCH   1  28
ATOM     27  N   UNL     1       0.319  -1.847  -2.926  0.00  0.00    -0.312 N 
ATOM     28  C   UNL     1       1.264  -2.585  -2.312  0.00  0.00    +0.218 C 
ATOM     29  O   UNL     1       2.159  -2.039  -1.702  0.00  0.00    -0.275 OA
ATOM     30  H   UNL     1      -0.397  -2.284  -3.414  0.00  0.00    +0.149 HD
BRANCH  27  31
ATOM     31  C   UNL     1       0.372  -0.385  -2.858  0.00  0.00    +0.148 C 
BRANCH  31  33
ATOM     32  C   UNL     1      -0.684   1.730  -3.668  0.00  0.00    +0.053 C 
ATOM     33  C   UNL     1      -0.808   0.205  -3.633  0.00  0.00    +0.187 C 
BRANCH  33  34
ATOM     34  O   UNL     1      -2.030  -0.159  -2.989  0.00  0.00    -0.486 OA
BRANCH  34  35
ATOM     35  C   UNL     1      -3.154  -0.160  -3.753  0.00  0.00    +0.139 A 
ATOM     36  C   UNL     1      -3.079   0.093  -5.119  0.00  0.00    +0.049 A 
ATOM     37  C   UNL     1      -4.251   0.082  -5.857  0.00  0.00    +0.023 A 
ATOM     38  C   UNL     1      -5.449  -0.179  -5.217  0.00  0.00    +0.111 A 
ATOM     39  N   UNL     1      -5.486  -0.415  -3.920  0.00  0.00    -0.260 NA
ATOM     40  C   UNL     1      -4.392  -0.419  -3.184  0.00  0.00    +0.156 A 
ENDBRANCH  34  35
ENDBRANCH  33  34
ENDBRANCH  31  33
ENDBRANCH  27  31
ENDBRANCH   1  28
TORSDOF 7
