REMARK  Name = ZINC08789614
REMARK  12 active torsions:
REMARK  status: ('A' for Active; 'I' for Inactive)
REMARK    1  A    between atoms: C_1  and  C_2
REMARK    2  A    between atoms: C_13  and  C_14
REMARK    3  A    between atoms: C_13  and  O_15
REMARK    4  A    between atoms: N_21  and  O_22
REMARK    5  A    between atoms: O_22  and  C_23
REMARK    6  A    between atoms: C_23  and  C_24
REMARK    7  A    between atoms: N_26  and  C_27
REMARK    8  A    between atoms: C_27  and  C_28
REMARK    9  A    between atoms: C_28  and  C_30
REMARK   10  A    between atoms: C_28  and  C_33
REMARK   11  A    between atoms: C_30  and  C_31
REMARK   12  A    between atoms: C_41  and  C_42
REMARK                            x       y       z     vdW  Elec       q    Type
REMARK                         _______ _______ _______ _____ _____    ______ ____
ROOT
ATOM      1  C   UNL     1       2.514  -0.804  13.486  0.00  0.00    +0.014 C 
ATOM      2  C   UNL     1       1.564  -1.937  13.091  0.00  0.00    -0.000 C 
ATOM      3  C   UNL     1       2.005  -2.540  11.771  0.00  0.00    +0.010 C 
ATOM      4  C   UNL     1       2.100  -1.390  10.755  0.00  0.00    +0.005 C 
ATOM      5  C   UNL     1       0.751  -0.656  10.609  0.00  0.00    +0.006 C 
ATOM      6  C   UNL     1       0.254  -0.163  11.978  0.00  0.00    -0.003 C 
ATOM      7  C   UNL     1       0.132  -1.375  12.882  0.00  0.00    +0.001 C 
ATOM      8  C   UNL     1      -0.303  -1.091  14.324  0.00  0.00    +0.007 C 
ATOM      9  C   UNL     1       0.224  -2.331  15.097  0.00  0.00    +0.035 C 
ATOM     10  C   UNL     1       1.396  -2.902  14.260  0.00  0.00    +0.069 C 
ATOM     11  C   UNL     1       1.050  -4.301  13.747  0.00  0.00    +0.042 C 
ATOM     12  C   UNL     1      -1.117   0.492  11.799  0.00  0.00    +0.008 C 
ATOM     13  C   UNL     1      -0.981   1.739  10.919  0.00  0.00    +0.032 C 
ATOM     14  C   UNL     1      -0.320   1.329   9.617  0.00  0.00    -0.058 C 
ATOM     15  C   UNL     1      -0.875   1.696   8.473  0.00  0.00    +0.031 C 
ATOM     16  C   UNL     1      -0.284   1.281   7.186  0.00  0.00    +0.102 C 
ATOM     17  N   UNL     1      -0.821   1.648   6.054  0.00  0.00    -0.085 NA
ATOM     18  C   UNL     1       0.934   0.444   7.210  0.00  0.00    +0.027 C 
ATOM     19  C   UNL     1       1.484   0.120   8.364  0.00  0.00    -0.014 C 
ATOM     20  C   UNL     1       0.961   0.552   9.691  0.00  0.00    +0.011 C 
ATOM     21  C   UNL     1       2.015   1.451  10.339  0.00  0.00    +0.020 C 
ENDROOT
BRANCH  10  22
ATOM     22  O   UNL     1       2.590  -2.944  15.044  0.00  0.00    -0.388 OA
ATOM     23  H   UNL     1       2.542  -3.542  15.802  0.00  0.00    +0.210 HD
ENDBRANCH  10  22
BRANCH  17  24
ATOM     24  O   UNL     1      -0.236   1.245   4.829  0.00  0.00    -0.384 OA
BRANCH  24  25
ATOM     25  C   UNL     1      -0.927   1.718   3.671  0.00  0.00    +0.358 C 
BRANCH  25  26
ATOM     26  C   UNL     1      -0.222   1.232   2.431  0.00  0.00    +0.253 C 
ATOM     27  O   UNL     1       0.774   0.548   2.529  0.00  0.00    -0.272 OA
ATOM     28  N   UNL     1      -0.698   1.558   1.213  0.00  0.00    -0.312 N 
ATOM     29  H   UNL     1      -1.495   2.106   1.135  0.00  0.00    +0.149 HD
BRANCH  28  30
ATOM     30  C   UNL     1      -0.013   1.086   0.008  0.00  0.00    +0.113 C 
BRANCH  30  31
ATOM     31  C   UNL     1      -0.753   1.593  -1.232  0.00  0.00    +0.047 C 
BRANCH  31  32
ATOM     32  C   UNL     1      -0.121   1.007  -2.468  0.00  0.00    -0.042 A 
ATOM     33  C   UNL     1       1.208   1.260  -2.752  0.00  0.00    +0.004 A 
ATOM     34  C   UNL     1       1.789   0.720  -3.884  0.00  0.00    +0.000 A 
ATOM     35  C   UNL     1       1.038  -0.067  -4.737  0.00  0.00    +0.000 A 
ATOM     36  C   UNL     1      -0.293  -0.316  -4.456  0.00  0.00    +0.000 A 
ATOM     37  C   UNL     1      -0.872   0.221  -3.322  0.00  0.00    +0.004 A 
ENDBRANCH  31  32
BRANCH  31  38
ATOM     38  C   UNL     1      -0.666   3.119  -1.289  0.00  0.00    +0.134 C 
BRANCH  38  39
ATOM     39  C   UNL     1      -1.497   3.627  -2.439  0.00  0.00    +0.357 C 
ATOM     40  O   UNL     1      -2.096   2.848  -3.141  0.00  0.00    -0.246 OA
ATOM     41  O   UNL     1      -1.570   4.944  -2.684  0.00  0.00    -0.246 OA
ENDBRANCH  38  39
ENDBRANCH  31  38
ENDBRANCH  30  31
ENDBRANCH  28  30
ENDBRANCH  25  26
ENDBRANCH  24  25
ENDBRANCH  17  24
TORSDOF 9
