REMARK  Name = ZINC10353145
REMARK  7 active torsions:
REMARK  status: ('A' for Active; 'I' for Inactive)
REMARK    1  A    between atoms: C_1  and  C_2
REMARK    2  A    between atoms: C_8  and  C_10
REMARK    3  A    between atoms: C_11  and  C_35
REMARK    4  A    between atoms: N_12  and  C_29
REMARK    5  A    between atoms: C_16  and  C_18
REMARK    6  A    between atoms: C_21  and  O_24
REMARK    7  A    between atoms: O_24  and  C_25
REMARK                            x       y       z     vdW  Elec       q    Type
REMARK                         _______ _______ _______ _____ _____    ______ ____
ROOT
ATOM      1  C   UNL     1       6.136  -0.674  -0.144  0.00  0.00    +0.056 C 
ATOM      2  C   UNL     1       5.014   0.075  -0.079  0.00  0.00    +0.025 C 
ATOM      3  N   UNL     1       3.791  -0.503   0.121  0.00  0.00    -0.255 N 
ATOM      4  C   UNL     1       3.607  -1.822   0.256  0.00  0.00    +0.142 C 
ATOM      5  S   UNL     1       2.019  -2.416   0.496  0.00  0.00    -0.018 S 
ATOM      6  N   UNL     1       4.630  -2.698   0.210  0.00  0.00    -0.315 N 
ATOM      7  C   UNL     1       5.991  -2.175   0.003  0.00  0.00    +0.139 C 
ATOM      8  C   UNL     1       5.112   1.572  -0.225  0.00  0.00    +0.062 C 
ATOM      9  H   UNL     1       4.474  -3.650   0.310  0.00  0.00    +0.149 HD
ENDROOT
BRANCH   1  17
ATOM     10  C   UNL     1      12.496   1.804  -1.018  0.00  0.00    +0.089 C 
ATOM     11  C   UNL     1      11.125   1.468  -1.545  0.00  0.00    +0.136 A 
ATOM     12  C   UNL     1      10.093   0.950  -0.840  0.00  0.00    +0.091 A 
ATOM     13  C   UNL     1       9.051   0.829  -1.797  0.00  0.00    +0.168 A 
ATOM     14  N   UNL     1       9.542   1.261  -2.929  0.00  0.00    -0.063 NA
ATOM     15  O   UNL     1      10.689   1.624  -2.803  0.00  0.00    -0.358 OA
ATOM     16  N   UNL     1       7.764   0.342  -1.575  0.00  0.00    -0.264 N 
ATOM     17  C   UNL     1       7.404  -0.076  -0.346  0.00  0.00    +0.249 C 
ATOM     18  O   UNL     1       8.169   0.060   0.592  0.00  0.00    -0.270 OA
ATOM     19  H   UNL     1       7.127   0.303  -2.306  0.00  0.00    +0.157 HD
ENDBRANCH   1  17
BRANCH   7  20
ATOM     20  C   UNL     1       6.552  -2.818  -1.240  0.00  0.00    -0.022 A 
ATOM     21  C   UNL     1       5.769  -2.926  -2.374  0.00  0.00    +0.009 A 
ATOM     22  C   UNL     1       6.283  -3.510  -3.516  0.00  0.00    +0.046 A 
ATOM     23  C   UNL     1       7.581  -3.999  -3.520  0.00  0.00    +0.130 A 
ATOM     24  C   UNL     1       8.363  -3.894  -2.379  0.00  0.00    +0.046 A 
ATOM     25  C   UNL     1       7.847  -3.304  -1.241  0.00  0.00    +0.009 A 
BRANCH  23  26
ATOM     26  O   UNL     1       8.086  -4.579  -4.640  0.00  0.00    -0.406 OA
BRANCH  26  27
ATOM     27  C   UNL     1       7.225  -4.653  -5.778  0.00  0.00    +0.575 C 
ATOM     28  F   UNL     1       6.848  -3.361  -6.161  0.00  0.00    -0.133 F 
ATOM     29  F   UNL     1       7.899  -5.275  -6.834  0.00  0.00    -0.133 F 
ATOM     30  F   UNL     1       6.084  -5.394  -5.452  0.00  0.00    -0.133 F 
ENDBRANCH  26  27
ENDBRANCH  23  26
ENDBRANCH   7  20
BRANCH   3  31
ATOM     31  C   UNL     1       2.668   0.332   0.183  0.00  0.00    +0.040 A 
ATOM     32  C   UNL     1       2.304   0.920   1.387  0.00  0.00    +0.024 A 
ATOM     33  C   UNL     1       1.196   1.743   1.445  0.00  0.00    +0.002 A 
ATOM     34  C   UNL     1       0.450   1.980   0.305  0.00  0.00    +0.000 A 
ATOM     35  C   UNL     1       0.809   1.396  -0.895  0.00  0.00    +0.002 A 
ATOM     36  C   UNL     1       1.916   0.572  -0.960  0.00  0.00    +0.024 A 
ENDBRANCH   3  31
TORSDOF 5
