REMARK  Name = ZINC12711332
REMARK  9 active torsions:
REMARK  status: ('A' for Active; 'I' for Inactive)
REMARK    1  A    between atoms: C_3  and  N_8
REMARK    2  A    between atoms: N_8  and  C_9
REMARK    3  A    between atoms: C_9  and  C_11
REMARK    4  A    between atoms: C_9  and  C_16
REMARK    5  A    between atoms: N_18  and  C_19
REMARK    6  A    between atoms: C_19  and  C_20
REMARK    7  A    between atoms: C_26  and  C_28
REMARK    8  A    between atoms: C_29  and  N_36
REMARK    9  A    between atoms: C_30  and  C_33
REMARK                            x       y       z     vdW  Elec       q    Type
REMARK                         _______ _______ _______ _____ _____    ______ ____
ROOT
ATOM      1  N   UNL     1       3.976   2.459   0.847  0.00  0.00    -0.250 N 
ATOM      2  C   UNL     1       4.275   3.715   0.457  0.00  0.00    +0.262 C 
ATOM      3  O   UNL     1       5.292   3.929  -0.177  0.00  0.00    -0.269 OA
ENDROOT
BRANCH   1   6
ATOM      4  C   UNL     1       1.519   1.868   3.517  0.00  0.00    +0.005 A 
ATOM      5  C   UNL     1       2.717   2.126   2.880  0.00  0.00    +0.024 A 
ATOM      6  C   UNL     1       2.764   2.198   1.494  0.00  0.00    +0.040 A 
ATOM      7  C   UNL     1       1.606   2.011   0.751  0.00  0.00    +0.062 A 
ATOM      8  C   UNL     1       0.409   1.753   1.394  0.00  0.00    +0.125 A 
ATOM      9  C   UNL     1       0.366   1.682   2.777  0.00  0.00    +0.038 A 
ATOM     10  F   UNL     1      -0.719   1.571   0.674  0.00  0.00    -0.205 F 
ENDBRANCH   1   6
BRANCH   2  11
ATOM     11  C   UNL     1       3.377   4.820   0.797  0.00  0.00    +0.116 A 
ATOM     12  C   UNL     1       3.555   6.192   0.613  0.00  0.00    +0.076 A 
ATOM     13  C   UNL     1       2.480   6.956   1.062  0.00  0.00    +0.155 A 
ATOM     14  N   UNL     1       1.436   6.356   1.595  0.00  0.00    -0.203 NA
ATOM     15  S   UNL     1       1.763   4.772   1.549  0.00  0.00    +0.019 S 
BRANCH  13  16
ATOM     16  C   UNL     1       2.510   8.425   0.941  0.00  0.00    +0.262 C 
ATOM     17  O   UNL     1       3.431   8.968   0.362  0.00  0.00    -0.269 OA
ATOM     18  N   UNL     1       1.517   9.165   1.471  0.00  0.00    -0.324 N 
ATOM     19  H   UNL     1       0.782   8.732   1.932  0.00  0.00    +0.145 HD
ATOM     20  H   UNL     1       1.537  10.132   1.391  0.00  0.00    +0.145 HD
ENDBRANCH  13  16
BRANCH  12  21
ATOM     21  N   UNL     1       4.694   6.742   0.040  0.00  0.00    -0.355 N 
ATOM     22  H   UNL     1       5.362   6.165  -0.362  0.00  0.00    +0.142 HD
ATOM     23  H   UNL     1       4.820   7.704   0.040  0.00  0.00    +0.142 HD
ENDBRANCH  12  21
ENDBRANCH   2  11
BRANCH   1  24
ATOM     24  C   UNL     1       4.921   1.369   0.592  0.00  0.00    +0.204 C 
BRANCH  24  25
ATOM     25  C   UNL     1       5.233   0.663   1.886  0.00  0.00    +0.019 A 
ATOM     26  C   UNL     1       6.431   0.489   2.497  0.00  0.00    +0.013 A 
ATOM     27  C   UNL     1       6.479  -0.200   3.694  0.00  0.00    +0.008 A 
ATOM     28  C   UNL     1       5.328  -0.682   4.223  0.00  0.00    +0.045 A 
ATOM     29  S   UNL     1       4.120  -0.155   3.018  0.00  0.00    -0.099 S 
ENDBRANCH  24  25
BRANCH  24  30
ATOM     30  C   UNL     1       4.310   0.392  -0.379  0.00  0.00    +0.239 C 
ATOM     31  O   UNL     1       3.245   0.642  -0.903  0.00  0.00    -0.273 OA
ATOM     32  N   UNL     1       4.947  -0.761  -0.665  0.00  0.00    -0.311 N 
ATOM     33  H   UNL     1       5.798  -0.962  -0.245  0.00  0.00    +0.149 HD
BRANCH  32  34
ATOM     34  C   UNL     1       4.353  -1.711  -1.609  0.00  0.00    +0.135 C 
BRANCH  34  35
ATOM     35  C   UNL     1       5.271  -2.927  -1.754  0.00  0.00    +0.135 C 
ATOM     36  C   UNL     1       4.715  -3.877  -2.836  0.00  0.00    +0.035 C 
ATOM     37  C   UNL     1       4.992  -5.276  -2.221  0.00  0.00    +0.031 C 
ATOM     38  C   UNL     1       4.794  -4.979  -0.713  0.00  0.00    +0.160 C 
ATOM     39  O   UNL     1       5.316  -3.652  -0.520  0.00  0.00    -0.375 OA
ENDBRANCH  34  35
ENDBRANCH  32  34
ENDBRANCH  24  30
ENDBRANCH   1  24
TORSDOF 9
