REMARK  Name = ZINC61324571
REMARK  4 active torsions:
REMARK  status: ('A' for Active; 'I' for Inactive)
REMARK    1  A    between atoms: C_3  and  N_11
REMARK    2  A    between atoms: C_5  and  S_7
REMARK    3  A    between atoms: S_7  and  N_10
REMARK    4  A    between atoms: N_11  and  C_12
REMARK                            x       y       z     vdW  Elec       q    Type
REMARK                         _______ _______ _______ _____ _____    ______ ____
ROOT
ATOM      1  C   UNL     1      -0.017   1.378   0.010  0.00  0.00    +0.004 A 
ATOM      2  C   UNL     1       1.169   2.087   0.002  0.00  0.00    +0.023 A 
ATOM      3  C   UNL     1       2.381   1.409  -0.013  0.00  0.00    +0.029 A 
ATOM      4  C   UNL     1       2.396   0.020  -0.021  0.00  0.00    +0.051 A 
ATOM      5  C   UNL     1       1.207  -0.682  -0.013  0.00  0.00    +0.107 A 
ATOM      6  C   UNL     1       0.002  -0.004   0.002  0.00  0.00    +0.028 A 
ENDROOT
BRANCH   5   7
ATOM      7  S   UNL     1       1.225  -2.444  -0.023  0.00  0.00    +0.056 S 
ATOM      8  O   UNL     1      -0.021  -2.860  -0.565  0.00  0.00    -0.153 OA
ATOM      9  O   UNL     1       2.469  -2.834  -0.589  0.00  0.00    -0.153 OA
BRANCH   7  10
ATOM     10  N   UNL     1       1.246  -2.943   1.556  0.00  0.00    -0.204 NA
ATOM     11  H   UNL     1       1.246  -2.288   2.271  0.00  0.00    +0.144 HD
ATOM     12  H   UNL     1       1.258  -3.890   1.765  0.00  0.00    +0.144 HD
ENDBRANCH   7  10
ENDBRANCH   5   7
BRANCH   3  13
ATOM     13  N   UNL     1       3.582   2.122  -0.021  0.00  0.00    -0.337 N 
ATOM     14  H   UNL     1       4.428   1.647  -0.032  0.00  0.00    +0.147 HD
BRANCH  13  15
ATOM     15  C   UNL     1       3.564   3.587  -0.014  0.00  0.00    +0.101 C 
ATOM     16  C   UNL     1       4.872   4.112   0.579  0.00  0.00    +0.027 C 
ATOM     17  C   UNL     1       4.943   5.634   0.425  0.00  0.00    +0.007 C 
ATOM     18  C   UNL     1       5.142   5.970  -1.061  0.00  0.00    +0.043 C 
ATOM     19  C   UNL     1       4.160   5.174  -1.858  0.00  0.00    -0.005 A 
ATOM     20  C   UNL     1       3.425   4.104  -1.442  0.00  0.00    -0.017 A 
ATOM     21  C   UNL     1       2.568   3.531  -2.382  0.00  0.00    +0.013 A 
ATOM     22  C   UNL     1       2.496   4.040  -3.633  0.00  0.00    +0.046 A 
ATOM     23  S   UNL     1       3.673   5.389  -3.548  0.00  0.00    -0.101 S 
ENDBRANCH  13  15
ENDBRANCH   3  13
TORSDOF 4
