REMARK  Name = ZINC09309067
REMARK  10 active torsions:
REMARK  status: ('A' for Active; 'I' for Inactive)
REMARK    1  A    between atoms: C_1  and  C_2
REMARK    2  A    between atoms: C_2  and  O_3
REMARK    3  A    between atoms: O_3  and  C_4
REMARK    4  A    between atoms: C_7  and  C_10
REMARK    5  A    between atoms: C_12  and  C_22
REMARK    6  A    between atoms: N_14  and  C_16
REMARK    7  A    between atoms: C_23  and  C_24
REMARK    8  A    between atoms: C_25  and  C_38
REMARK    9  A    between atoms: C_25  and  C_39
REMARK   10  A    between atoms: C_35  and  O_37
REMARK                            x       y       z     vdW  Elec       q    Type
REMARK                         _______ _______ _______ _____ _____    ______ ____
ROOT
ATOM      1  C   UNL     1       1.144  -6.059   1.764  0.00  0.00    +0.134 C 
ATOM      2  C   UNL     1       0.133  -6.566   2.770  0.00  0.00    -0.009 C 
ATOM      3  C   UNL     1       0.834  -7.118   3.768  0.00  0.00    +0.099 C 
ATOM      4  N   UNL     1       2.185  -7.034   3.539  0.00  0.00    -0.242 N 
ATOM      5  N   UNL     1       2.452  -6.411   2.352  0.00  0.00    -0.224 NA
ATOM      6  H   UNL     1       2.975  -7.014   1.734  0.00  0.00    +0.146 HD
ENDROOT
BRANCH   1  10
ATOM      7  C   UNL     1       0.802  -1.824   1.306  0.00  0.00    +0.121 A 
ATOM      8  C   UNL     1       0.260  -2.673   0.351  0.00  0.00    +0.046 A 
ATOM      9  C   UNL     1       0.372  -4.041   0.502  0.00  0.00    +0.009 A 
ATOM     10  C   UNL     1       1.024  -4.566   1.603  0.00  0.00    -0.024 A 
ATOM     11  C   UNL     1       1.565  -3.722   2.555  0.00  0.00    +0.009 A 
ATOM     12  C   UNL     1       1.460  -2.353   2.406  0.00  0.00    +0.046 A 
BRANCH   7  13
ATOM     13  O   UNL     1       0.693  -0.477   1.160  0.00  0.00    -0.492 OA
BRANCH  13  15
ATOM     14  C   UNL     1      -0.019   1.526   0.010  0.00  0.00    +0.048 C 
ATOM     15  C   UNL     1       0.002  -0.004   0.002  0.00  0.00    +0.225 C 
ENDBRANCH  13  15
ENDBRANCH   7  13
ENDBRANCH   1  10
BRANCH   4  16
ATOM     16  C   UNL     1       3.163  -7.525   4.407  0.00  0.00    +0.049 A 
ATOM     17  C   UNL     1       4.509  -7.387   4.090  0.00  0.00    +0.025 A 
ATOM     18  C   UNL     1       5.473  -7.872   4.951  0.00  0.00    +0.002 A 
ATOM     19  C   UNL     1       5.101  -8.496   6.128  0.00  0.00    +0.000 A 
ATOM     20  C   UNL     1       3.762  -8.636   6.447  0.00  0.00    +0.002 A 
ATOM     21  C   UNL     1       2.793  -8.147   5.593  0.00  0.00    +0.025 A 
ENDBRANCH   4  16
BRANCH   2  22
ATOM     22  C   UNL     1      -1.328  -6.472   2.670  0.00  0.00    +0.006 C 
ATOM     23  C   UNL     1      -1.887  -5.891   1.610  0.00  0.00    +0.024 C 
BRANCH  23  24
ATOM     24  C   UNL     1      -3.387  -5.794   1.507  0.00  0.00    +0.159 C 
ATOM     25  C   UNL     1      -3.893  -6.588   0.295  0.00  0.00    +0.037 C 
ATOM     26  C   UNL     1      -4.593  -7.773   0.899  0.00  0.00    -0.016 A 
ATOM     27  C   UNL     1      -5.157  -8.869   0.273  0.00  0.00    +0.006 A 
ATOM     28  C   UNL     1      -5.734  -9.837   1.086  0.00  0.00    +0.000 A 
ATOM     29  C   UNL     1      -5.743  -9.708   2.460  0.00  0.00    +0.002 A 
ATOM     30  C   UNL     1      -5.186  -8.611   3.096  0.00  0.00    +0.023 A 
ATOM     31  C   UNL     1      -4.607  -7.625   2.290  0.00  0.00    +0.036 A 
ATOM     32  N   UNL     1      -4.027  -6.436   2.672  0.00  0.00    -0.301 N 
ATOM     33  C   UNL     1      -4.050  -5.772   3.986  0.00  0.00    +0.117 C 
ATOM     34  C   UNL     1      -4.755  -4.425   3.773  0.00  0.00    +0.114 C 
ATOM     35  C   UNL     1      -4.389  -3.821   2.454  0.00  0.00    +0.186 C 
ATOM     36  N   UNL     1      -3.805  -4.398   1.484  0.00  0.00    -0.224 NA
ATOM     37  C   UNL     1      -4.874  -5.746  -0.524  0.00  0.00    +0.020 C 
ATOM     38  C   UNL     1      -2.720  -7.044  -0.574  0.00  0.00    +0.020 C 
BRANCH  35  39
ATOM     39  O   UNL     1      -4.696  -2.518   2.284  0.00  0.00    -0.496 OA
ATOM     40  H   UNL     1      -4.444  -2.165   1.420  0.00  0.00    +0.293 HD
ENDBRANCH  35  39
ENDBRANCH  23  24
ENDBRANCH   2  22
TORSDOF 7
