REMARK  Name = ZINC08822617
REMARK  5 active torsions:
REMARK  status: ('A' for Active; 'I' for Inactive)
REMARK    1  A    between atoms: C_6  and  C_7
REMARK    2  A    between atoms: C_13  and  S_15
REMARK    3  A    between atoms: S_15  and  C_16
REMARK    4  A    between atoms: C_16  and  C_17
REMARK    5  A    between atoms: N_19  and  C_20
REMARK                            x       y       z     vdW  Elec       q    Type
REMARK                         _______ _______ _______ _____ _____    ______ ____
ROOT
ATOM      1  C   UNL     1      10.850  -7.046   0.627  0.00  0.00    +0.250 C 
ATOM      2  O   UNL     1      11.059  -5.851   0.551  0.00  0.00    -0.270 OA
ATOM      3  N   UNL     1       9.586  -7.512   0.619  0.00  0.00    -0.259 N 
ATOM      4  C   UNL     1       8.518  -6.624   0.523  0.00  0.00    +0.189 A 
ATOM      5  N   UNL     1       8.515  -5.304   0.432  0.00  0.00    -0.125 NA
ATOM      6  N   UNL     1       7.444  -4.642   0.352  0.00  0.00    -0.133 NA
ATOM      7  C   UNL     1       6.256  -5.229   0.354  0.00  0.00    +0.160 A 
ATOM      8  S   UNL     1       6.756  -6.942   0.497  0.00  0.00    -0.024 S 
ATOM      9  H   UNL     1       9.419  -8.466   0.679  0.00  0.00    +0.157 HD
ENDROOT
BRANCH   1  15
ATOM     10  C   UNL     1      11.748  -9.362   0.822  0.00  0.00    +0.014 A 
ATOM     11  C   UNL     1      12.810 -10.236   0.911  0.00  0.00    +0.016 A 
ATOM     12  C   UNL     1      14.108  -9.755   0.919  0.00  0.00    +0.018 A 
ATOM     13  C   UNL     1      14.349  -8.394   0.832  0.00  0.00    +0.016 A 
ATOM     14  C   UNL     1      13.295  -7.509   0.737  0.00  0.00    +0.014 A 
ATOM     15  C   UNL     1      11.984  -7.989   0.728  0.00  0.00    +0.037 A 
ATOM     16 BR   UNL     1      15.559 -10.961   1.048  0.00  0.00    -0.050 Br
ENDBRANCH   1  15
BRANCH   7  17
ATOM     17  S   UNL     1       4.645  -4.523   0.254  0.00  0.00    -0.088 S 
BRANCH  17  18
ATOM     18  C   UNL     1       4.953  -2.739   0.140  0.00  0.00    +0.172 C 
BRANCH  18  19
ATOM     19  C   UNL     1       3.639  -2.007   0.048  0.00  0.00    +0.227 C 
ATOM     20  O   UNL     1       2.597  -2.628   0.057  0.00  0.00    -0.275 OA
ATOM     21  N   UNL     1       3.621  -0.663  -0.046  0.00  0.00    -0.285 N 
ATOM     22  H   UNL     1       4.453  -0.172  -0.131  0.00  0.00    +0.155 HD
BRANCH  21  23
ATOM     23  C   UNL     1       2.401   0.025  -0.021  0.00  0.00    +0.037 A 
ATOM     24  C   UNL     1       1.346  -0.460   0.740  0.00  0.00    +0.027 A 
ATOM     25  C   UNL     1       0.142   0.217   0.764  0.00  0.00    +0.051 A 
ATOM     26  C   UNL     1      -0.016   1.384   0.030  0.00  0.00    +0.162 A 
ATOM     27  C   UNL     1       1.040   1.873  -0.730  0.00  0.00    +0.164 A 
ATOM     28  C   UNL     1       2.247   1.192  -0.756  0.00  0.00    +0.072 A 
ATOM     29  O   UNL     1       0.906   3.021  -1.451  0.00  0.00    -0.485 OA
ATOM     30  C   UNL     1      -0.429   3.473  -1.699  0.00  0.00    +0.270 C 
ATOM     31  C   UNL     1      -1.216   3.395  -0.384  0.00  0.00    +0.270 C 
ATOM     32  O   UNL     1      -1.213   2.033   0.059  0.00  0.00    -0.485 OA
ENDBRANCH  21  23
ENDBRANCH  18  19
ENDBRANCH  17  18
ENDBRANCH   7  17
TORSDOF 5
