REMARK  Name = ZINC12378763
REMARK  6 active torsions:
REMARK  status: ('A' for Active; 'I' for Inactive)
REMARK    1  A    between atoms: C_1  and  C_2
REMARK    2  A    between atoms: C_2  and  C_23
REMARK    3  A    between atoms: N_3  and  N_4
REMARK    4  A    between atoms: C_5  and  S_7
REMARK    5  A    between atoms: S_7  and  C_8
REMARK    6  A    between atoms: N_13  and  C_16
REMARK                            x       y       z     vdW  Elec       q    Type
REMARK                         _______ _______ _______ _____ _____    ______ ____
ROOT
ATOM      1  N   UNL     1      -0.323   0.892   2.604  0.00  0.00    -0.259 N 
ATOM      2  C   UNL     1      -0.244   0.024   3.592  0.00  0.00    +0.146 C 
ATOM      3  N   UNL     1      -0.304  -1.324   3.330  0.00  0.00    -0.338 N 
ATOM      4  H   UNL     1      -0.405  -1.636   2.417  0.00  0.00    +0.144 HD
ATOM      5  H   UNL     1      -0.247  -1.963   4.058  0.00  0.00    +0.144 HD
ATOM      6  H   UNL     1      -0.281   1.843   2.790  0.00  0.00    +0.191 HD
ENDROOT
BRANCH   1   9
ATOM      7  C   UNL     1      -0.480   2.780   0.593  0.00  0.00    +0.068 C 
ATOM      8  C   UNL     1      -0.545   1.302   0.305  0.00  0.00    +0.072 C 
ATOM      9  N   UNL     1      -0.468   0.441   1.286  0.00  0.00    -0.176 NA
BRANCH   8  10
ATOM     10  C   UNL     1      -0.697   0.831  -1.072  0.00  0.00    +0.036 A 
ATOM     11  C   UNL     1      -0.782  -0.469  -1.546  0.00  0.00    +0.018 A 
ATOM     12  C   UNL     1      -0.923  -0.661  -2.901  0.00  0.00    +0.023 A 
ATOM     13  C   UNL     1      -0.973   0.419  -3.725  0.00  0.00    +0.055 A 
ATOM     14  S   UNL     1      -0.826   1.780  -2.579  0.00  0.00    -0.080 S 
ATOM     15 BR   UNL     1      -1.158   0.469  -5.606  0.00  0.00    -0.043 Br
ENDBRANCH   8  10
ENDBRANCH   1   9
BRANCH   2  16
ATOM     16  S   UNL     1      -0.062   0.592   5.251  0.00  0.00    -0.078 S 
BRANCH  16  17
ATOM     17  C   UNL     1      -0.001  -0.933   6.232  0.00  0.00    +0.149 C 
ATOM     18  C   UNL     1       0.230  -0.610   7.722  0.00  0.00    +0.120 C 
ATOM     19  C   UNL     1      -1.009  -1.155   8.399  0.00  0.00    +0.228 C 
ATOM     20  O   UNL     1      -1.236  -1.109   9.589  0.00  0.00    -0.275 OA
ATOM     21  N   UNL     1      -1.813  -1.695   7.476  0.00  0.00    -0.209 N 
ATOM     22  C   UNL     1      -1.345  -1.628   6.220  0.00  0.00    +0.240 C 
ATOM     23  O   UNL     1      -1.907  -2.054   5.234  0.00  0.00    -0.274 OA
BRANCH  21  24
ATOM     24  C   UNL     1      -3.045  -2.286   7.795  0.00  0.00    +0.044 A 
ATOM     25  C   UNL     1      -3.220  -3.654   7.643  0.00  0.00    +0.025 A 
ATOM     26  C   UNL     1      -4.434  -4.233   7.958  0.00  0.00    +0.022 A 
ATOM     27  C   UNL     1      -5.475  -3.450   8.424  0.00  0.00    +0.041 A 
ATOM     28  C   UNL     1      -5.303  -2.086   8.575  0.00  0.00    +0.022 A 
ATOM     29  C   UNL     1      -4.089  -1.503   8.268  0.00  0.00    +0.025 A 
ATOM     30 CL   UNL     1      -7.000  -4.181   8.819  0.00  0.00    -0.084 Cl
ENDBRANCH  21  24
ENDBRANCH  16  17
ENDBRANCH   2  16
TORSDOF 5
