REMARK  Name = ZINC43460889
REMARK  1 active torsions:
REMARK  status: ('A' for Active; 'I' for Inactive)
REMARK    1  A    between atoms: C_8  and  C_10
REMARK                            x       y       z     vdW  Elec       q    Type
REMARK                         _______ _______ _______ _____ _____    ______ ____
ROOT
ATOM      1  C   UNL     1      -3.867   4.586   0.084  0.00  0.00    -0.002 C 
ATOM      2  C   UNL     1      -4.490   4.771   1.481  0.00  0.00    -0.006 C 
ATOM      3  C   UNL     1      -6.026   4.710   1.245  0.00  0.00    -0.026 C 
ATOM      4  C   UNL     1      -6.442   3.251   1.448  0.00  0.00    +0.002 C 
ATOM      5  C   UNL     1      -7.831   2.998   0.868  0.00  0.00    +0.000 C 
ATOM      6  C   UNL     1      -7.786   3.259  -0.641  0.00  0.00    -0.002 C 
ATOM      7  C   UNL     1      -7.455   4.735  -0.864  0.00  0.00    -0.015 C 
ATOM      8  C   UNL     1      -6.132   5.119  -0.235  0.00  0.00    -0.068 C 
ATOM      9  N   UNL     1      -4.985   4.443  -0.880  0.00  0.00    +0.388 N 
ATOM     10  H   UNL     1      -4.755   4.893  -1.753  0.00  0.00    -0.084 HD
ATOM     11  H   UNL     1      -5.194   3.468  -1.032  0.00  0.00    -0.084 HD
ENDROOT
BRANCH   1  19
ATOM     12  C   UNL     1      -0.017   1.381   0.010  0.00  0.00    +0.048 A 
ATOM     13  C   UNL     1       0.002  -0.004   0.002  0.00  0.00    +0.038 A 
ATOM     14  C   UNL     1      -1.196  -0.702   0.010  0.00  0.00    +0.128 A 
ATOM     15  N   UNL     1      -2.353  -0.077   0.024  0.00  0.00    -0.233 NA
ATOM     16  C   UNL     1      -2.427   1.252   0.031  0.00  0.00    +0.180 A 
ATOM     17  C   UNL     1      -1.250   2.020   0.031  0.00  0.00    +0.111 A 
ATOM     18  N   UNL     1      -1.651   3.340   0.044  0.00  0.00    -0.231 NA
ATOM     19  C   UNL     1      -3.010   3.347   0.064  0.00  0.00    +0.118 A 
ATOM     20  N   UNL     1      -3.464   2.126   0.046  0.00  0.00    -0.213 NA
ATOM     21 BR   UNL     1       1.648  -0.935  -0.019  0.00  0.00    -0.049 Br
ENDBRANCH   1  19
TORSDOF 1
