REMARK  Name = ZINC13768980
REMARK  9 active torsions:
REMARK  status: ('A' for Active; 'I' for Inactive)
REMARK    1  A    between atoms: C_1  and  O_2
REMARK    2  A    between atoms: O_2  and  C_3
REMARK    3  A    between atoms: C_6  and  C_11
REMARK    4  A    between atoms: C_7  and  O_9
REMARK    5  A    between atoms: O_9  and  C_10
REMARK    6  A    between atoms: C_19  and  O_34
REMARK    7  A    between atoms: C_22  and  C_23
REMARK    8  A    between atoms: C_22  and  N_63
REMARK    9  A    between atoms: N_25  and  C_26
REMARK                            x       y       z     vdW  Elec       q    Type
REMARK                         _______ _______ _______ _____ _____    ______ ____
ROOT
ATOM      1  C   UNL     1       0.270   1.251   0.000  0.00  0.00    -0.028 C 
ATOM      2  C   UNL     1      -0.268   1.571  -1.395  0.00  0.00    +0.011 C 
ATOM      3  C   UNL     1       0.771   1.201  -2.454  0.00  0.00    +0.005 C 
ATOM      4  C   UNL     1       0.212   1.520  -3.843  0.00  0.00    +0.000 C 
ATOM      5  C   UNL     1      -0.110   3.012  -3.938  0.00  0.00    +0.003 C 
ATOM      6  C   UNL     1      -1.141   3.385  -2.870  0.00  0.00    +0.035 C 
ATOM      7  C   UNL     1      -0.571   3.069  -1.487  0.00  0.00    +0.066 C 
ATOM      8  C   UNL     1      -1.587   3.441  -0.405  0.00  0.00    +0.016 C 
ATOM      9  C   UNL     1      -1.018   3.066   0.966  0.00  0.00    -0.075 C 
ATOM     10  N   UNL     1      -0.758   1.610   1.001  0.00  0.00    +0.390 N 
ATOM     11  H   UNL     1      -1.628   1.112   0.778  0.00  0.00    -0.080 HD
ENDROOT
BRANCH   1  15
ATOM     12  C   UNL     1       3.871   3.457   0.679  0.00  0.00    +0.124 A 
ATOM     13  C   UNL     1       2.660   4.122   0.546  0.00  0.00    +0.046 A 
ATOM     14  C   UNL     1       1.499   3.407   0.322  0.00  0.00    +0.009 A 
ATOM     15  C   UNL     1       1.539   2.028   0.240  0.00  0.00    -0.019 A 
ATOM     16  C   UNL     1       2.747   1.359   0.372  0.00  0.00    +0.125 A 
ATOM     17  C   UNL     1       3.914   2.074   0.592  0.00  0.00    +0.091 A 
BRANCH  12  19
ATOM     18  C   UNL     1       4.894   5.583   0.974  0.00  0.00    +0.277 C 
ATOM     19  O   UNL     1       5.013   4.161   0.895  0.00  0.00    -0.495 OA
ENDBRANCH  12  19
BRANCH  16  20
ATOM     20  O   UNL     1       2.787   0.003   0.286  0.00  0.00    -0.495 OA
ATOM     21  C   UNL     1       4.065  -0.619   0.431  0.00  0.00    +0.277 C 
ENDBRANCH  16  20
ENDBRANCH   1  15
BRANCH   7  22
ATOM     22  O   UNL     1       0.634   3.812  -1.286  0.00  0.00    -0.388 OA
ATOM     23  H   UNL     1       0.509   4.771  -1.285  0.00  0.00    +0.210 HD
ENDBRANCH   7  22
BRANCH  10  24
ATOM     24  C   UNL     1      -0.310   1.211   2.351  0.00  0.00    +0.020 C 
BRANCH  24  25
ATOM     25  C   UNL     1      -0.290  -0.294   2.428  0.00  0.00    +0.201 C 
ATOM     26  O   UNL     1      -0.709  -0.955   1.501  0.00  0.00    -0.278 OA
ATOM     27  N   UNL     1       0.194  -0.906   3.527  0.00  0.00    -0.286 N 
ATOM     28  H   UNL     1       0.468  -0.380   4.295  0.00  0.00    +0.155 HD
BRANCH  27  29
ATOM     29  C   UNL     1       0.301  -2.302   3.561  0.00  0.00    +0.052 A 
ATOM     30  C   UNL     1      -0.539  -3.083   2.780  0.00  0.00    +0.026 A 
ATOM     31  C   UNL     1      -0.431  -4.460   2.816  0.00  0.00    +0.022 A 
ATOM     32  C   UNL     1       0.514  -5.061   3.629  0.00  0.00    +0.042 A 
ATOM     33  C   UNL     1       1.353  -4.285   4.409  0.00  0.00    +0.041 A 
ATOM     34  C   UNL     1       1.253  -2.907   4.372  0.00  0.00    +0.064 A 
ATOM     35 CL   UNL     1       2.312  -1.933   5.345  0.00  0.00    -0.082 Cl
ATOM     36 CL   UNL     1       0.646  -6.791   3.670  0.00  0.00    -0.083 Cl
ENDBRANCH  27  29
ENDBRANCH  24  25
ENDBRANCH  10  24
TORSDOF 7
