REMARK  Name = ZINC20499149
REMARK  6 active torsions:
REMARK  status: ('A' for Active; 'I' for Inactive)
REMARK    1  A    between atoms: C_8  and  C_10
REMARK    2  A    between atoms: N_12  and  C_13
REMARK    3  A    between atoms: C_13  and  N_15
REMARK    4  A    between atoms: N_15  and  C_16
REMARK    5  A    between atoms: C_21  and  N_22
REMARK    6  A    between atoms: C_28  and  C_30
REMARK                            x       y       z     vdW  Elec       q    Type
REMARK                         _______ _______ _______ _____ _____    ______ ____
ROOT
ATOM      1  C   UNL     1      -4.700   1.080  -0.062  0.00  0.00    +0.055 A 
ATOM      2  C   UNL     1      -4.635  -0.305  -0.063  0.00  0.00    +0.045 A 
ATOM      3  C   UNL     1      -5.796  -1.052  -0.152  0.00  0.00    +0.043 A 
ATOM      4  C   UNL     1      -7.024  -0.420  -0.242  0.00  0.00    +0.022 A 
ATOM      5  C   UNL     1      -7.097   0.961  -0.243  0.00  0.00    +0.026 A 
ATOM      6  C   UNL     1      -5.938   1.716  -0.148  0.00  0.00    +0.051 A 
ATOM      7 CL   UNL     1      -5.713  -2.786  -0.152  0.00  0.00    -0.083 Cl
ENDROOT
BRANCH   6   8
ATOM      8  N   UNL     1      -6.010   3.115  -0.142  0.00  0.00    -0.325 N 
ATOM      9  C   UNL     1      -6.719   3.600   1.049  0.00  0.00    +0.124 C 
ATOM     10  C   UNL     1      -6.619   5.128   1.111  0.00  0.00    +0.127 C 
ATOM     11  N   UNL     1      -7.098   5.680  -0.166  0.00  0.00    -0.291 N 
ATOM     12  C   UNL     1      -6.531   5.143  -1.412  0.00  0.00    +0.127 C 
ATOM     13  C   UNL     1      -6.634   3.614  -1.375  0.00  0.00    +0.124 C 
ATOM     14  C   UNL     1      -8.032   6.651  -0.193  0.00  0.00    +0.320 C 
ATOM     15  O   UNL     1      -8.415   7.094  -1.255  0.00  0.00    -0.266 OA
BRANCH  14  16
ATOM     16  C   UNL     1      -8.599   7.187   1.096  0.00  0.00    +0.470 C 
ATOM     17  F   UNL     1      -9.543   8.180   0.813  0.00  0.00    -0.162 F 
ATOM     18  F   UNL     1      -9.213   6.148   1.803  0.00  0.00    -0.162 F 
ATOM     19  F   UNL     1      -7.568   7.731   1.870  0.00  0.00    -0.162 F 
ENDBRANCH  14  16
ENDBRANCH   6   8
BRANCH   1  20
ATOM     20  N   UNL     1      -3.525   1.838   0.029  0.00  0.00    -0.295 N 
ATOM     21  H   UNL     1      -3.382   2.712  -0.624  0.00  0.00    +0.154 HD
BRANCH  20  22
ATOM     22  C   UNL     1      -2.570   1.497   0.916  0.00  0.00    +0.141 C 
ATOM     23  S   UNL     1      -2.849   0.224   2.027  0.00  0.00    -0.018 S 
BRANCH  22  26
ATOM     24  C   UNL     1      -0.440   1.816   1.817  0.00  0.00    +0.285 C 
ATOM     25  O   UNL     1      -0.638   0.911   2.606  0.00  0.00    -0.266 OA
ATOM     26  N   UNL     1      -1.395   2.157   0.929  0.00  0.00    -0.261 N 
ATOM     27  H   UNL     1      -1.215   2.975   0.215  0.00  0.00    +0.157 HD
BRANCH  24  35
ATOM     28  C   UNL     1       4.978   4.454   2.239  0.00  0.00    +0.001 A 
ATOM     29  C   UNL     1       4.475   5.217   1.194  0.00  0.00    +0.004 A 
ATOM     30  C   UNL     1       3.207   4.991   0.704  0.00  0.00    +0.047 A 
ATOM     31  C   UNL     1       2.418   3.990   1.259  0.00  0.00    +0.136 A 
ATOM     32  C   UNL     1       2.933   3.219   2.318  0.00  0.00    +0.021 A 
ATOM     33  C   UNL     1       4.222   3.464   2.800  0.00  0.00    +0.011 A 
ATOM     34  C   UNL     1       1.877   2.271   2.669  0.00  0.00    +0.063 A 
ATOM     35  C   UNL     1       0.843   2.531   1.827  0.00  0.00    +0.191 A 
ATOM     36  O   UNL     1       1.175   3.542   0.997  0.00  0.00    -0.450 OA
ENDBRANCH  24  35
ENDBRANCH  22  26
ENDBRANCH  20  22
ENDBRANCH   1  20
TORSDOF 6
