REMARK  Name = ZINC65058694
REMARK  7 active torsions:
REMARK  status: ('A' for Active; 'I' for Inactive)
REMARK    1  A    between atoms: C_1  and  C_2
REMARK    2  A    between atoms: C_7  and  C_8
REMARK    3  A    between atoms: C_8  and  N_9
REMARK    4  A    between atoms: C_10  and  C_12
REMARK    5  A    between atoms: C_12  and  C_28
REMARK    6  A    between atoms: N_20  and  C_21
REMARK    7  A    between atoms: C_26  and  C_27
REMARK                            x       y       z     vdW  Elec       q    Type
REMARK                         _______ _______ _______ _____ _____    ______ ____
ROOT
ATOM      1  C   UNL     1      -2.739   2.022   3.837  0.00  0.00    +0.060 C 
ATOM      2  C   UNL     1      -2.769   2.525   5.283  0.00  0.00    +0.019 C 
ATOM      3  C   UNL     1      -4.221   2.674   5.743  0.00  0.00    +0.020 C 
ATOM      4  C   UNL     1      -4.930   3.704   4.858  0.00  0.00    +0.109 C 
ATOM      5  N   UNL     1      -4.780   3.303   3.452  0.00  0.00    -0.284 N 
ATOM      6  C   UNL     1      -3.431   3.045   2.931  0.00  0.00    +0.125 C 
ATOM      7  C   UNL     1      -5.860   3.174   2.657  0.00  0.00    +0.306 C 
ATOM      8  O   UNL     1      -5.718   2.922   1.476  0.00  0.00    -0.252 OA
ATOM      9  N   UNL     1      -7.097   3.323   3.170  0.00  0.00    -0.269 N 
ATOM     10  C   UNL     1      -3.471   0.682   3.747  0.00  0.00    +0.022 C 
ATOM     11  H   UNL     1      -7.209   3.590   4.096  0.00  0.00    +0.156 HD
ENDROOT
BRANCH   9  12
ATOM     12  C   UNL     1      -8.220   3.092   2.368  0.00  0.00    +0.038 A 
ATOM     13  C   UNL     1      -8.099   2.359   1.195  0.00  0.00    +0.023 A 
ATOM     14  C   UNL     1      -9.209   2.132   0.405  0.00  0.00    +0.002 A 
ATOM     15  C   UNL     1     -10.441   2.635   0.782  0.00  0.00    +0.000 A 
ATOM     16  C   UNL     1     -10.566   3.365   1.949  0.00  0.00    +0.005 A 
ATOM     17  C   UNL     1      -9.460   3.590   2.746  0.00  0.00    -0.029 A 
ATOM     18  C   UNL     1      -9.598   4.381   4.021  0.00  0.00    +0.045 C 
ENDBRANCH   9  12
BRANCH   1  20
ATOM     19  N   UNL     1      -1.038   1.411   2.149  0.00  0.00    -0.311 N 
ATOM     20  C   UNL     1      -1.309   1.845   3.396  0.00  0.00    +0.221 C 
ATOM     21  O   UNL     1      -0.403   2.093   4.163  0.00  0.00    -0.275 OA
ATOM     22  H   UNL     1      -1.763   1.213   1.536  0.00  0.00    +0.149 HD
BRANCH  19  23
ATOM     23  C   UNL     1       0.352   1.239   1.720  0.00  0.00    +0.139 C 
BRANCH  23  30
ATOM     24  C   UNL     1      -0.013   3.102  -0.458  0.00  0.00    +0.044 C 
ATOM     25  C   UNL     1       0.206   1.639  -0.746  0.00  0.00    -0.046 A 
ATOM     26  C   UNL     1       0.239   1.190  -2.053  0.00  0.00    +0.003 A 
ATOM     27  C   UNL     1       0.440  -0.152  -2.318  0.00  0.00    +0.000 A 
ATOM     28  C   UNL     1       0.610  -1.044  -1.276  0.00  0.00    +0.000 A 
ATOM     29  C   UNL     1       0.578  -0.595   0.031  0.00  0.00    +0.005 A 
ATOM     30  C   UNL     1       0.381   0.748   0.296  0.00  0.00    -0.027 A 
ENDBRANCH  23  30
ENDBRANCH  19  23
ENDBRANCH   1  20
TORSDOF 4
