REMARK  Name = ZINC06108909
REMARK  5 active torsions:
REMARK  status: ('A' for Active; 'I' for Inactive)
REMARK    1  A    between atoms: C_1  and  C_2
REMARK    2  A    between atoms: C_2  and  C_3
REMARK    3  A    between atoms: C_10  and  C_12
REMARK    4  A    between atoms: C_12  and  S_13
REMARK    5  A    between atoms: S_13  and  C_14
REMARK                            x       y       z     vdW  Elec       q    Type
REMARK                         _______ _______ _______ _____ _____    ______ ____
ROOT
ATOM      1  C   UNL     1       0.181   0.277   1.392  0.00  0.00    +0.191 A 
ATOM      2  N   UNL     1       0.158   1.604   1.410  0.00  0.00    -0.207 NA
ATOM      3  C   UNL     1       1.246   2.324   1.625  0.00  0.00    +0.129 A 
ATOM      4  C   UNL     1       2.486   1.661   1.845  0.00  0.00    +0.051 A 
ATOM      5  C   UNL     1       3.804   2.247   2.099  0.00  0.00    -0.025 A 
ATOM      6  C   UNL     1       4.830   1.391   2.276  0.00  0.00    -0.004 A 
ATOM      7  S   UNL     1       4.117  -0.225   2.118  0.00  0.00    -0.073 S 
ATOM      8  C   UNL     1       2.436   0.254   1.812  0.00  0.00    +0.115 A 
ATOM      9  N   UNL     1       1.308  -0.394   1.591  0.00  0.00    -0.214 NA
ATOM     10  C   UNL     1       6.263   1.735   2.548  0.00  0.00    +0.043 C 
ATOM     11  C   UNL     1       6.473   3.221   2.228  0.00  0.00    +0.005 C 
ATOM     12  C   UNL     1       5.349   4.028   2.884  0.00  0.00    +0.005 C 
ATOM     13  C   UNL     1       4.027   3.755   2.165  0.00  0.00    +0.037 C 
ATOM     14  N   UNL     1       1.179   3.705   1.637  0.00  0.00    -0.343 N 
ATOM     15  H   UNL     1       0.341   4.149   1.839  0.00  0.00    +0.144 HD
ATOM     16  H   UNL     1       1.972   4.230   1.443  0.00  0.00    +0.144 HD
ENDROOT
BRANCH   1  17
ATOM     17  S   UNL     1      -1.312  -0.611   1.098  0.00  0.00    -0.077 S 
BRANCH  17  18
ATOM     18  C   UNL     1      -2.466   0.770   0.906  0.00  0.00    +0.173 C 
BRANCH  18  25
ATOM     19  C   UNL     1      -6.251   0.584   0.318  0.00  0.00    +0.076 C 
ATOM     20  C   UNL     1      -7.144   1.287   1.345  0.00  0.00    +0.022 C 
ATOM     21  C   UNL     1      -7.010   2.802   1.179  0.00  0.00    +0.003 C 
ATOM     22  C   UNL     1      -5.560   3.219   1.435  0.00  0.00    +0.019 C 
ATOM     23  C   UNL     1      -4.650   2.538   0.414  0.00  0.00    +0.108 C 
ATOM     24  N   UNL     1      -4.878   1.087   0.462  0.00  0.00    -0.298 N 
ATOM     25  C   UNL     1      -3.849   0.235   0.639  0.00  0.00    +0.226 C 
ATOM     26  O   UNL     1      -4.037  -0.962   0.584  0.00  0.00    -0.275 OA
BRANCH  19  28
ATOM     27  C   UNL     1      -7.709  -1.440   0.461  0.00  0.00    +0.006 C 
ATOM     28  C   UNL     1      -6.272  -0.925   0.568  0.00  0.00    +0.019 C 
ENDBRANCH  19  28
ENDBRANCH  18  25
ENDBRANCH  17  18
ENDBRANCH   1  17
TORSDOF 4
