REMARK  Name = ZINC09434568
REMARK  3 active torsions:
REMARK  status: ('A' for Active; 'I' for Inactive)
REMARK    1  A    between atoms: C_6  and  C_7
REMARK    2  A    between atoms: C_10  and  C_12
REMARK    3  A    between atoms: N_14  and  N_15
REMARK                            x       y       z     vdW  Elec       q    Type
REMARK                         _______ _______ _______ _____ _____    ______ ____
ROOT
ATOM      1  C   UNL     1       2.092   0.755  -0.014  0.00  0.00    +0.136 A 
ATOM      2  C   UNL     1       1.346  -0.389  -0.013  0.00  0.00    +0.050 A 
ATOM      3  C   UNL     1       0.002  -0.004   0.002  0.00  0.00    +0.055 A 
ATOM      4  C   UNL     1      -0.017   1.374   0.010  0.00  0.00    +0.191 A 
ATOM      5  O   UNL     1       1.261   1.810  -0.000  0.00  0.00    -0.450 OA
ENDROOT
BRANCH   1  11
ATOM      6  C   UNL     1       4.321  -0.355  -0.034  0.00  0.00    +0.014 A 
ATOM      7  C   UNL     1       5.698  -0.287  -0.053  0.00  0.00    +0.039 A 
ATOM      8  C   UNL     1       6.334   0.945  -0.052  0.00  0.00    +0.123 A 
ATOM      9  C   UNL     1       5.591   2.115  -0.039  0.00  0.00    +0.039 A 
ATOM     10  C   UNL     1       4.213   2.059  -0.027  0.00  0.00    +0.014 A 
ATOM     11  C   UNL     1       3.567   0.821  -0.027  0.00  0.00    +0.017 A 
ATOM     12  F   UNL     1       7.684   1.005  -0.064  0.00  0.00    -0.205 F 
ENDBRANCH   1  11
BRANCH   4  13
ATOM     13  C   UNL     1      -1.214   2.217   0.020  0.00  0.00    +0.293 C 
ATOM     14  O   UNL     1      -2.319   1.706   0.023  0.00  0.00    -0.266 OA
ATOM     15  N   UNL     1      -1.092   3.560   0.027  0.00  0.00    -0.247 N 
ATOM     16  H   UNL     1      -0.212   3.967   0.025  0.00  0.00    +0.169 HD
BRANCH  15  17
ATOM     17  N   UNL     1      -2.209   4.347   0.037  0.00  0.00    -0.254 NA
ATOM     18  H   UNL     1      -2.804   4.121   0.820  0.00  0.00    +0.140 HD
ATOM     19  H   UNL     1      -1.962   5.325   0.041  0.00  0.00    +0.140 HD
ENDBRANCH  15  17
ENDBRANCH   4  13
TORSDOF 3
