REMARK  Name = ZINC06546860
REMARK  13 active torsions:
REMARK  status: ('A' for Active; 'I' for Inactive)
REMARK    1  A    between atoms: C_1  and  C_2
REMARK    2  A    between atoms: C_2  and  O_3
REMARK    3  A    between atoms: O_3  and  C_4
REMARK    4  A    between atoms: C_4  and  C_6
REMARK    5  A    between atoms: C_6  and  N_7
REMARK    6  A    between atoms: C_8  and  C_10
REMARK    7  A    between atoms: C_10  and  C_12
REMARK    8  A    between atoms: C_10  and  N_17
REMARK    9  A    between atoms: N_17  and  C_18
REMARK   10  A    between atoms: C_22  and  C_24
REMARK   11  A    between atoms: C_25  and  C_27
REMARK   12  A    between atoms: C_28  and  N_35
REMARK   13  A    between atoms: C_29  and  C_32
REMARK                            x       y       z     vdW  Elec       q    Type
REMARK                         _______ _______ _______ _____ _____    ______ ____
ROOT
ATOM      1  N   UNL     1      -0.181   5.565  -0.289  0.00  0.00    -0.250 N 
ATOM      2  C   UNL     1      -1.279   6.278   0.032  0.00  0.00    +0.262 C 
ATOM      3  O   UNL     1      -1.173   7.289   0.703  0.00  0.00    -0.269 OA
ENDROOT
BRANCH   1   4
ATOM      4  C   UNL     1      -0.314   4.320  -0.913  0.00  0.00    +0.038 A 
ATOM      5  C   UNL     1      -0.285   4.230  -2.299  0.00  0.00    +0.023 A 
ATOM      6  C   UNL     1      -0.416   2.999  -2.911  0.00  0.00    +0.002 A 
ATOM      7  C   UNL     1      -0.576   1.858  -2.147  0.00  0.00    +0.003 A 
ATOM      8  C   UNL     1      -0.611   1.945  -0.767  0.00  0.00    -0.049 A 
ATOM      9  C   UNL     1      -0.475   3.172  -0.148  0.00  0.00    +0.027 A 
ATOM     10  C   UNL     1      -0.791   0.700   0.061  0.00  0.00    +0.044 C 
ENDBRANCH   1   4
BRANCH   2  11
ATOM     11  C   UNL     1      -2.598   5.838  -0.426  0.00  0.00    +0.116 A 
ATOM     12  C   UNL     1      -3.826   6.497  -0.350  0.00  0.00    +0.076 A 
ATOM     13  C   UNL     1      -4.867   5.752  -0.903  0.00  0.00    +0.155 A 
ATOM     14  N   UNL     1      -4.612   4.564  -1.405  0.00  0.00    -0.203 NA
ATOM     15  S   UNL     1      -3.066   4.316  -1.223  0.00  0.00    +0.019 S 
BRANCH  13  16
ATOM     16  C   UNL     1      -6.241   6.287  -0.919  0.00  0.00    +0.262 C 
ATOM     17  O   UNL     1      -6.470   7.386  -0.452  0.00  0.00    -0.269 OA
ATOM     18  N   UNL     1      -7.242   5.559  -1.450  0.00  0.00    -0.324 N 
ATOM     19  H   UNL     1      -7.059   4.682  -1.823  0.00  0.00    +0.145 HD
ATOM     20  H   UNL     1      -8.146   5.911  -1.460  0.00  0.00    +0.145 HD
ENDBRANCH  13  16
BRANCH  12  21
ATOM     21  N   UNL     1      -3.993   7.756   0.211  0.00  0.00    -0.355 N 
ATOM     22  H   UNL     1      -3.229   8.228   0.579  0.00  0.00    +0.142 HD
ATOM     23  H   UNL     1      -4.873   8.164   0.236  0.00  0.00    +0.142 HD
ENDBRANCH  12  21
ENDBRANCH   2  11
BRANCH   1  24
ATOM     24  C   UNL     1       1.151   6.093   0.016  0.00  0.00    +0.204 C 
BRANCH  24  25
ATOM     25  C   UNL     1       1.993   6.082  -1.233  0.00  0.00    +0.019 A 
ATOM     26  C   UNL     1       2.658   7.105  -1.824  0.00  0.00    +0.013 A 
ATOM     27  C   UNL     1       3.379   6.859  -2.977  0.00  0.00    +0.008 A 
ATOM     28  C   UNL     1       3.393   5.604  -3.489  0.00  0.00    +0.045 A 
ATOM     29  S   UNL     1       2.369   4.719  -2.324  0.00  0.00    -0.099 S 
ENDBRANCH  24  25
BRANCH  24  31
ATOM     30  N   UNL     1       3.065   5.495   1.464  0.00  0.00    -0.303 N 
ATOM     31  C   UNL     1       1.802   5.235   1.069  0.00  0.00    +0.239 C 
ATOM     32  O   UNL     1       1.191   4.310   1.562  0.00  0.00    -0.273 OA
ATOM     33  H   UNL     1       3.554   6.234   1.070  0.00  0.00    +0.149 HD
BRANCH  30  34
ATOM     34  C   UNL     1       3.698   4.660   2.488  0.00  0.00    +0.225 C 
BRANCH  34  35
ATOM     35  C   UNL     1       5.097   5.157   2.746  0.00  0.00    +0.324 C 
ATOM     36  O   UNL     1       5.522   6.111   2.137  0.00  0.00    -0.249 OA
BRANCH  35  37
ATOM     37  O   UNL     1       5.872   4.541   3.652  0.00  0.00    -0.464 OA
BRANCH  37  39
ATOM     38  C   UNL     1       7.936   4.248   4.912  0.00  0.00    +0.048 C 
ATOM     39  C   UNL     1       7.208   5.074   3.849  0.00  0.00    +0.229 C 
ENDBRANCH  37  39
ENDBRANCH  35  37
ENDBRANCH  34  35
ENDBRANCH  30  34
ENDBRANCH  24  31
ENDBRANCH   1  24
TORSDOF 11
