REMARK  Name = ZINC36022663
REMARK  11 active torsions:
REMARK  status: ('A' for Active; 'I' for Inactive)
REMARK    1  A    between atoms: C_1  and  C_2
REMARK    2  A    between atoms: N_4  and  C_5
REMARK    3  A    between atoms: C_8  and  N_11
REMARK    4  A    between atoms: C_12  and  C_14
REMARK    5  A    between atoms: N_16  and  C_17
REMARK    6  A    between atoms: C_17  and  C_18
REMARK    7  A    between atoms: C_18  and  C_20
REMARK    8  A    between atoms: C_18  and  N_29
REMARK    9  A    between atoms: C_23  and  N_26
REMARK   10  A    between atoms: N_26  and  C_27
REMARK   11  A    between atoms: N_26  and  C_28
REMARK                            x       y       z     vdW  Elec       q    Type
REMARK                         _______ _______ _______ _____ _____    ______ ____
ROOT
ATOM      1  C   UNL     1      -3.910 -10.456  -1.014  0.00  0.00    +0.128 C 
ENDROOT
BRANCH   1   4
ATOM      2  C   UNL     1      -2.497  -8.493  -1.310  0.00  0.00    +0.299 C 
ATOM      3  O   UNL     1      -1.533  -9.184  -1.051  0.00  0.00    -0.265 OA
ATOM      4  N   UNL     1      -3.731  -9.034  -1.318  0.00  0.00    -0.306 N 
ATOM      5  H   UNL     1      -4.501  -8.482  -1.525  0.00  0.00    +0.149 HD
BRANCH   2   7
ATOM      6  N   UNL     1      -1.080  -6.503  -1.613  0.00  0.00    -0.278 N 
ATOM      7  C   UNL     1      -2.314  -7.044  -1.621  0.00  0.00    +0.303 C 
ATOM      8  O   UNL     1      -3.278  -6.353  -1.880  0.00  0.00    -0.265 OA
ATOM      9  H   UNL     1      -0.318  -7.037  -1.341  0.00  0.00    +0.155 HD
BRANCH   6  13
ATOM     10  C   UNL     1      -0.537  -2.533  -2.760  0.00  0.00    +0.033 A 
ATOM     11  C   UNL     1      -1.686  -2.907  -2.075  0.00  0.00    +0.025 A 
ATOM     12  C   UNL     1      -1.866  -4.221  -1.695  0.00  0.00    +0.025 A 
ATOM     13  C   UNL     1      -0.898  -5.171  -1.998  0.00  0.00    +0.034 A 
ATOM     14  C   UNL     1       0.251  -4.797  -2.683  0.00  0.00    +0.025 A 
ATOM     15  C   UNL     1       0.428  -3.483  -3.068  0.00  0.00    +0.025 A 
BRANCH  10  19
ATOM     16  C   UNL     1       0.364   0.518  -4.774  0.00  0.00    +0.109 C 
ATOM     17  C   UNL     1       0.261  -0.912  -4.309  0.00  0.00    +0.214 C 
ATOM     18  O   UNL     1       0.731  -1.804  -4.983  0.00  0.00    -0.276 OA
ATOM     19  N   UNL     1      -0.354  -1.199  -3.145  0.00  0.00    -0.286 N 
ATOM     20  H   UNL     1      -0.670  -0.482  -2.573  0.00  0.00    +0.155 HD
ENDBRANCH  10  19
ENDBRANCH   6  13
ENDBRANCH   2   7
ENDBRANCH   1   4
BRANCH   1  21
ATOM     21  C   UNL     1      -5.383 -10.833  -1.185  0.00  0.00    +0.104 C 
BRANCH  21  22
ATOM     22  N   UNL     1      -6.196 -10.079  -0.222  0.00  0.00    -0.289 NA
ATOM     23  C   UNL     1      -6.724  -8.847  -0.829  0.00  0.00    +0.090 C 
ATOM     24  C   UNL     1      -7.837  -8.302   0.068  0.00  0.00    +0.051 C 
ATOM     25  C   UNL     1      -7.355  -8.221   1.494  0.00  0.00    -0.042 A 
ATOM     26  C   UNL     1      -8.066  -7.435   2.388  0.00  0.00    +0.004 A 
ATOM     27  C   UNL     1      -7.660  -7.336   3.704  0.00  0.00    +0.000 A 
ATOM     28  C   UNL     1      -6.541  -8.025   4.133  0.00  0.00    +0.000 A 
ATOM     29  C   UNL     1      -5.832  -8.807   3.243  0.00  0.00    +0.005 A 
ATOM     30  C   UNL     1      -6.237  -8.905   1.919  0.00  0.00    -0.030 A 
ATOM     31  C   UNL     1      -5.424  -9.761   0.983  0.00  0.00    +0.120 C 
ENDBRANCH  21  22
BRANCH  21  32
ATOM     32  C   UNL     1      -5.555 -12.310  -0.941  0.00  0.00    -0.029 A 
ATOM     33  C   UNL     1      -5.749 -12.778   0.346  0.00  0.00    +0.007 A 
ATOM     34  C   UNL     1      -5.907 -14.131   0.574  0.00  0.00    +0.023 A 
ATOM     35  C   UNL     1      -5.870 -15.022  -0.491  0.00  0.00    +0.029 A 
ATOM     36  C   UNL     1      -5.675 -14.548  -1.783  0.00  0.00    +0.023 A 
ATOM     37  C   UNL     1      -5.523 -13.193  -2.004  0.00  0.00    +0.007 A 
BRANCH  35  38
ATOM     38  N   UNL     1      -6.030 -16.391  -0.265  0.00  0.00    -0.336 N 
ATOM     39  C   UNL     1      -6.355 -16.878   1.078  0.00  0.00    +0.129 C 
ATOM     40  C   UNL     1      -5.871 -17.340  -1.370  0.00  0.00    +0.129 C 
ENDBRANCH  35  38
ENDBRANCH  21  32
ENDBRANCH   1  21
TORSDOF 8
