REMARK  Name = ZINC14358358
REMARK  9 active torsions:
REMARK  status: ('A' for Active; 'I' for Inactive)
REMARK    1  A    between atoms: C_1  and  C_2
REMARK    2  A    between atoms: C_2  and  O_3
REMARK    3  A    between atoms: O_3  and  C_4
REMARK    4  A    between atoms: C_4  and  C_6
REMARK    5  A    between atoms: C_10  and  N_11
REMARK    6  A    between atoms: C_12  and  C_14
REMARK    7  A    between atoms: C_14  and  N_15
REMARK    8  A    between atoms: C_18  and  C_22
REMARK    9  A    between atoms: C_18  and  C_23
REMARK                            x       y       z     vdW  Elec       q    Type
REMARK                         _______ _______ _______ _____ _____    ______ ____
ROOT
ATOM      1  N   UNL     1      -2.715   2.159   1.838  0.00  0.00    -0.215 N 
ATOM      2  C   UNL     1      -2.365   1.346   0.822  0.00  0.00    +0.251 C 
ATOM      3  O   UNL     1      -2.789   0.233   0.595  0.00  0.00    -0.272 OA
ATOM      4  C   UNL     1      -1.333   2.113   0.020  0.00  0.00    +0.135 C 
ATOM      5  N   UNL     1      -1.208   3.389   0.746  0.00  0.00    -0.281 N 
ATOM      6  C   UNL     1      -2.053   3.321   1.790  0.00  0.00    +0.310 C 
ATOM      7  O   UNL     1      -2.199   4.215   2.600  0.00  0.00    -0.252 OA
ATOM      8  C   UNL     1      -1.825   2.352  -1.409  0.00  0.00    +0.047 C 
ATOM      9  H   UNL     1      -0.631   4.133   0.515  0.00  0.00    +0.152 HD
ENDROOT
BRANCH   4  10
ATOM     10  C   UNL     1      -0.017   1.378   0.010  0.00  0.00    -0.012 A 
ATOM     11  C   UNL     1       0.002  -0.004   0.002  0.00  0.00    +0.010 A 
ATOM     12  C   UNL     1       1.207  -0.681  -0.012  0.00  0.00    +0.050 A 
ATOM     13  C   UNL     1       2.401   0.025  -0.018  0.00  0.00    +0.162 A 
ATOM     14  C   UNL     1       2.382   1.415  -0.012  0.00  0.00    +0.162 A 
ATOM     15  C   UNL     1       1.169   2.088   0.002  0.00  0.00    +0.055 A 
ATOM     16  O   UNL     1       3.541   2.127  -0.022  0.00  0.00    -0.485 OA
ATOM     17  C   UNL     1       4.732   1.422   0.344  0.00  0.00    +0.270 C 
ATOM     18  C   UNL     1       4.747   0.082  -0.403  0.00  0.00    +0.270 C 
ATOM     19  O   UNL     1       3.579  -0.656  -0.024  0.00  0.00    -0.485 OA
ENDBRANCH   4  10
BRANCH   1  20
ATOM     20  C   UNL     1      -3.698   1.813   2.868  0.00  0.00    +0.214 C 
BRANCH  20  22
ATOM     21  N   UNL     1      -6.137   2.034   3.212  0.00  0.00    -0.278 N 
ATOM     22  C   UNL     1      -5.069   2.251   2.420  0.00  0.00    +0.236 C 
ATOM     23  O   UNL     1      -5.210   2.797   1.347  0.00  0.00    -0.274 OA
ATOM     24  H   UNL     1      -6.024   1.597   4.071  0.00  0.00    +0.155 HD
BRANCH  21  29
ATOM     25  C   UNL     1      -8.605   2.304   3.468  0.00  0.00    +0.091 A 
ATOM     26  C   UNL     1      -9.804   2.818   2.806  0.00  0.00    -0.021 A 
ATOM     27  C   UNL     1      -9.597   3.375   1.600  0.00  0.00    -0.004 A 
ATOM     28  S   UNL     1      -7.846   3.234   1.332  0.00  0.00    -0.077 S 
ATOM     29  C   UNL     1      -7.398   2.437   2.801  0.00  0.00    +0.086 A 
ATOM     30  C   UNL     1     -10.873   3.883   0.986  0.00  0.00    +0.043 C 
ATOM     31  C   UNL     1     -11.870   3.956   2.164  0.00  0.00    +0.010 C 
ATOM     32  C   UNL     1     -11.298   2.895   3.125  0.00  0.00    +0.037 C 
BRANCH  25  33
ATOM     33  C   UNL     1      -8.678   1.672   4.787  0.00  0.00    +0.342 C 
ATOM     34  O   UNL     1      -8.559   2.346   5.792  0.00  0.00    -0.245 OA
BRANCH  33  35
ATOM     35  O   UNL     1      -8.877   0.341   4.887  0.00  0.00    -0.461 OA
BRANCH  35  37
ATOM     36  C   UNL     1      -9.167  -1.727   6.138  0.00  0.00    +0.048 C 
ATOM     37  C   UNL     1      -8.938  -0.217   6.226  0.00  0.00    +0.229 C 
ENDBRANCH  35  37
ENDBRANCH  33  35
ENDBRANCH  25  33
ENDBRANCH  21  29
ENDBRANCH  20  22
ENDBRANCH   1  20
TORSDOF 7
