REMARK  Name = ZINC21185580
REMARK  10 active torsions:
REMARK  status: ('A' for Active; 'I' for Inactive)
REMARK    1  A    between atoms: C_1  and  C_2
REMARK    2  A    between atoms: N_13  and  C_27
REMARK    3  A    between atoms: C_14  and  S_16
REMARK    4  A    between atoms: S_16  and  C_17
REMARK    5  A    between atoms: C_17  and  C_19
REMARK    6  A    between atoms: C_17  and  C_20
REMARK    7  A    between atoms: N_25  and  C_26
REMARK    8  A    between atoms: C_27  and  C_28
REMARK    9  A    between atoms: C_28  and  C_29
REMARK   10  A    between atoms: C_28  and  C_30
REMARK                            x       y       z     vdW  Elec       q    Type
REMARK                         _______ _______ _______ _____ _____    ______ ____
ROOT
ATOM      1  C   UNL     1       1.189  -8.422   0.026  0.00  0.00    +0.008 C 
ATOM      2  C   UNL     1       0.829  -6.966   0.328  0.00  0.00    -0.009 C 
ATOM      3  C   UNL     1      -0.396  -6.555  -0.494  0.00  0.00    +0.008 C 
ATOM      4  C   UNL     1      -0.908  -5.195  -0.018  0.00  0.00    +0.037 C 
ATOM      5  C   UNL     1       0.252  -4.203  -0.023  0.00  0.00    -0.023 A 
ATOM      6  C   UNL     1       1.529  -4.636  -0.039  0.00  0.00    -0.004 A 
ATOM      7  S   UNL     1       2.515  -3.162  -0.040  0.00  0.00    -0.073 S 
ATOM      8  C   UNL     1       1.204  -1.965  -0.020  0.00  0.00    +0.117 A 
ATOM      9  C   UNL     1       0.042  -2.754  -0.013  0.00  0.00    +0.076 A 
ATOM     10  C   UNL     1      -1.198  -2.039   0.004  0.00  0.00    +0.263 A 
ATOM     11  O   UNL     1      -2.258  -2.640   0.011  0.00  0.00    -0.267 OA
ATOM     12  N   UNL     1      -1.176  -0.693   0.015  0.00  0.00    -0.287 N 
ATOM     13  C   UNL     1       0.002  -0.004   0.002  0.00  0.00    +0.173 A 
ATOM     14  N   UNL     1       1.157  -0.638  -0.012  0.00  0.00    -0.216 NA
ATOM     15  C   UNL     1       2.006  -6.056  -0.052  0.00  0.00    +0.046 C 
ENDROOT
BRANCH  13  16
ATOM     16  S   UNL     1      -0.022   1.758   0.012  0.00  0.00    -0.075 S 
BRANCH  16  17
ATOM     17  C   UNL     1       1.756   2.096  -0.004  0.00  0.00    +0.137 C 
ATOM     18  C   UNL     1       2.359   1.600  -1.319  0.00  0.00    +0.029 C 
BRANCH  17  19
ATOM     19  C   UNL     1       1.986   3.580   0.126  0.00  0.00    +0.233 C 
ATOM     20  O   UNL     1       1.095   4.357  -0.140  0.00  0.00    -0.274 OA
ATOM     21  N   UNL     1       3.183   4.043   0.538  0.00  0.00    -0.239 N 
ATOM     22  C   UNL     1       3.389   5.370   0.654  0.00  0.00    +0.306 C 
ATOM     23  O   UNL     1       2.495   6.149   0.387  0.00  0.00    -0.252 OA
ATOM     24  N   UNL     1       4.585   5.833   1.067  0.00  0.00    -0.302 N 
ATOM     25  C   UNL     1       4.809   7.275   1.193  0.00  0.00    +0.129 C 
ATOM     26  H   UNL     1       3.992   3.338   0.780  0.00  0.00    +0.159 HD
ATOM     27  H   UNL     1       5.394   5.128   1.308  0.00  0.00    +0.150 HD
ENDBRANCH  17  19
ENDBRANCH  16  17
ENDBRANCH  13  16
BRANCH  12  28
ATOM     28  C   UNL     1      -2.441   0.046   0.037  0.00  0.00    +0.130 C 
BRANCH  28  29
ATOM     29  C   UNL     1      -2.902   0.311  -1.397  0.00  0.00    +0.003 C 
ATOM     30  C   UNL     1      -3.221  -1.019  -2.084  0.00  0.00    +0.009 C 
ATOM     31  C   UNL     1      -4.155   1.188  -1.376  0.00  0.00    +0.009 C 
ENDBRANCH  28  29
ENDBRANCH  12  28
TORSDOF 5
