REMARK  Name = ZINC32962147
REMARK  6 active torsions:
REMARK  status: ('A' for Active; 'I' for Inactive)
REMARK    1  A    between atoms: C_3  and  N_20
REMARK    2  A    between atoms: C_4  and  C_17
REMARK    3  A    between atoms: C_6  and  N_7
REMARK    4  A    between atoms: N_7  and  S_8
REMARK    5  A    between atoms: S_8  and  C_11
REMARK    6  A    between atoms: C_23  and  N_26
REMARK                            x       y       z     vdW  Elec       q    Type
REMARK                         _______ _______ _______ _____ _____    ______ ____
ROOT
ATOM      1  C   UNL     1       1.394  -0.654   0.030  0.00  0.00    +0.028 A 
ATOM      2  C   UNL     1       2.478   0.198   0.049  0.00  0.00    +0.026 A 
ATOM      3  C   UNL     1       2.287   1.573   0.015  0.00  0.00    +0.044 A 
ATOM      4  C   UNL     1       0.984   2.094  -0.040  0.00  0.00    +0.086 A 
ATOM      5  C   UNL     1      -0.110   1.222  -0.059  0.00  0.00    +0.043 A 
ATOM      6  C   UNL     1       0.099  -0.145  -0.023  0.00  0.00    +0.075 A 
ENDROOT
BRANCH   3   7
ATOM      7  N   UNL     1       3.381   2.430   0.034  0.00  0.00    -0.329 N 
ATOM      8  C   UNL     1       4.039   2.832  -1.216  0.00  0.00    +0.103 C 
ATOM      9  C   UNL     1       5.537   2.527  -1.105  0.00  0.00    +0.004 C 
ATOM     10  C   UNL     1       6.099   3.204   0.147  0.00  0.00    -0.066 C 
ATOM     11  C   UNL     1       5.399   2.647   1.389  0.00  0.00    +0.004 C 
ATOM     12  C   UNL     1       3.896   2.957   1.305  0.00  0.00    +0.103 C 
BRANCH  10  13
ATOM     13  N   UNL     1       7.541   2.942   0.240  0.00  0.00    +0.382 N 
ATOM     14  C   UNL     1       8.078   3.584   1.446  0.00  0.00    -0.078 C 
ATOM     15  C   UNL     1       9.563   3.246   1.590  0.00  0.00    -0.019 C 
ATOM     16  C   UNL     1      10.319   3.756   0.359  0.00  0.00    -0.004 C 
ATOM     17  C   UNL     1       9.703   3.137  -0.898  0.00  0.00    -0.019 C 
ATOM     18  C   UNL     1       8.212   3.478  -0.951  0.00  0.00    -0.078 C 
ATOM     19  H   UNL     1       7.698   1.946   0.293  0.00  0.00    -0.081 HD
ENDBRANCH  10  13
ENDBRANCH   3   7
BRANCH   4  20
ATOM     20  C   UNL     1       0.770   3.549  -0.076  0.00  0.00    +0.388 C 
ATOM     21  O   UNL     1      -0.366   4.002  -0.024  0.00  0.00    -0.241 OA
ATOM     22  O   UNL     1       1.728   4.306  -0.159  0.00  0.00    -0.241 OA
ENDBRANCH   4  20
BRANCH   6  23
ATOM     23  N   UNL     1      -0.994  -1.019  -0.042  0.00  0.00    -0.097 NA
BRANCH  23  24
ATOM     24  S   UNL     1      -0.747  -2.656  -0.000  0.00  0.00    +0.098 S 
ATOM     25  O   UNL     1      -0.100  -3.000  -1.218  0.00  0.00    -0.148 OA
ATOM     26  O   UNL     1      -0.183  -2.949   1.271  0.00  0.00    -0.148 OA
BRANCH  24  27
ATOM     27  C   UNL     1      -2.332  -3.424  -0.038  0.00  0.00    +0.149 A 
ATOM     28  C   UNL     1      -3.062  -3.822  -1.107  0.00  0.00    +0.038 A 
ATOM     29  C   UNL     1      -4.296  -4.409  -0.896  0.00  0.00    +0.030 A 
ATOM     30  C   UNL     1      -4.739  -4.569   0.376  0.00  0.00    +0.080 A 
ATOM     31  S   UNL     1      -3.390  -3.885   1.325  0.00  0.00    -0.057 S 
ATOM     32 CL   UNL     1      -6.227  -5.264   0.936  0.00  0.00    -0.076 Cl
ENDBRANCH  24  27
ENDBRANCH  23  24
ENDBRANCH   6  23
TORSDOF 6
