REMARK  Name = ZINC01822298
REMARK  8 active torsions:
REMARK  status: ('A' for Active; 'I' for Inactive)
REMARK    1  A    between atoms: C_1  and  C_2
REMARK    2  A    between atoms: C_2  and  C_3
REMARK    3  A    between atoms: C_11  and  C_12
REMARK    4  A    between atoms: C_15  and  O_20
REMARK    5  A    between atoms: C_16  and  O_18
REMARK    6  A    between atoms: O_18  and  C_19
REMARK    7  A    between atoms: O_20  and  C_21
REMARK    8  A    between atoms: C_21  and  C_22
REMARK                            x       y       z     vdW  Elec       q    Type
REMARK                         _______ _______ _______ _____ _____    ______ ____
ROOT
ATOM      1  C   UNL     1      -1.268   0.368   2.351  0.00  0.00    +0.007 C 
ATOM      2  C   UNL     1      -1.444  -0.574   3.273  0.00  0.00    +0.092 A 
ATOM      3  N   UNL     1      -0.508  -1.450   3.826  0.00  0.00    -0.283 N 
ATOM      4  H   UNL     1       0.411  -1.452   3.515  0.00  0.00    +0.188 HD
ATOM      5  N   UNL     1      -0.917  -2.312   4.823  0.00  0.00    -0.212 N 
ATOM      6  C   UNL     1      -0.060  -3.139   5.579  0.00  0.00    +0.160 A 
ATOM      7  N   UNL     1       1.208  -2.885   5.760  0.00  0.00    -0.281 NA
ATOM      8  C   UNL     1      -0.748  -4.332   6.151  0.00  0.00    +0.085 A 
ATOM      9  C   UNL     1      -0.100  -5.536   6.311  0.00  0.00    +0.025 C 
ATOM     10  C   UNL     1      -2.168  -4.150   6.539  0.00  0.00    +0.283 A 
ATOM     11  O   UNL     1      -2.683  -4.862   7.384  0.00  0.00    -0.265 OA
ATOM     12  N   UNL     1      -2.875  -3.173   5.931  0.00  0.00    -0.182 NA
ATOM     13  C   UNL     1      -2.267  -2.351   5.117  0.00  0.00    +0.199 A 
ATOM     14  S   UNL     1      -2.941  -1.040   4.132  0.00  0.00    -0.031 S 
ATOM     15  H   UNL     1       1.605  -2.093   5.365  0.00  0.00    +0.188 HD
ENDROOT
BRANCH   9  16
ATOM     16  C   UNL     1      -0.857  -6.729   6.697  0.00  0.00    -0.021 A 
ATOM     17  C   UNL     1      -2.149  -6.936   6.194  0.00  0.00    +0.012 A 
ATOM     18  C   UNL     1      -2.857  -8.059   6.559  0.00  0.00    +0.050 A 
ATOM     19  C   UNL     1      -2.295  -8.988   7.426  0.00  0.00    +0.162 A 
ATOM     20  C   UNL     1      -1.010  -8.790   7.932  0.00  0.00    +0.162 A 
ATOM     21  C   UNL     1      -0.289  -7.671   7.567  0.00  0.00    +0.057 A 
BRANCH  20  22
ATOM     22  O   UNL     1      -0.465  -9.703   8.780  0.00  0.00    -0.491 OA
ATOM     23  C   UNL     1       0.855  -9.436   9.259  0.00  0.00    +0.277 C 
ENDBRANCH  20  22
BRANCH  19  24
ATOM     24  O   UNL     1      -2.999 -10.093   7.782  0.00  0.00    -0.484 OA
BRANCH  24  25
ATOM     25  C   UNL     1      -4.309 -10.234   7.228  0.00  0.00    +0.264 C 
BRANCH  25  26
ATOM     26  C   UNL     1      -4.933 -11.510   7.733  0.00  0.00    -0.010 A 
ATOM     27  C   UNL     1      -4.755 -12.689   7.034  0.00  0.00    +0.008 A 
ATOM     28  C   UNL     1      -5.327 -13.859   7.496  0.00  0.00    +0.015 A 
ATOM     29  C   UNL     1      -6.077 -13.851   8.659  0.00  0.00    +0.018 A 
ATOM     30  C   UNL     1      -6.254 -12.670   9.358  0.00  0.00    +0.015 A 
ATOM     31  C   UNL     1      -5.677 -11.501   8.897  0.00  0.00    +0.008 A 
ATOM     32 BR   UNL     1      -6.859 -15.451   9.291  0.00  0.00    -0.050 Br
ENDBRANCH  25  26
ENDBRANCH  24  25
ENDBRANCH  19  24
ENDBRANCH   9  16
BRANCH   1  34
ATOM     33  C   UNL     1      -2.089   2.692   2.079  0.00  0.00    +0.008 C 
ATOM     34  C   UNL     1      -2.433   1.212   1.902  0.00  0.00    +0.026 C 
ENDBRANCH   1  34
TORSDOF 6
