REMARK  Name = ZINC24882652
REMARK  8 active torsions:
REMARK  status: ('A' for Active; 'I' for Inactive)
REMARK    1  A    between atoms: C_1  and  C_2
REMARK    2  A    between atoms: N_13  and  C_30
REMARK    3  A    between atoms: C_14  and  S_16
REMARK    4  A    between atoms: S_16  and  C_17
REMARK    5  A    between atoms: C_17  and  C_19
REMARK    6  A    between atoms: C_17  and  C_20
REMARK    7  A    between atoms: N_26  and  C_27
REMARK    8  A    between atoms: N_26  and  C_28
REMARK                            x       y       z     vdW  Elec       q    Type
REMARK                         _______ _______ _______ _____ _____    ______ ____
ROOT
ATOM      1  C   UNL     1     -11.258   3.394  -1.790  0.00  0.00    +0.008 C 
ATOM      2  C   UNL     1      -9.839   3.934  -1.596  0.00  0.00    -0.009 C 
ATOM      3  C   UNL     1      -9.048   3.778  -2.897  0.00  0.00    +0.008 C 
ATOM      4  C   UNL     1      -7.724   4.536  -2.794  0.00  0.00    +0.037 C 
ATOM      5  C   UNL     1      -7.000   4.091  -1.526  0.00  0.00    -0.023 A 
ATOM      6  C   UNL     1      -7.669   3.475  -0.531  0.00  0.00    -0.004 A 
ATOM      7  S   UNL     1      -6.448   3.147   0.712  0.00  0.00    -0.073 S 
ATOM      8  C   UNL     1      -5.037   3.842  -0.112  0.00  0.00    +0.117 A 
ATOM      9  C   UNL     1      -5.565   4.307  -1.328  0.00  0.00    +0.076 A 
ATOM     10  C   UNL     1      -4.633   4.930  -2.216  0.00  0.00    +0.268 A 
ATOM     11  O   UNL     1      -5.001   5.364  -3.294  0.00  0.00    -0.267 OA
ATOM     12  N   UNL     1      -3.343   5.030  -1.844  0.00  0.00    -0.255 N 
ATOM     13  C   UNL     1      -2.913   4.550  -0.639  0.00  0.00    +0.178 A 
ATOM     14  N   UNL     1      -3.751   3.967   0.194  0.00  0.00    -0.215 NA
ATOM     15  C   UNL     1      -9.130   3.141  -0.489  0.00  0.00    +0.046 C 
ENDROOT
BRANCH  12  16
ATOM     16  C   UNL     1      -2.424   5.640  -2.709  0.00  0.00    +0.052 A 
ATOM     17  C   UNL     1      -2.199   7.008  -2.633  0.00  0.00    +0.026 A 
ATOM     18  C   UNL     1      -1.288   7.605  -3.483  0.00  0.00    +0.002 A 
ATOM     19  C   UNL     1      -0.609   6.843  -4.416  0.00  0.00    +0.000 A 
ATOM     20  C   UNL     1      -0.835   5.481  -4.498  0.00  0.00    +0.002 A 
ATOM     21  C   UNL     1      -1.741   4.878  -3.647  0.00  0.00    +0.026 A 
ENDBRANCH  12  16
BRANCH  13  22
ATOM     22  S   UNL     1      -1.214   4.705  -0.197  0.00  0.00    -0.076 S 
BRANCH  22  23
ATOM     23  C   UNL     1      -1.242   3.923   1.435  0.00  0.00    +0.119 C 
ATOM     24  C   UNL     1      -2.097   4.761   2.388  0.00  0.00    +0.028 C 
BRANCH  23  25
ATOM     25  C   UNL     1       0.164   3.831   1.971  0.00  0.00    +0.149 A 
ATOM     26  N   UNL     1       0.975   4.869   1.875  0.00  0.00    -0.198 NA
ATOM     27  C   UNL     1       2.219   4.790   2.343  0.00  0.00    +0.217 A 
ATOM     28  N   UNL     1       2.644   3.664   2.907  0.00  0.00    -0.181 NA
ATOM     29  C   UNL     1       1.825   2.622   3.002  0.00  0.00    +0.222 A 
ATOM     30  N   UNL     1       0.583   2.710   2.532  0.00  0.00    -0.198 NA
ATOM     31  N   UNL     1       2.262   1.452   3.587  0.00  0.00    -0.306 N 
ATOM     32  C   UNL     1       1.358   0.303   3.692  0.00  0.00    +0.132 C 
ATOM     33  C   UNL     1       3.629   1.357   4.104  0.00  0.00    +0.132 C 
ATOM     34  N   UNL     1       3.066   5.875   2.242  0.00  0.00    -0.327 N 
ATOM     35  H   UNL     1       4.093   5.808   2.629  0.00  0.00    +0.145 HD
ATOM     36  H   UNL     1       2.713   6.806   1.775  0.00  0.00    +0.145 HD
ENDBRANCH  23  25
ENDBRANCH  22  23
ENDBRANCH  13  22
TORSDOF 4
