REMARK  Name = ZINC63842496
REMARK  4 active torsions:
REMARK  status: ('A' for Active; 'I' for Inactive)
REMARK    1  A    between atoms: C_7  and  C_10
REMARK    2  A    between atoms: C_10  and  C_11
REMARK    3  A    between atoms: N_13  and  N_14
REMARK    4  A    between atoms: C_15  and  C_17
REMARK                            x       y       z     vdW  Elec       q    Type
REMARK                         _______ _______ _______ _____ _____    ______ ____
ROOT
ATOM      1  C   UNL     1       0.460  -3.646  -1.440  0.00  0.00    +0.233 C 
ATOM      2  O   UNL     1       1.006  -3.075  -2.360  0.00  0.00    -0.274 OA
ATOM      3  N   UNL     1      -0.353  -4.693  -1.684  0.00  0.00    -0.234 N 
ATOM      4  H   UNL     1      -0.790  -5.150  -0.948  0.00  0.00    +0.173 HD
ENDROOT
BRANCH   3   5
ATOM      5  N   UNL     1      -0.567  -5.122  -3.001  0.00  0.00    -0.228 N 
ATOM      6  C   UNL     1      -1.380  -6.168  -3.245  0.00  0.00    +0.295 C 
ATOM      7  O   UNL     1      -1.928  -6.741  -2.323  0.00  0.00    -0.265 OA
ATOM      8  H   UNL     1      -0.131  -4.665  -3.737  0.00  0.00    +0.173 HD
BRANCH   6   9
ATOM      9  C   UNL     1      -1.606  -6.619  -4.631  0.00  0.00    +0.181 C 
ATOM     10  C   UNL     1      -2.399  -7.642  -4.950  0.00  0.00    +0.029 C 
ATOM     11  C   UNL     1      -2.371  -7.776  -6.463  0.00  0.00    +0.087 C 
ATOM     12  C   UNL     1      -1.758  -6.420  -6.890  0.00  0.00    +0.244 C 
ATOM     13  O   UNL     1      -1.032  -6.032  -5.710  0.00  0.00    -0.473 OA
ATOM     14 BR   UNL     1      -0.548  -6.648  -8.423  0.00  0.00    -0.043 Br
ENDBRANCH   6   9
ENDBRANCH   3   5
BRANCH   1  15
ATOM     15  C   UNL     1       0.691  -3.186  -0.024  0.00  0.00    +0.130 C 
BRANCH  15  22
ATOM     16  C   UNL     1      -0.016   1.348   0.009  0.00  0.00    +0.001 A 
ATOM     17  C   UNL     1       1.166   2.101   0.002  0.00  0.00    +0.002 A 
ATOM     18  C   UNL     1       2.391   1.535  -0.013  0.00  0.00    +0.026 A 
ATOM     19  C   UNL     1       2.529   0.120  -0.022  0.00  0.00    +0.043 A 
ATOM     20  N   UNL     1       3.587  -0.654  -0.037  0.00  0.00    -0.380 N 
ATOM     21  C   UNL     1       3.143  -2.053  -0.041  0.00  0.00    +0.145 C 
ATOM     22  C   UNL     1       1.631  -2.008  -0.025  0.00  0.00    -0.033 C 
ATOM     23  C   UNL     1       1.295  -0.698  -0.014  0.00  0.00    -0.001 A 
ATOM     24  C   UNL     1       0.002  -0.004   0.002  0.00  0.00    +0.010 A 
ATOM     25  H   UNL     1       4.509  -0.353  -0.045  0.00  0.00    +0.160 HD
ENDBRANCH  15  22
ENDBRANCH   1  15
TORSDOF 4
