REMARK  Name = ZINC09043240
REMARK  3 active torsions:
REMARK  status: ('A' for Active; 'I' for Inactive)
REMARK    1  A    between atoms: C_3  and  C_8
REMARK    2  A    between atoms: C_10  and  C_26
REMARK    3  A    between atoms: C_26  and  C_28
REMARK                            x       y       z     vdW  Elec       q    Type
REMARK                         _______ _______ _______ _____ _____    ______ ____
ROOT
ATOM      1  C   UNL     1      -3.931   2.878   0.012  0.00  0.00    +0.152 C 
ATOM      2  C   UNL     1      -3.299   4.248   0.086  0.00  0.00    +0.080 C 
ATOM      3  C   UNL     1      -4.304   5.148  -0.021  0.00  0.00    +0.250 C 
ATOM      4  C   UNL     1      -5.586   4.430  -0.159  0.00  0.00    +0.293 C 
ATOM      5  O   UNL     1      -6.673   4.961  -0.276  0.00  0.00    -0.266 OA
ATOM      6  N   UNL     1      -5.374   3.102  -0.136  0.00  0.00    -0.232 N 
ATOM      7  C   UNL     1      -6.345   2.120  -0.240  0.00  0.00    +0.169 A 
ATOM      8  N   UNL     1      -6.200   0.816  -0.231  0.00  0.00    -0.224 NA
ATOM      9  C   UNL     1      -7.247  -0.031  -0.337  0.00  0.00    +0.080 A 
ATOM     10  C   UNL     1      -7.229  -1.445  -0.336  0.00  0.00    +0.032 A 
ATOM     11  C   UNL     1      -8.391  -2.161  -0.460  0.00  0.00    +0.040 A 
ATOM     12  C   UNL     1      -9.621  -1.530  -0.592  0.00  0.00    +0.125 A 
ATOM     13  C   UNL     1      -9.675  -0.146  -0.597  0.00  0.00    +0.055 A 
ATOM     14  C   UNL     1      -8.516   0.577  -0.473  0.00  0.00    +0.043 A 
ATOM     15  S   UNL     1      -8.112   2.307  -0.429  0.00  0.00    -0.052 S 
ATOM     16  F   UNL     1     -10.753  -2.258  -0.713  0.00  0.00    -0.205 F 
ATOM     17  O   UNL     1      -4.157   6.494  -0.006  0.00  0.00    -0.282 OA
ENDROOT
BRANCH   1  20
ATOM     18  C   UNL     1      -2.463   0.394   2.446  0.00  0.00    +0.001 A 
ATOM     19  C   UNL     1      -2.716   1.098   1.284  0.00  0.00    +0.006 A 
ATOM     20  C   UNL     1      -3.656   2.111   1.279  0.00  0.00    -0.021 A 
ATOM     21  C   UNL     1      -4.341   2.423   2.439  0.00  0.00    +0.021 A 
ATOM     22  C   UNL     1      -4.093   1.715   3.601  0.00  0.00    +0.018 A 
ATOM     23  C   UNL     1      -3.151   0.702   3.605  0.00  0.00    +0.015 A 
ATOM     24 BR   UNL     1      -5.035   2.137   5.185  0.00  0.00    -0.050 Br
ENDBRANCH   1  20
BRANCH   2  25
ATOM     25  C   UNL     1      -1.870   4.546   0.239  0.00  0.00    +0.230 C 
ATOM     26  O   UNL     1      -1.464   5.077   1.258  0.00  0.00    -0.283 OA
BRANCH  25  27
ATOM     27  C   UNL     1      -0.931   4.204  -0.833  0.00  0.00    +0.175 A 
ATOM     28  C   UNL     1       0.412   4.512  -0.865  0.00  0.00    +0.053 A 
ATOM     29  C   UNL     1       0.911   3.995  -2.069  0.00  0.00    +0.042 A 
ATOM     30  C   UNL     1      -0.123   3.405  -2.710  0.00  0.00    +0.196 A 
ATOM     31  O   UNL     1      -1.229   3.537  -1.967  0.00  0.00    -0.460 OA
ENDBRANCH  25  27
ENDBRANCH   2  25
TORSDOF 3
