REMARK  Name = ZINC00461491
REMARK  2 active torsions:
REMARK  status: ('A' for Active; 'I' for Inactive)
REMARK    1  A    between atoms: C_3  and  N_9
REMARK    2  A    between atoms: N_12  and  C_13
REMARK                            x       y       z     vdW  Elec       q    Type
REMARK                         _______ _______ _______ _____ _____    ______ ____
ROOT
ATOM      1  N   UNL     1       0.002  -0.004   0.002  0.00  0.00    -0.267 N 
ATOM      2  C   UNL     1      -0.017   1.344   0.004  0.00  0.00    +0.304 C 
ATOM      3  O   UNL     1      -1.078   1.937   0.017  0.00  0.00    -0.252 OA
ATOM      4  N   UNL     1       1.141   2.034  -0.014  0.00  0.00    -0.296 N 
ATOM      5  H   UNL     1       0.845  -0.477  -0.078  0.00  0.00    +0.156 HD
ATOM      6  H   UNL     1       1.987   1.560  -0.028  0.00  0.00    +0.151 HD
ENDROOT
BRANCH   1   9
ATOM      7  C   UNL     1      -3.539  -0.939  -0.349  0.00  0.00    +0.017 A 
ATOM      8  C   UNL     1      -2.358  -0.230  -0.462  0.00  0.00    +0.027 A 
ATOM      9  C   UNL     1      -1.196  -0.722   0.115  0.00  0.00    +0.070 A 
ATOM     10  C   UNL     1      -1.222  -1.931   0.802  0.00  0.00    +0.146 A 
ATOM     11  C   UNL     1      -2.407  -2.633   0.916  0.00  0.00    +0.055 A 
ATOM     12  C   UNL     1      -3.564  -2.139   0.339  0.00  0.00    +0.021 A 
ATOM     13 BR   UNL     1      -5.181  -3.106   0.490  0.00  0.00    -0.050 Br
ATOM     14  F   UNL     1      -0.091  -2.416   1.360  0.00  0.00    -0.204 F 
ENDBRANCH   1   9
BRANCH   4  15
ATOM     15  C   UNL     1       1.120   3.498  -0.011  0.00  0.00    +0.074 C 
ATOM     16  C   UNL     1       0.965   4.008  -1.446  0.00  0.00    +0.022 C 
ATOM     17  C   UNL     1       0.943   5.538  -1.443  0.00  0.00    +0.002 C 
ATOM     18  C   UNL     1       2.253   6.066  -0.854  0.00  0.00    +0.000 C 
ATOM     19  C   UNL     1       2.409   5.556   0.580  0.00  0.00    +0.002 C 
ATOM     20  C   UNL     1       2.430   4.026   0.578  0.00  0.00    +0.022 C 
ENDBRANCH   4  15
TORSDOF 2
