REMARK  Name = ZINC51046363
REMARK  9 active torsions:
REMARK  status: ('A' for Active; 'I' for Inactive)
REMARK    1  A    between atoms: C_1  and  C_2
REMARK    2  A    between atoms: C_4  and  N_11
REMARK    3  A    between atoms: C_5  and  O_9
REMARK    4  A    between atoms: O_9  and  C_10
REMARK    5  A    between atoms: C_12  and  C_14
REMARK    6  A    between atoms: C_14  and  C_16
REMARK    7  A    between atoms: C_14  and  N_17
REMARK    8  A    between atoms: C_21  and  C_24
REMARK    9  A    between atoms: N_26  and  C_27
REMARK                            x       y       z     vdW  Elec       q    Type
REMARK                         _______ _______ _______ _____ _____    ______ ____
ROOT
ATOM      1  C   UNL     1      -0.199  -2.845  -4.889  0.00  0.00    +0.016 C 
ATOM      2  C   UNL     1       1.021  -3.763  -4.996  0.00  0.00    -0.004 C 
ENDROOT
BRANCH   1   3
ATOM      3  N   UNL     1      -0.195  -1.893  -6.007  0.00  0.00    +0.388 N 
ATOM      4  C   UNL     1      -1.394  -1.050  -5.934  0.00  0.00    -0.078 C 
ATOM      5  C   UNL     1      -1.355  -0.003  -7.049  0.00  0.00    -0.018 C 
ATOM      6  C   UNL     1      -1.309  -0.711  -8.406  0.00  0.00    +0.009 C 
ATOM      7  C   UNL     1      -0.095  -1.644  -8.443  0.00  0.00    +0.058 C 
ATOM      8  C   UNL     1      -0.181  -2.630  -7.276  0.00  0.00    -0.065 C 
ATOM      9  H   UNL     1       0.627  -1.311  -5.949  0.00  0.00    -0.081 HD
BRANCH   7  10
ATOM     10  C   UNL     1      -0.083  -2.403  -9.745  0.00  0.00    +0.215 C 
ATOM     11  O   UNL     1      -0.134  -3.615  -9.741  0.00  0.00    -0.276 OA
ATOM     12  N   UNL     1      -0.015  -1.735 -10.913  0.00  0.00    -0.312 N 
ATOM     13  H   UNL     1       0.025  -0.766 -10.916  0.00  0.00    +0.149 HD
BRANCH  12  14
ATOM     14  C   UNL     1      -0.004  -2.473 -12.179  0.00  0.00    +0.073 C 
ATOM     15  C   UNL     1       0.989  -2.020 -13.251  0.00  0.00    +0.024 C 
ATOM     16  C   UNL     1      -0.505  -1.743 -13.427  0.00  0.00    +0.024 C 
ENDBRANCH  12  14
ENDBRANCH   7  10
ENDBRANCH   1   3
BRANCH   1  18
ATOM     17  N   UNL     1      -0.690  -2.626  -2.474  0.00  0.00    -0.284 N 
ATOM     18  C   UNL     1      -0.146  -2.091  -3.586  0.00  0.00    +0.203 C 
ATOM     19  O   UNL     1       0.384  -1.001  -3.537  0.00  0.00    -0.277 OA
ATOM     20  H   UNL     1      -1.058  -3.523  -2.498  0.00  0.00    +0.155 HD
BRANCH  17  24
ATOM     21  C   UNL     1       1.288   0.819   0.425  0.00  0.00    +0.045 C 
ATOM     22  C   UNL     1       0.222  -0.210   0.147  0.00  0.00    -0.030 A 
ATOM     23  C   UNL     1       0.257  -0.939  -1.027  0.00  0.00    +0.031 A 
ATOM     24  C   UNL     1      -0.723  -1.886  -1.284  0.00  0.00    +0.076 A 
ATOM     25  C   UNL     1      -1.741  -2.100  -0.357  0.00  0.00    +0.143 A 
ATOM     26  C   UNL     1      -1.770  -1.367   0.817  0.00  0.00    +0.067 A 
ATOM     27  C   UNL     1      -0.786  -0.427   1.070  0.00  0.00    +0.047 A 
ATOM     28 CL   UNL     1      -0.820   0.487   2.546  0.00  0.00    -0.083 Cl
BRANCH  25  29
ATOM     29  O   UNL     1      -2.704  -3.028  -0.605  0.00  0.00    -0.493 OA
ATOM     30  C   UNL     1      -3.716  -3.193   0.390  0.00  0.00    +0.277 C 
ENDBRANCH  25  29
ENDBRANCH  17  24
ENDBRANCH   1  18
TORSDOF 6
