REMARK  Name = ZINC36560067
REMARK  18 active torsions:
REMARK  status: ('A' for Active; 'I' for Inactive)
REMARK    1  A    between atoms: C_1  and  C_2
REMARK    2  A    between atoms: C_2  and  C_3
REMARK    3  A    between atoms: C_3  and  C_4
REMARK    4  A    between atoms: C_4  and  N_5
REMARK    5  A    between atoms: C_6  and  C_8
REMARK    6  A    between atoms: C_8  and  C_10
REMARK    7  A    between atoms: C_8  and  N_20
REMARK    8  A    between atoms: C_13  and  O_18
REMARK    9  A    between atoms: C_14  and  O_16
REMARK   10  A    between atoms: O_16  and  C_17
REMARK   11  A    between atoms: O_18  and  C_19
REMARK   12  A    between atoms: N_20  and  C_21
REMARK   13  A    between atoms: C_21  and  C_22
REMARK   14  A    between atoms: C_22  and  C_23
REMARK   15  A    between atoms: C_24  and  C_26
REMARK   16  A    between atoms: C_32  and  O_34
REMARK   17  A    between atoms: O_34  and  C_35
REMARK   18  A    between atoms: C_35  and  C_36
REMARK                            x       y       z     vdW  Elec       q    Type
REMARK                         _______ _______ _______ _____ _____    ______ ____
ROOT
ATOM      1  N   UNL     1       3.043  -5.418   3.604  0.00  0.00    -0.284 N 
ATOM      2  C   UNL     1       4.269  -5.260   3.067  0.00  0.00    +0.237 C 
ATOM      3  O   UNL     1       4.821  -4.181   3.123  0.00  0.00    -0.274 OA
ENDROOT
BRANCH   2   4
ATOM      4  C   UNL     1       4.954  -6.423   2.396  0.00  0.00    +0.165 C 
ATOM      5  C   UNL     1       5.595  -7.339   3.460  0.00  0.00    +0.033 C 
ATOM      6  C   UNL     1       6.929  -7.766   2.792  0.00  0.00    +0.021 C 
ATOM      7  C   UNL     1       7.316  -6.479   2.021  0.00  0.00    +0.112 C 
ATOM      8  N   UNL     1       6.035  -5.933   1.528  0.00  0.00    -0.256 N 
ATOM      9  C   UNL     1       5.880  -5.123   0.463  0.00  0.00    +0.404 C 
ATOM     10  O   UNL     1       4.772  -4.734   0.150  0.00  0.00    -0.226 OA
BRANCH   9  11
ATOM     11  O   UNL     1       6.954  -4.743  -0.256  0.00  0.00    -0.445 OA
BRANCH  11  12
ATOM     12  C   UNL     1       6.717  -3.883  -1.372  0.00  0.00    +0.269 C 
BRANCH  12  13
ATOM     13  C   UNL     1       8.025  -3.567  -2.050  0.00  0.00    -0.010 A 
ATOM     14  C   UNL     1       8.764  -2.469  -1.649  0.00  0.00    +0.007 A 
ATOM     15  C   UNL     1       9.964  -2.179  -2.270  0.00  0.00    +0.000 A 
ATOM     16  C   UNL     1      10.426  -2.987  -3.292  0.00  0.00    +0.000 A 
ATOM     17  C   UNL     1       9.688  -4.086  -3.692  0.00  0.00    +0.000 A 
ATOM     18  C   UNL     1       8.490  -4.378  -3.068  0.00  0.00    +0.007 A 
ENDBRANCH  12  13
ENDBRANCH  11  12
ENDBRANCH   9  11
ENDBRANCH   2   4
BRANCH   1  19
ATOM     19  C   UNL     1       2.377  -4.288   4.256  0.00  0.00    +0.192 C 
BRANCH  19  20
ATOM     20  C   UNL     1       2.265  -4.556   5.735  0.00  0.00    -0.015 A 
ATOM     21  C   UNL     1       1.464  -5.586   6.191  0.00  0.00    +0.010 A 
ATOM     22  C   UNL     1       1.358  -5.836   7.546  0.00  0.00    +0.050 A 
ATOM     23  C   UNL     1       2.057  -5.053   8.452  0.00  0.00    +0.162 A 
ATOM     24  C   UNL     1       2.863  -4.016   7.993  0.00  0.00    +0.162 A 
ATOM     25  C   UNL     1       2.969  -3.774   6.633  0.00  0.00    +0.055 A 
BRANCH  24  26
ATOM     26  O   UNL     1       3.550  -3.244   8.877  0.00  0.00    -0.491 OA
ATOM     27  C   UNL     1       4.359  -2.198   8.335  0.00  0.00    +0.277 C 
ENDBRANCH  24  26
BRANCH  23  28
ATOM     28  O   UNL     1       1.953  -5.296   9.786  0.00  0.00    -0.491 OA
ATOM     29  C   UNL     1       1.107  -6.377  10.184  0.00  0.00    +0.277 C 
ENDBRANCH  23  28
ENDBRANCH  19  20
BRANCH  19  31
ATOM     30  N   UNL     1       0.591  -2.894   3.264  0.00  0.00    -0.313 N 
ATOM     31  C   UNL     1       0.999  -4.112   3.672  0.00  0.00    +0.238 C 
ATOM     32  O   UNL     1       0.258  -5.066   3.569  0.00  0.00    -0.273 OA
ATOM     33  H   UNL     1       1.184  -2.131   3.347  0.00  0.00    +0.149 HD
BRANCH  30  34
ATOM     34  C   UNL     1      -0.749  -2.723   2.696  0.00  0.00    +0.104 C 
BRANCH  34  35
ATOM     35  C   UNL     1      -0.958  -1.255   2.318  0.00  0.00    +0.018 C 
BRANCH  35  37
ATOM     36  C   UNL     1      -2.567   0.391   1.346  0.00  0.00    +0.004 C 
ATOM     37  C   UNL     1      -2.357  -1.076   1.725  0.00  0.00    -0.002 C 
ENDBRANCH  35  37
ENDBRANCH  34  35
ENDBRANCH  30  34
ENDBRANCH  19  31
ENDBRANCH   1  19
BRANCH   1  38
ATOM     38  C   UNL     1       2.377  -6.721   3.537  0.00  0.00    +0.108 C 
BRANCH  38  39
ATOM     39  C   UNL     1       1.851  -6.952   2.118  0.00  0.00    +0.016 C 
ATOM     40  C   UNL     1       1.020  -8.236   2.085  0.00  0.00    +0.005 C 
ENDBRANCH  38  39
ENDBRANCH   1  38
TORSDOF 14
