REMARK  Name = ZINC66092410
REMARK  11 active torsions:
REMARK  status: ('A' for Active; 'I' for Inactive)
REMARK    1  A    between atoms: C_1  and  C_2
REMARK    2  A    between atoms: C_2  and  C_4
REMARK    3  A    between atoms: C_2  and  N_10
REMARK    4  A    between atoms: C_11  and  C_13
REMARK    5  A    between atoms: C_17  and  N_19
REMARK    6  A    between atoms: C_20  and  C_22
REMARK    7  A    between atoms: C_22  and  N_23
REMARK    8  A    between atoms: N_23  and  C_24
REMARK    9  A    between atoms: C_27  and  C_30
REMARK   10  A    between atoms: N_32  and  C_33
REMARK   11  A    between atoms: N_32  and  C_34
REMARK                            x       y       z     vdW  Elec       q    Type
REMARK                         _______ _______ _______ _____ _____    ______ ____
ROOT
ATOM      1  N   UNL     1       1.022  -3.155   6.850  0.00  0.00    -0.284 N 
ATOM      2  C   UNL     1       1.539  -3.184   8.094  0.00  0.00    +0.234 C 
ATOM      3  O   UNL     1       2.712  -2.932   8.269  0.00  0.00    -0.274 OA
ATOM      4  H   UNL     1       0.070  -3.287   6.717  0.00  0.00    +0.155 HD
ENDROOT
BRANCH   1   9
ATOM      5  C   UNL     1       4.006  -3.136   4.687  0.00  0.00    +0.038 A 
ATOM      6  C   UNL     1       3.501  -2.490   3.556  0.00  0.00    +0.013 A 
ATOM      7  C   UNL     1       2.186  -2.074   3.530  0.00  0.00    +0.003 A 
ATOM      8  C   UNL     1       1.364  -2.294   4.620  0.00  0.00    +0.023 A 
ATOM      9  C   UNL     1       1.857  -2.935   5.749  0.00  0.00    +0.034 A 
ATOM     10  C   UNL     1       3.176  -3.363   5.784  0.00  0.00    +0.036 A 
BRANCH   5  12
ATOM     11  N   UNL     1       6.216  -3.363   3.656  0.00  0.00    -0.305 N 
ATOM     12  C   UNL     1       5.415  -3.583   4.718  0.00  0.00    +0.245 C 
ATOM     13  O   UNL     1       5.852  -4.149   5.701  0.00  0.00    -0.270 OA
ATOM     14  H   UNL     1       5.868  -2.911   2.872  0.00  0.00    +0.150 HD
BRANCH  11  16
ATOM     15  C   UNL     1       7.691  -5.272   3.258  0.00  0.00    +0.033 C 
ATOM     16  C   UNL     1       7.612  -3.806   3.688  0.00  0.00    +0.100 C 
BRANCH  16  17
ATOM     17  C   UNL     1       8.428  -2.961   2.744  0.00  0.00    -0.027 A 
ATOM     18  C   UNL     1       7.904  -2.589   1.520  0.00  0.00    +0.005 A 
ATOM     19  C   UNL     1       8.653  -1.814   0.654  0.00  0.00    +0.000 A 
ATOM     20  C   UNL     1       9.926  -1.410   1.013  0.00  0.00    +0.000 A 
ATOM     21  C   UNL     1      10.449  -1.781   2.237  0.00  0.00    +0.000 A 
ATOM     22  C   UNL     1       9.699  -2.553   3.104  0.00  0.00    +0.005 A 
ENDBRANCH  16  17
ENDBRANCH  11  16
ENDBRANCH   5  12
ENDBRANCH   1   9
BRANCH   2  23
ATOM     23  C   UNL     1       0.659  -3.529   9.268  0.00  0.00    +0.198 C 
BRANCH  23  24
ATOM     24  N   UNL     1       1.452  -3.492  10.500  0.00  0.00    -0.335 N 
ATOM     25  H   UNL     1       2.395  -3.268  10.463  0.00  0.00    +0.147 HD
BRANCH  24  26
ATOM     26  C   UNL     1       0.853  -3.777  11.721  0.00  0.00    +0.028 A 
ATOM     27  C   UNL     1      -0.500  -4.104  11.772  0.00  0.00    +0.023 A 
ATOM     28  C   UNL     1      -1.096  -4.387  12.979  0.00  0.00    +0.015 A 
ATOM     29  C   UNL     1      -0.342  -4.346  14.156  0.00  0.00    +0.037 A 
ATOM     30  C   UNL     1       1.016  -4.018  14.102  0.00  0.00    +0.015 A 
ATOM     31  C   UNL     1       1.607  -3.742  12.891  0.00  0.00    +0.023 A 
BRANCH  29  32
ATOM     32  C   UNL     1      -0.979  -4.649  15.452  0.00  0.00    +0.251 C 
ATOM     33  O   UNL     1      -2.175  -4.482  15.596  0.00  0.00    -0.270 OA
ATOM     34  N   UNL     1      -0.234  -5.110  16.477  0.00  0.00    -0.271 N 
ATOM     35  C   UNL     1       1.181  -5.426  16.270  0.00  0.00    +0.138 C 
BRANCH  34  36
ATOM     36  C   UNL     1      -0.813  -5.286  17.738  0.00  0.00    +0.036 A 
ATOM     37  C   UNL     1      -2.184  -5.136  17.901  0.00  0.00    +0.023 A 
ATOM     38  C   UNL     1      -2.753  -5.311  19.147  0.00  0.00    +0.002 A 
ATOM     39  C   UNL     1      -1.958  -5.634  20.232  0.00  0.00    +0.000 A 
ATOM     40  C   UNL     1      -0.593  -5.785  20.073  0.00  0.00    +0.002 A 
ATOM     41  C   UNL     1      -0.019  -5.617  18.828  0.00  0.00    +0.023 A 
ENDBRANCH  34  36
ENDBRANCH  29  32
ENDBRANCH  24  26
ENDBRANCH  23  24
ENDBRANCH   2  23
TORSDOF 9
