REMARK  Name = ZINC23153778
REMARK  5 active torsions:
REMARK  status: ('A' for Active; 'I' for Inactive)
REMARK    1  A    between atoms: C_4  and  C_7
REMARK    2  A    between atoms: C_7  and  N_8
REMARK    3  A    between atoms: C_14  and  N_19
REMARK    4  A    between atoms: C_15  and  C_16
REMARK    5  A    between atoms: C_20  and  C_22
REMARK                            x       y       z     vdW  Elec       q    Type
REMARK                         _______ _______ _______ _____ _____    ______ ____
ROOT
ATOM      1  N   UNL     1       2.859   4.194  -1.388  0.00  0.00    -0.293 NA
ATOM      2  C   UNL     1       3.982   5.141  -1.440  0.00  0.00    +0.090 C 
ATOM      3  C   UNL     1       4.632   5.111  -2.826  0.00  0.00    +0.052 C 
ATOM      4  C   UNL     1       3.536   5.293  -3.869  0.00  0.00    -0.021 A 
ATOM      5  C   UNL     1       2.241   5.092  -3.535  0.00  0.00    +0.010 A 
ATOM      6  S   UNL     1       1.336   5.411  -5.021  0.00  0.00    -0.076 S 
ATOM      7  C   UNL     1       2.656   5.804  -6.073  0.00  0.00    +0.085 A 
ATOM      8  C   UNL     1       3.767   5.679  -5.248  0.00  0.00    +0.068 A 
ATOM      9  C   UNL     1       1.723   4.687  -2.190  0.00  0.00    +0.127 C 
ENDROOT
BRANCH   8  10
ATOM     10  C   UNL     1       5.121   5.930  -5.752  0.00  0.00    +0.244 C 
ATOM     11  O   UNL     1       5.770   5.018  -6.231  0.00  0.00    -0.270 OA
ATOM     12  N   UNL     1       5.646   7.169  -5.684  0.00  0.00    -0.325 N 
ATOM     13  H   UNL     1       6.662   7.356  -6.062  0.00  0.00    +0.145 HD
ATOM     14  H   UNL     1       5.060   7.992  -5.251  0.00  0.00    +0.145 HD
ENDBRANCH   8  10
BRANCH   7  15
ATOM     15  N   UNL     1       2.614   6.156  -7.412  0.00  0.00    -0.275 N 
ATOM     16  C   UNL     1       1.430   6.225  -8.054  0.00  0.00    +0.249 C 
ATOM     17  O   UNL     1       0.400   5.978  -7.457  0.00  0.00    -0.270 OA
ATOM     18  H   UNL     1       3.546   6.379  -7.952  0.00  0.00    +0.156 HD
BRANCH  16  19
ATOM     19  C   UNL     1       1.385   6.600  -9.482  0.00  0.00    +0.037 A 
ATOM     20  C   UNL     1       2.566   6.889 -10.168  0.00  0.00    +0.014 A 
ATOM     21  C   UNL     1       2.518   7.234 -11.503  0.00  0.00    +0.016 A 
ATOM     22  C   UNL     1       1.300   7.304 -12.159  0.00  0.00    +0.018 A 
ATOM     23  C   UNL     1       0.125   7.023 -11.483  0.00  0.00    +0.016 A 
ATOM     24  C   UNL     1       0.161   6.672 -10.149  0.00  0.00    +0.014 A 
ATOM     25 BR   UNL     1       1.242   7.783 -13.988  0.00  0.00    -0.050 Br
ENDBRANCH  16  19
ENDBRANCH   7  15
BRANCH   1  26
ATOM     26  C   UNL     1       2.451   3.937  -0.001  0.00  0.00    +0.120 C 
BRANCH  26  30
ATOM     27  C   UNL     1      -1.219   1.751   0.017  0.00  0.00    +0.000 A 
ATOM     28  C   UNL     1      -0.013   1.076   0.008  0.00  0.00    +0.000 A 
ATOM     29  C   UNL     1       1.175   1.783   0.000  0.00  0.00    +0.005 A 
ATOM     30  C   UNL     1       1.156   3.165   0.008  0.00  0.00    -0.033 A 
ATOM     31  C   UNL     1      -0.050   3.840   0.023  0.00  0.00    +0.005 A 
ATOM     32  C   UNL     1      -1.238   3.133   0.030  0.00  0.00    +0.000 A 
ENDBRANCH  26  30
ENDBRANCH   1  26
TORSDOF 5
