REMARK  Name = ZINC12642171
REMARK  7 active torsions:
REMARK  status: ('A' for Active; 'I' for Inactive)
REMARK    1  A    between atoms: C_1  and  C_2
REMARK    2  A    between atoms: C_9  and  C_11
REMARK    3  A    between atoms: N_13  and  C_14
REMARK    4  A    between atoms: N_22  and  C_34
REMARK    5  A    between atoms: C_23  and  C_25
REMARK    6  A    between atoms: N_27  and  C_28
REMARK    7  A    between atoms: C_34  and  C_35
REMARK                            x       y       z     vdW  Elec       q    Type
REMARK                         _______ _______ _______ _____ _____    ______ ____
ROOT
ATOM      1  C   UNL     1       2.522  -4.027  -0.425  0.00  0.00    +0.047 C 
ATOM      2  C   UNL     1       2.155  -4.681  -1.758  0.00  0.00    +0.098 C 
ATOM      3  C   UNL     1       2.035  -6.209  -1.732  0.00  0.00    +0.007 C 
ATOM      4  C   UNL     1       2.215  -6.643  -2.986  0.00  0.00    +0.009 C 
ATOM      5  C   UNL     1       2.400  -5.393  -3.769  0.00  0.00    +0.127 C 
ATOM      6  O   UNL     1       3.118  -4.492  -2.857  0.00  0.00    -0.355 OA
ATOM      7  C   UNL     1       1.005  -4.676  -3.874  0.00  0.00    +0.128 C 
ATOM      8  C   UNL     1       0.858  -4.135  -2.441  0.00  0.00    +0.125 C 
ATOM      9  C   UNL     1       1.265  -3.661  -4.927  0.00  0.00    +0.223 C 
ATOM     10  O   UNL     1       0.665  -2.615  -5.058  0.00  0.00    -0.275 OA
ATOM     11  N   UNL     1       2.287  -4.084  -5.715  0.00  0.00    -0.284 N 
ATOM     12  C   UNL     1       2.873  -5.340  -5.188  0.00  0.00    +0.198 C 
ENDROOT
BRANCH   8  13
ATOM     13  C   UNL     1       0.838  -2.628  -2.432  0.00  0.00    +0.220 C 
ATOM     14  O   UNL     1       1.874  -2.007  -2.542  0.00  0.00    -0.275 OA
ATOM     15  N   UNL     1      -0.332  -1.971  -2.303  0.00  0.00    -0.312 N 
ATOM     16  H   UNL     1      -1.160  -2.468  -2.216  0.00  0.00    +0.149 HD
BRANCH  15  17
ATOM     17  C   UNL     1      -0.351  -0.506  -2.295  0.00  0.00    +0.073 C 
ATOM     18  C   UNL     1      -1.724  -0.012  -2.758  0.00  0.00    +0.022 C 
ATOM     19  C   UNL     1      -1.744   1.518  -2.750  0.00  0.00    +0.002 C 
ATOM     20  C   UNL     1      -1.472   2.023  -1.332  0.00  0.00    +0.000 C 
ATOM     21  C   UNL     1      -0.100   1.530  -0.869  0.00  0.00    +0.002 C 
ATOM     22  C   UNL     1      -0.079  -0.000  -0.877  0.00  0.00    +0.022 C 
ENDBRANCH  15  17
ENDBRANCH   8  13
BRANCH  12  23
ATOM     23  C   UNL     1       2.360  -6.528  -5.961  0.00  0.00    +0.237 C 
ATOM     24  O   UNL     1       1.392  -6.409  -6.683  0.00  0.00    -0.274 OA
ATOM     25  N   UNL     1       2.975  -7.721  -5.850  0.00  0.00    -0.311 N 
ATOM     26  H   UNL     1       3.749  -7.816  -5.272  0.00  0.00    +0.149 HD
BRANCH  25  27
ATOM     27  C   UNL     1       2.476  -8.876  -6.601  0.00  0.00    +0.073 C 
ATOM     28  C   UNL     1       1.350  -9.548  -5.814  0.00  0.00    +0.022 C 
ATOM     29  C   UNL     1       0.828 -10.754  -6.599  0.00  0.00    +0.002 C 
ATOM     30  C   UNL     1       1.967 -11.753  -6.814  0.00  0.00    +0.000 C 
ATOM     31  C   UNL     1       3.093 -11.081  -7.602  0.00  0.00    +0.002 C 
ATOM     32  C   UNL     1       3.615  -9.875  -6.817  0.00  0.00    +0.022 C 
ENDBRANCH  25  27
ENDBRANCH  12  23
BRANCH  11  33
ATOM     33  C   UNL     1       2.747  -3.393  -6.922  0.00  0.00    +0.140 C 
BRANCH  33  34
ATOM     34  C   UNL     1       1.979  -3.919  -8.136  0.00  0.00    +0.136 C 
ATOM     35  C   UNL     1       2.534  -3.296  -9.435  0.00  0.00    +0.035 C 
ATOM     36  C   UNL     1       1.281  -3.077 -10.312  0.00  0.00    +0.031 C 
ATOM     37  C   UNL     1       0.117  -3.594  -9.438  0.00  0.00    +0.160 C 
ATOM     38  O   UNL     1       0.600  -3.492  -8.081  0.00  0.00    -0.375 OA
ENDBRANCH  33  34
ENDBRANCH  11  33
TORSDOF 6
