REMARK  Name = ZINC50654124
REMARK  3 active torsions:
REMARK  status: ('A' for Active; 'I' for Inactive)
REMARK    1  A    between atoms: C_4  and  N_8
REMARK    2  A    between atoms: N_8  and  S_9
REMARK    3  A    between atoms: S_9  and  C_12
REMARK                            x       y       z     vdW  Elec       q    Type
REMARK                         _______ _______ _______ _____ _____    ______ ____
ROOT
ATOM      1  S   UNL     1       3.645  -2.309  -0.047  0.00  0.00    +0.095 S 
ATOM      2  O   UNL     1       3.113  -2.729   1.202  0.00  0.00    -0.148 OA
ATOM      3  O   UNL     1       3.088  -2.716  -1.288  0.00  0.00    -0.148 OA
ENDROOT
BRANCH   1   4
ATOM      4  C   UNL     1       5.336  -2.805  -0.067  0.00  0.00    +0.146 A 
ATOM      5  C   UNL     1       6.005  -2.993  -1.266  0.00  0.00    +0.144 A 
ATOM      6  N   UNL     1       7.274  -3.366  -1.246  0.00  0.00    -0.221 NA
ATOM      7  C   UNL     1       7.904  -3.560  -0.097  0.00  0.00    +0.213 A 
ATOM      8  N   UNL     1       7.294  -3.389   1.066  0.00  0.00    -0.221 NA
ATOM      9  C   UNL     1       6.027  -3.011   1.117  0.00  0.00    +0.144 A 
ATOM     10  N   UNL     1       9.232  -3.950  -0.113  0.00  0.00    -0.327 N 
ATOM     11  H   UNL     1       9.690  -4.078  -0.959  0.00  0.00    +0.145 HD
ATOM     12  H   UNL     1       9.705  -4.095   0.721  0.00  0.00    +0.145 HD
ENDBRANCH   1   4
BRANCH   1  13
ATOM     13  N   UNL     1       3.622  -0.653  -0.037  0.00  0.00    -0.095 NA
BRANCH  13  17
ATOM     14  C   UNL     1      -0.017   1.379   0.010  0.00  0.00    +0.023 A 
ATOM     15  C   UNL     1       1.170   2.090   0.002  0.00  0.00    +0.042 A 
ATOM     16  C   UNL     1       2.379   1.420  -0.013  0.00  0.00    +0.148 A 
ATOM     17  C   UNL     1       2.401   0.029  -0.021  0.00  0.00    +0.111 A 
ATOM     18  C   UNL     1       1.208  -0.681  -0.013  0.00  0.00    +0.049 A 
ATOM     19  C   UNL     1       0.002  -0.004   0.002  0.00  0.00    +0.043 A 
ATOM     20 CL   UNL     1      -1.490  -0.891   0.012  0.00  0.00    -0.083 Cl
ATOM     21  F   UNL     1       3.537   2.115  -0.022  0.00  0.00    -0.203 F 
ENDBRANCH  13  17
ENDBRANCH   1  13
TORSDOF 3
