REMARK  Name = ZINC49152305
REMARK  7 active torsions:
REMARK  status: ('A' for Active; 'I' for Inactive)
REMARK    1  A    between atoms: C_1  and  C_2
REMARK    2  A    between atoms: C_2  and  C_3
REMARK    3  A    between atoms: C_2  and  C_4
REMARK    4  A    between atoms: C_4  and  N_5
REMARK    5  A    between atoms: N_8  and  N_9
REMARK    6  A    between atoms: N_9  and  S_10
REMARK    7  A    between atoms: S_10  and  C_13
REMARK                            x       y       z     vdW  Elec       q    Type
REMARK                         _______ _______ _______ _____ _____    ______ ____
ROOT
ATOM      1  N   UNL     1      -3.300   0.728  -3.617  0.00  0.00    -0.107 NA
ATOM      2  H   UNL     1      -2.848   1.568  -3.442  0.00  0.00    +0.172 HD
ENDROOT
BRANCH   1   6
ATOM      3  N   UNL     1      -2.329   0.191  -1.130  0.00  0.00    -0.298 N 
ATOM      4  C   UNL     1      -3.614  -0.105  -1.409  0.00  0.00    +0.315 C 
ATOM      5  O   UNL     1      -4.322  -0.604  -0.555  0.00  0.00    -0.251 OA
ATOM      6  N   UNL     1      -4.115   0.152  -2.633  0.00  0.00    -0.216 N 
ATOM      7  H   UNL     1      -1.765   0.590  -1.811  0.00  0.00    +0.150 HD
ATOM      8  H   UNL     1      -5.040  -0.061  -2.833  0.00  0.00    +0.172 HD
BRANCH   3   9
ATOM      9  C   UNL     1      -1.785  -0.088   0.201  0.00  0.00    +0.108 C 
BRANCH   9  11
ATOM     10  C   UNL     1      -0.222   1.857   0.086  0.00  0.00    +0.009 C 
ATOM     11  C   UNL     1      -0.317   0.339   0.252  0.00  0.00    -0.000 C 
ATOM     12  C   UNL     1       0.286  -0.066   1.599  0.00  0.00    +0.009 C 
ENDBRANCH   9  11
ENDBRANCH   3   9
ENDBRANCH   1   6
BRANCH   1  13
ATOM     13  S   UNL     1      -3.107  -0.027  -5.078  0.00  0.00    +0.075 S 
ATOM     14  O   UNL     1      -2.362   0.861  -5.899  0.00  0.00    -0.152 OA
ATOM     15  O   UNL     1      -2.673  -1.351  -4.798  0.00  0.00    -0.152 OA
BRANCH  13  16
ATOM     16  C   UNL     1      -4.706  -0.165  -5.807  0.00  0.00    +0.122 A 
ATOM     17  C   UNL     1      -5.260  -1.412  -6.026  0.00  0.00    +0.045 A 
ATOM     18  C   UNL     1      -6.514  -1.521  -6.598  0.00  0.00    +0.020 A 
ATOM     19  C   UNL     1      -7.214  -0.381  -6.952  0.00  0.00    +0.016 A 
ATOM     20  C   UNL     1      -6.660   0.866  -6.733  0.00  0.00    +0.018 A 
ATOM     21  C   UNL     1      -5.408   0.974  -6.155  0.00  0.00    +0.044 A 
ATOM     22 BR   UNL     1      -4.652   2.681  -5.849  0.00  0.00    -0.048 Br
ATOM     23 BR   UNL     1      -7.272  -3.227  -6.899  0.00  0.00    -0.050 Br
ENDBRANCH  13  16
ENDBRANCH   1  13
TORSDOF 5
