REMARK  Name = ZINC16749487
REMARK  7 active torsions:
REMARK  status: ('A' for Active; 'I' for Inactive)
REMARK    1  A    between atoms: C_1  and  C_2
REMARK    2  A    between atoms: C_7  and  S_32
REMARK    3  A    between atoms: C_12  and  C_14
REMARK    4  A    between atoms: C_14  and  O_15
REMARK    5  A    between atoms: O_15  and  C_16
REMARK    6  A    between atoms: C_16  and  C_18
REMARK    7  A    between atoms: S_32  and  N_35
REMARK                            x       y       z     vdW  Elec       q    Type
REMARK                         _______ _______ _______ _____ _____    ______ ____
ROOT
ATOM      1  C   UNL     1      -1.326   0.456  -2.045  0.00  0.00    +0.029 C 
ATOM      2  C   UNL     1      -0.803   1.618  -1.199  0.00  0.00    +0.083 C 
ATOM      3  C   UNL     1      -0.013   1.086   0.008  0.00  0.00    +0.059 C 
ATOM      4  C   UNL     1      -0.767   1.596   1.215  0.00  0.00    -0.022 A 
ATOM      5  C   UNL     1      -0.533   1.438   2.566  0.00  0.00    +0.034 A 
ATOM      6  C   UNL     1      -1.384   2.011   3.491  0.00  0.00    +0.105 A 
ATOM      7  C   UNL     1      -2.474   2.746   3.061  0.00  0.00    +0.030 A 
ATOM      8  C   UNL     1      -2.714   2.907   1.713  0.00  0.00    +0.026 A 
ATOM      9  C   UNL     1      -1.859   2.331   0.772  0.00  0.00    +0.040 A 
ATOM     10  N   UNL     1      -1.920   2.372  -0.624  0.00  0.00    -0.265 N 
ATOM     11  C   UNL     1      -2.869   3.010  -1.337  0.00  0.00    +0.258 C 
ATOM     12  O   UNL     1      -2.836   2.987  -2.549  0.00  0.00    -0.271 OA
ENDROOT
BRANCH   6  13
ATOM     13  S   UNL     1      -1.081   1.807   5.215  0.00  0.00    +0.056 S 
ATOM     14  O   UNL     1       0.306   1.536   5.354  0.00  0.00    -0.153 OA
ATOM     15  O   UNL     1      -1.714   2.898   5.870  0.00  0.00    -0.153 OA
BRANCH  13  16
ATOM     16  N   UNL     1      -1.882   0.439   5.694  0.00  0.00    -0.204 NA
ATOM     17  H   UNL     1      -2.393  -0.075   5.050  0.00  0.00    +0.144 HD
ATOM     18  H   UNL     1      -1.839   0.151   6.620  0.00  0.00    +0.144 HD
ENDBRANCH  13  16
ENDBRANCH   6  13
BRANCH  11  19
ATOM     19  C   UNL     1      -3.971   3.754  -0.628  0.00  0.00    +0.328 C 
BRANCH  19  20
ATOM     20  O   UNL     1      -4.860   4.352  -1.609  0.00  0.00    -0.452 OA
BRANCH  20  21
ATOM     21  C   UNL     1      -5.907   5.058  -1.135  0.00  0.00    +0.341 C 
ATOM     22  O   UNL     1      -6.073   5.171   0.064  0.00  0.00    -0.245 OA
BRANCH  21  23
ATOM     23  C   UNL     1      -6.847   5.690  -2.067  0.00  0.00    +0.074 A 
ATOM     24  C   UNL     1      -7.981   4.987  -2.525  0.00  0.00    -0.003 A 
ATOM     25  C   UNL     1      -8.237   3.672  -2.101  0.00  0.00    +0.009 A 
ATOM     26  C   UNL     1      -9.339   3.020  -2.561  0.00  0.00    +0.001 A 
ATOM     27  C   UNL     1     -10.229   3.625  -3.447  0.00  0.00    +0.001 A 
ATOM     28  C   UNL     1     -10.045   4.898  -3.885  0.00  0.00    +0.008 A 
ATOM     29  C   UNL     1      -8.917   5.627  -3.451  0.00  0.00    -0.017 A 
ATOM     30  C   UNL     1      -8.688   6.930  -3.896  0.00  0.00    +0.017 A 
ATOM     31  C   UNL     1      -7.566   7.631  -3.453  0.00  0.00    -0.017 A 
ATOM     32  C   UNL     1      -6.624   7.007  -2.522  0.00  0.00    -0.003 A 
ATOM     33  C   UNL     1      -5.504   7.741  -2.096  0.00  0.00    +0.009 A 
ATOM     34  C   UNL     1      -5.317   9.008  -2.554  0.00  0.00    +0.001 A 
ATOM     35  C   UNL     1      -6.213   9.605  -3.440  0.00  0.00    +0.001 A 
ATOM     36  C   UNL     1      -7.314   8.949  -3.890  0.00  0.00    +0.008 A 
ENDBRANCH  21  23
ENDBRANCH  20  21
ENDBRANCH  19  20
ENDBRANCH  11  19
TORSDOF 6
