REMARK  Name = ZINC39977540
REMARK  6 active torsions:
REMARK  status: ('A' for Active; 'I' for Inactive)
REMARK    1  A    between atoms: C_1  and  C_2
REMARK    2  A    between atoms: N_4  and  C_5
REMARK    3  A    between atoms: C_8  and  S_11
REMARK    4  A    between atoms: S_11  and  N_14
REMARK    5  A    between atoms: C_16  and  N_26
REMARK    6  A    between atoms: N_26  and  C_27
REMARK                            x       y       z     vdW  Elec       q    Type
REMARK                         _______ _______ _______ _____ _____    ______ ____
ROOT
ATOM      1  N   UNL     1      -1.980  -6.901  -1.084  0.00  0.00    -0.110 NA
ATOM      2  C   UNL     1      -2.269  -8.167  -1.023  0.00  0.00    +0.192 C 
ATOM      3  C   UNL     1      -3.710  -8.626  -1.031  0.00  0.00    +0.237 C 
ATOM      4  N   UNL     1      -3.971 -10.072  -0.960  0.00  0.00    -0.359 N 
ATOM      5  C   UNL     1      -2.954 -10.886  -0.894  0.00  0.00    +0.063 A 
ATOM      6  C   UNL     1      -3.160 -12.339  -0.821  0.00  0.00    +0.027 A 
ATOM      7  C   UNL     1      -2.082 -13.150  -0.754  0.00  0.00    +0.002 A 
ATOM      8  C   UNL     1      -0.773 -12.640  -0.751  0.00  0.00    +0.002 A 
ATOM      9  C   UNL     1      -0.504 -11.317  -0.816  0.00  0.00    +0.030 A 
ATOM     10  C   UNL     1      -1.561 -10.374  -0.890  0.00  0.00    +0.089 A 
ATOM     11  N   UNL     1      -1.293  -9.087  -0.957  0.00  0.00    -0.226 NA
ATOM     12  H   UNL     1      -4.879 -10.413  -0.962  0.00  0.00    +0.162 HD
ENDROOT
BRANCH   1  13
ATOM     13  S   UNL     1      -0.398  -6.412  -1.081  0.00  0.00    +0.100 S 
ATOM     14  O   UNL     1       0.175  -6.883  -2.293  0.00  0.00    -0.146 OA
ATOM     15  O   UNL     1       0.130  -6.753   0.194  0.00  0.00    -0.146 OA
BRANCH  13  19
ATOM     16  C   UNL     1      -0.392  -1.890  -1.319  0.00  0.00    +0.033 A 
ATOM     17  C   UNL     1      -0.415  -2.521  -0.083  0.00  0.00    +0.025 A 
ATOM     18  C   UNL     1      -0.416  -3.901  -0.013  0.00  0.00    +0.031 A 
ATOM     19  C   UNL     1      -0.396  -4.653  -1.174  0.00  0.00    +0.113 A 
ATOM     20  C   UNL     1      -0.373  -4.027  -2.406  0.00  0.00    +0.031 A 
ATOM     21  C   UNL     1      -0.377  -2.648  -2.483  0.00  0.00    +0.025 A 
BRANCH  16  25
ATOM     22  C   UNL     1      -1.139   1.635  -2.409  0.00  0.00    +0.109 C 
ATOM     23  C   UNL     1      -1.051   0.131  -2.389  0.00  0.00    +0.214 C 
ATOM     24  O   UNL     1      -1.575  -0.519  -3.269  0.00  0.00    -0.276 OA
ATOM     25  N   UNL     1      -0.391  -0.492  -1.393  0.00  0.00    -0.286 N 
ATOM     26  H   UNL     1       0.085   0.028  -0.727  0.00  0.00    +0.155 HD
ENDBRANCH  16  25
ENDBRANCH  13  19
ENDBRANCH   1  13
BRANCH   3  27
ATOM     27  N   UNL     1      -4.387  -7.994   0.104  0.00  0.00    -0.318 N 
ATOM     28  H   UNL     1      -3.950  -7.956   0.969  0.00  0.00    +0.148 HD
BRANCH  27  29
ATOM     29  C   UNL     1      -5.661  -7.446  -0.060  0.00  0.00    +0.030 A 
ATOM     30  C   UNL     1      -6.253  -7.424  -1.317  0.00  0.00    +0.023 A 
ATOM     31  C   UNL     1      -7.513  -6.882  -1.476  0.00  0.00    +0.003 A 
ATOM     32  C   UNL     1      -8.187  -6.361  -0.387  0.00  0.00    +0.020 A 
ATOM     33  C   UNL     1      -7.601  -6.381   0.867  0.00  0.00    +0.043 A 
ATOM     34  C   UNL     1      -6.342  -6.928   1.034  0.00  0.00    +0.043 A 
ATOM     35 CL   UNL     1      -8.449  -5.726   2.232  0.00  0.00    -0.083 Cl
ENDBRANCH  27  29
ENDBRANCH   3  27
TORSDOF 5
