REMARK  Name = ZINC58941305
REMARK  6 active torsions:
REMARK  status: ('A' for Active; 'I' for Inactive)
REMARK    1  A    between atoms: C_4  and  N_7
REMARK    2  A    between atoms: C_8  and  C_10
REMARK    3  A    between atoms: C_10  and  C_11
REMARK    4  A    between atoms: N_15  and  C_29
REMARK    5  A    between atoms: N_18  and  N_19
REMARK    6  A    between atoms: C_20  and  C_22
REMARK                            x       y       z     vdW  Elec       q    Type
REMARK                         _______ _______ _______ _____ _____    ______ ____
ROOT
ATOM      1  C   UNL     1       4.707  -4.229   0.248  0.00  0.00    +0.191 C 
ATOM      2  C   UNL     1       6.017  -4.989   0.308  0.00  0.00    +0.248 C 
ATOM      3  O   UNL     1       6.888  -5.016  -0.535  0.00  0.00    -0.273 OA
ATOM      4  N   UNL     1       6.013  -5.628   1.495  0.00  0.00    -0.219 N 
ATOM      5  C   UNL     1       4.894  -5.380   2.185  0.00  0.00    +0.164 C 
ATOM      6  S   UNL     1       4.565  -6.035   3.732  0.00  0.00    -0.016 S 
ATOM      7  N   UNL     1       4.052  -4.559   1.525  0.00  0.00    -0.218 N 
ENDROOT
BRANCH   4   8
ATOM      8  C   UNL     1       7.052  -6.453   1.950  0.00  0.00    +0.043 A 
ATOM      9  C   UNL     1       8.301  -5.910   2.222  0.00  0.00    +0.027 A 
ATOM     10  C   UNL     1       9.323  -6.723   2.670  0.00  0.00    +0.040 A 
ATOM     11  C   UNL     1       9.104  -8.079   2.847  0.00  0.00    +0.124 A 
ATOM     12  C   UNL     1       7.859  -8.622   2.575  0.00  0.00    +0.040 A 
ATOM     13  C   UNL     1       6.833  -7.811   2.133  0.00  0.00    +0.027 A 
ATOM     14  F   UNL     1      10.106  -8.873   3.284  0.00  0.00    -0.205 F 
ENDBRANCH   4   8
BRANCH   7  15
ATOM     15  N   UNL     1       2.802  -4.105   1.966  0.00  0.00    -0.228 N 
ATOM     16  C   UNL     1       1.740  -4.935   1.951  0.00  0.00    +0.260 C 
ATOM     17  O   UNL     1       1.867  -6.077   1.555  0.00  0.00    -0.269 OA
ATOM     18  H   UNL     1       2.700  -3.194   2.283  0.00  0.00    +0.173 HD
BRANCH  16  19
ATOM     19  C   UNL     1       0.421  -4.457   2.416  0.00  0.00    +0.038 A 
ATOM     20  C   UNL     1       0.271  -3.144   2.867  0.00  0.00    +0.014 A 
ATOM     21  C   UNL     1      -0.962  -2.704   3.300  0.00  0.00    +0.021 A 
ATOM     22  C   UNL     1      -2.050  -3.561   3.288  0.00  0.00    +0.041 A 
ATOM     23  C   UNL     1      -1.907  -4.864   2.842  0.00  0.00    +0.021 A 
ATOM     24  C   UNL     1      -0.680  -5.315   2.402  0.00  0.00    +0.014 A 
ATOM     25 CL   UNL     1      -3.599  -2.999   3.834  0.00  0.00    -0.084 Cl
ENDBRANCH  16  19
ENDBRANCH   7  15
BRANCH   1  26
ATOM     26  C   UNL     1       4.962  -2.724   0.146  0.00  0.00    +0.129 C 
BRANCH  26  28
ATOM     27  N   UNL     1       3.624  -0.652  -0.047  0.00  0.00    -0.285 N 
ATOM     28  C   UNL     1       3.646  -1.996   0.051  0.00  0.00    +0.220 C 
ATOM     29  O   UNL     1       2.606  -2.620   0.063  0.00  0.00    -0.275 OA
ATOM     30  H   UNL     1       4.456  -0.158  -0.123  0.00  0.00    +0.155 HD
BRANCH  27  34
ATOM     31  C   UNL     1      -0.012   1.381  -0.026  0.00  0.00    +0.000 A 
ATOM     32  C   UNL     1       1.099   1.947   0.572  0.00  0.00    +0.002 A 
ATOM     33  C   UNL     1       2.305   1.276   0.567  0.00  0.00    +0.023 A 
ATOM     34  C   UNL     1       2.403   0.030  -0.040  0.00  0.00    +0.033 A 
ATOM     35  C   UNL     1       1.286  -0.536  -0.639  0.00  0.00    +0.023 A 
ATOM     36  C   UNL     1       0.082   0.140  -0.631  0.00  0.00    +0.002 A 
ENDBRANCH  27  34
ENDBRANCH  26  28
ENDBRANCH   1  26
TORSDOF 6
