REMARK  Name = ZINC04269869
REMARK  7 active torsions:
REMARK  status: ('A' for Active; 'I' for Inactive)
REMARK    1  A    between atoms: C_1  and  C_2
REMARK    2  A    between atoms: C_2  and  O_3
REMARK    3  A    between atoms: O_3  and  C_4
REMARK    4  A    between atoms: C_4  and  C_6
REMARK    5  A    between atoms: C_8  and  C_20
REMARK    6  A    between atoms: C_14  and  C_15
REMARK    7  A    between atoms: C_14  and  O_19
REMARK                            x       y       z     vdW  Elec       q    Type
REMARK                         _______ _______ _______ _____ _____    ______ ____
ROOT
ATOM      1  C   UNL     1      -2.172   1.361   1.279  0.00  0.00    +0.181 C 
ATOM      2  C   UNL     1      -2.924   1.972   0.092  0.00  0.00    +0.121 C 
ATOM      3  N   UNL     1      -2.829   3.431   0.162  0.00  0.00    -0.319 N 
ATOM      4  C   UNL     1      -1.776   4.035   0.731  0.00  0.00    +0.133 C 
ATOM      5  S   UNL     1      -1.728   5.746   0.763  0.00  0.00    -0.019 S 
ATOM      6  N   UNL     1      -0.756   3.352   1.276  0.00  0.00    -0.291 N 
ATOM      7  C   UNL     1      -0.733   1.888   1.268  0.00  0.00    +0.244 C 
ATOM      8  H   UNL     1      -3.543   3.972  -0.210  0.00  0.00    +0.148 HD
ATOM      9  H   UNL     1      -0.021   3.837   1.683  0.00  0.00    +0.151 HD
ENDROOT
BRANCH   2  10
ATOM     10  C   UNL     1      -4.372   1.558   0.145  0.00  0.00    -0.019 A 
ATOM     11  C   UNL     1      -5.310   2.413   0.636  0.00  0.00    +0.006 A 
ATOM     12  C   UNL     1      -6.654   2.047   0.693  0.00  0.00    +0.001 A 
ATOM     13  C   UNL     1      -7.067   0.825   0.260  0.00  0.00    +0.008 A 
ATOM     14  C   UNL     1      -6.127  -0.085  -0.253  0.00  0.00    -0.018 A 
ATOM     15  C   UNL     1      -4.761   0.289  -0.316  0.00  0.00    -0.013 A 
ATOM     16  C   UNL     1      -3.821  -0.619  -0.834  0.00  0.00    +0.009 A 
ATOM     17  C   UNL     1      -4.235  -1.839  -1.272  0.00  0.00    +0.001 A 
ATOM     18  C   UNL     1      -5.579  -2.205  -1.215  0.00  0.00    +0.001 A 
ATOM     19  C   UNL     1      -6.515  -1.356  -0.710  0.00  0.00    +0.008 A 
ENDBRANCH   2  10
BRANCH   7  20
ATOM     20  C   UNL     1      -0.017   1.395   0.010  0.00  0.00    +0.436 C 
ATOM     21  F   UNL     1       0.002  -0.004   0.002  0.00  0.00    -0.166 F 
ATOM     22  F   UNL     1       1.296   1.879  -0.000  0.00  0.00    -0.166 F 
ATOM     23  F   UNL     1      -0.694   1.858  -1.124  0.00  0.00    -0.166 F 
ENDBRANCH   7  20
BRANCH   1  24
ATOM     24  C   UNL     1      -2.846   1.756   2.567  0.00  0.00    +0.317 C 
ATOM     25  O   UNL     1      -3.839   2.444   2.543  0.00  0.00    -0.250 OA
BRANCH  24  26
ATOM     26  O   UNL     1      -2.344   1.345   3.742  0.00  0.00    -0.465 OA
BRANCH  26  28
ATOM     27  C   UNL     1      -2.330   1.202   6.173  0.00  0.00    +0.048 C 
ATOM     28  C   UNL     1      -3.045   1.763   4.942  0.00  0.00    +0.229 C 
ENDBRANCH  26  28
ENDBRANCH  24  26
ENDBRANCH   1  24
BRANCH   7  29
ATOM     29  O   UNL     1      -0.043   1.415   2.427  0.00  0.00    -0.364 OA
ATOM     30  H   UNL     1       0.875   1.713   2.486  0.00  0.00    +0.212 HD
ENDBRANCH   7  29
TORSDOF 6
