REMARK  Name = ZINC62828015
REMARK  5 active torsions:
REMARK  status: ('A' for Active; 'I' for Inactive)
REMARK    1  A    between atoms: C_1  and  C_2
REMARK    2  A    between atoms: C_3  and  C_20
REMARK    3  A    between atoms: C_5  and  N_10
REMARK    4  A    between atoms: C_6  and  C_7
REMARK    5  A    between atoms: N_13  and  C_14
REMARK                            x       y       z     vdW  Elec       q    Type
REMARK                         _______ _______ _______ _____ _____    ______ ____
ROOT
ATOM      1  N   UNL     1       0.054  -3.122   2.078  0.00  0.00    -0.263 N 
ATOM      2  C   UNL     1       0.071  -4.430   1.754  0.00  0.00    +0.304 C 
ATOM      3  O   UNL     1       0.070  -4.767   0.586  0.00  0.00    -0.252 OA
ATOM      4  N   UNL     1       0.088  -5.364   2.725  0.00  0.00    -0.296 N 
ATOM      5  H   UNL     1       0.055  -2.852   3.009  0.00  0.00    +0.157 HD
ATOM      6  H   UNL     1       0.088  -5.095   3.657  0.00  0.00    +0.151 HD
ENDROOT
BRANCH   1  11
ATOM      7  C   UNL     1      -0.018   1.503   0.010  0.00  0.00    +0.045 C 
ATOM      8  C   UNL     1       0.002  -0.004   0.002  0.00  0.00    -0.025 A 
ATOM      9  C   UNL     1       0.007  -0.712  -1.141  0.00  0.00    -0.008 A 
ATOM     10  S   UNL     1       0.033  -2.400  -0.581  0.00  0.00    -0.078 S 
ATOM     11  C   UNL     1       0.037  -2.162   1.080  0.00  0.00    +0.088 A 
ATOM     12  C   UNL     1       0.024  -0.779   1.224  0.00  0.00    +0.095 A 
ATOM     13  C   UNL     1      -0.007  -0.198  -2.558  0.00  0.00    +0.052 C 
BRANCH  12  14
ATOM     14  C   UNL     1       0.028  -0.161   2.499  0.00  0.00    +0.389 C 
ATOM     15  O   UNL     1       0.012   1.061   2.588  0.00  0.00    -0.240 OA
ATOM     16  O   UNL     1       0.047  -0.848   3.513  0.00  0.00    -0.240 OA
ENDBRANCH  12  14
ENDBRANCH   1  11
BRANCH   4  17
ATOM     17  C   UNL     1       0.106  -6.786   2.373  0.00  0.00    +0.079 C 
ATOM     18  C   UNL     1      -1.328  -7.276   2.145  0.00  0.00    +0.050 C 
ATOM     19  C   UNL     1      -1.306  -8.779   1.856  0.00  0.00    +0.161 C 
ATOM     20  O   UNL     1      -0.683  -9.463   2.945  0.00  0.00    -0.380 OA
ATOM     21  C   UNL     1       0.674  -9.080   3.175  0.00  0.00    +0.161 C 
ATOM     22  C   UNL     1       0.732  -7.589   3.518  0.00  0.00    +0.050 C 
ENDBRANCH   4  17
TORSDOF 3
