REMARK  Name = ZINC09383371
REMARK  11 active torsions:
REMARK  status: ('A' for Active; 'I' for Inactive)
REMARK    1  A    between atoms: C_1  and  C_2
REMARK    2  A    between atoms: C_2  and  N_3
REMARK    3  A    between atoms: N_3  and  C_4
REMARK    4  A    between atoms: N_3  and  S_10
REMARK    5  A    between atoms: S_10  and  C_13
REMARK    6  A    between atoms: C_16  and  C_19
REMARK    7  A    between atoms: N_21  and  C_22
REMARK    8  A    between atoms: C_23  and  C_33
REMARK    9  A    between atoms: C_30  and  C_31
REMARK   10  A    between atoms: C_30  and  C_32
REMARK   11  A    between atoms: C_30  and  N_63
REMARK                            x       y       z     vdW  Elec       q    Type
REMARK                         _______ _______ _______ _____ _____    ______ ____
ROOT
ATOM      1  C   UNL     1      -0.795   1.238  -0.973  0.00  0.00    +0.249 C 
ATOM      2  O   UNL     1      -0.712   2.443  -1.108  0.00  0.00    -0.270 OA
ATOM      3  N   UNL     1       0.316   0.476  -1.026  0.00  0.00    -0.275 N 
ATOM      4  H   UNL     1       0.249  -0.486  -0.917  0.00  0.00    +0.156 HD
ENDROOT
BRANCH   3   5
ATOM      5  C   UNL     1       1.552   1.066  -1.240  0.00  0.00    +0.090 A 
ATOM      6  C   UNL     1       2.796   0.456  -1.325  0.00  0.00    +0.083 A 
ATOM      7  C   UNL     1       3.945   1.308  -1.561  0.00  0.00    -0.022 A 
ATOM      8  C   UNL     1       3.673   2.630  -1.663  0.00  0.00    -0.021 A 
ATOM      9  S   UNL     1       1.920   2.746  -1.459  0.00  0.00    -0.079 S 
ATOM     10  C   UNL     1       4.665   3.726  -1.897  0.00  0.00    -0.035 C 
ATOM     11  C   UNL     1       6.210   1.915  -2.350  0.00  0.00    -0.073 C 
ATOM     12  C   UNL     1       5.380   0.811  -1.688  0.00  0.00    +0.019 C 
ATOM     13  N   UNL     1       6.016   3.182  -1.615  0.00  0.00    +0.384 N 
ATOM     14  H   UNL     1       6.099   3.001  -0.608  0.00  0.00    -0.081 HD
BRANCH  13  15
ATOM     15  C   UNL     1       7.049   4.162  -2.014  0.00  0.00    -0.074 C 
ATOM     16  C   UNL     1       6.943   4.472  -3.508  0.00  0.00    -0.014 C 
ATOM     17  C   UNL     1       6.850   5.449  -1.210  0.00  0.00    -0.014 C 
ENDBRANCH  13  15
BRANCH   6  18
ATOM     18  C   UNL     1       2.938  -0.963  -1.189  0.00  0.00    +0.102 C 
ATOM     19  N   UNL     1       3.051  -2.088  -1.081  0.00  0.00    -0.191 NA
ENDBRANCH   6  18
ENDBRANCH   3   5
BRANCH   1  23
ATOM     20  C   UNL     1      -4.584  -0.571  -0.333  0.00  0.00    +0.109 A 
ATOM     21  C   UNL     1      -4.493   0.801  -0.487  0.00  0.00    +0.029 A 
ATOM     22  C   UNL     1      -3.265   1.395  -0.695  0.00  0.00    +0.015 A 
ATOM     23  C   UNL     1      -2.113   0.608  -0.750  0.00  0.00    +0.037 A 
ATOM     24  C   UNL     1      -2.213  -0.776  -0.600  0.00  0.00    +0.015 A 
ATOM     25  C   UNL     1      -3.446  -1.357  -0.387  0.00  0.00    +0.029 A 
BRANCH  20  26
ATOM     26  S   UNL     1      -6.155  -1.322  -0.067  0.00  0.00    +0.075 S 
ATOM     27  O   UNL     1      -5.910  -2.558   0.590  0.00  0.00    -0.150 OA
ATOM     28  O   UNL     1      -6.996  -0.319   0.486  0.00  0.00    -0.150 OA
BRANCH  26  29
ATOM     29  N   UNL     1      -6.779  -1.694  -1.556  0.00  0.00    -0.203 N 
BRANCH  29  30
ATOM     30  C   UNL     1      -7.662  -0.812  -2.183  0.00  0.00    +0.051 A 
ATOM     31  C   UNL     1      -7.338  -0.262  -3.416  0.00  0.00    +0.025 A 
ATOM     32  C   UNL     1      -8.216   0.605  -4.036  0.00  0.00    +0.002 A 
ATOM     33  C   UNL     1      -9.412   0.934  -3.425  0.00  0.00    +0.000 A 
ATOM     34  C   UNL     1      -9.736   0.392  -2.194  0.00  0.00    +0.002 A 
ATOM     35  C   UNL     1      -8.865  -0.480  -1.572  0.00  0.00    +0.025 A 
ENDBRANCH  29  30
BRANCH  29  37
ATOM     36  C   UNL     1      -7.454  -4.017  -1.912  0.00  0.00    +0.026 C 
ATOM     37  C   UNL     1      -6.403  -2.947  -2.215  0.00  0.00    +0.128 C 
ENDBRANCH  29  37
ENDBRANCH  26  29
ENDBRANCH  20  26
ENDBRANCH   1  23
TORSDOF 8
