REMARK  Name = ZINC36836444
REMARK  6 active torsions:
REMARK  status: ('A' for Active; 'I' for Inactive)
REMARK    1  A    between atoms: C_1  and  C_2
REMARK    2  A    between atoms: N_11  and  C_15
REMARK    3  A    between atoms: C_15  and  C_16
REMARK    4  A    between atoms: N_18  and  C_19
REMARK    5  A    between atoms: C_22  and  S_25
REMARK    6  A    between atoms: S_25  and  C_28
REMARK                            x       y       z     vdW  Elec       q    Type
REMARK                         _______ _______ _______ _____ _____    ______ ____
ROOT
ATOM      1  C   UNL     1       0.783   1.440   4.394  0.00  0.00    +0.214 C 
ENDROOT
BRANCH   1  11
ATOM      2  C   UNL     1      -0.007   1.536   0.009  0.00  0.00    +0.010 C 
ATOM      3  C   UNL     1       0.003   0.006   0.001  0.00  0.00    +0.018 C 
ATOM      4  C   UNL     1       0.717  -0.493  -1.259  0.00  0.00    +0.006 C 
ATOM      5  C   UNL     1       0.744  -2.022  -1.256  0.00  0.00    +0.000 C 
ATOM      6  C   UNL     1       1.498  -2.520  -0.022  0.00  0.00    +0.003 C 
ATOM      7  C   UNL     1       0.787  -2.029   1.242  0.00  0.00    +0.035 C 
ATOM      8  C   UNL     1       0.735  -0.505   1.237  0.00  0.00    +0.115 C 
ATOM      9  C   UNL     1       0.067   0.004   2.494  0.00  0.00    +0.247 C 
ATOM     10  O   UNL     1      -1.068  -0.211   2.860  0.00  0.00    -0.273 OA
ATOM     11  N   UNL     1       1.001   0.748   3.122  0.00  0.00    -0.215 N 
ATOM     12  C   UNL     1       2.152   0.774   2.438  0.00  0.00    +0.310 C 
ATOM     13  O   UNL     1       3.141   1.379   2.803  0.00  0.00    -0.252 OA
ATOM     14  N   UNL     1       2.090   0.057   1.300  0.00  0.00    -0.285 N 
ATOM     15  H   UNL     1       2.801  -0.066   0.651  0.00  0.00    +0.151 HD
ENDBRANCH   1  11
BRANCH   1  16
ATOM     16  C   UNL     1       1.152   0.526   5.534  0.00  0.00    +0.235 C 
ATOM     17  O   UNL     1       1.558  -0.594   5.305  0.00  0.00    -0.274 OA
ATOM     18  N   UNL     1       1.032   0.953   6.806  0.00  0.00    -0.284 N 
ATOM     19  H   UNL     1       0.772   1.869   6.988  0.00  0.00    +0.155 HD
BRANCH  18  20
ATOM     20  C   UNL     1       1.282   0.073   7.866  0.00  0.00    +0.034 A 
ATOM     21  C   UNL     1       0.535   0.160   9.033  0.00  0.00    +0.025 A 
ATOM     22  C   UNL     1       0.784  -0.709  10.077  0.00  0.00    +0.029 A 
ATOM     23  C   UNL     1       1.776  -1.665   9.961  0.00  0.00    +0.088 A 
ATOM     24  C   UNL     1       2.522  -1.754   8.800  0.00  0.00    +0.029 A 
ATOM     25  C   UNL     1       2.274  -0.892   7.750  0.00  0.00    +0.025 A 
BRANCH  23  26
ATOM     26  S   UNL     1       2.091  -2.772  11.295  0.00  0.00    -0.006 S 
ATOM     27  O   UNL     1       3.452  -3.151  11.139  0.00  0.00    -0.170 OA
ATOM     28  O   UNL     1       1.662  -2.074  12.455  0.00  0.00    -0.170 OA
ATOM     29  C   UNL     1       1.008  -4.195  10.986  0.00  0.00    +0.200 C 
ENDBRANCH  23  26
ENDBRANCH  18  20
ENDBRANCH   1  16
TORSDOF 4
