REMARK  Name = ZINC66338335
REMARK  5 active torsions:
REMARK  status: ('A' for Active; 'I' for Inactive)
REMARK    1  A    between atoms: C_3  and  C_9
REMARK    2  A    between atoms: C_11  and  C_14
REMARK    3  A    between atoms: N_16  and  N_17
REMARK    4  A    between atoms: N_20  and  C_21
REMARK    5  A    between atoms: C_21  and  C_22
REMARK                            x       y       z     vdW  Elec       q    Type
REMARK                         _______ _______ _______ _____ _____    ______ ____
ROOT
ATOM      1  C   UNL     1       7.290   2.124  -0.067  0.00  0.00    +0.279 C 
ATOM      2  O   UNL     1       8.197   2.934  -0.070  0.00  0.00    -0.267 OA
ATOM      3  N   UNL     1       7.566   0.805  -0.083  0.00  0.00    -0.228 N 
ATOM      4  H   UNL     1       6.843   0.158  -0.081  0.00  0.00    +0.173 HD
ENDROOT
BRANCH   3   5
ATOM      5  N   UNL     1       8.897   0.367  -0.103  0.00  0.00    -0.218 N 
ATOM      6  C   UNL     1       9.172  -0.952  -0.119  0.00  0.00    +0.316 C 
ATOM      7  O   UNL     1      10.327  -1.332  -0.137  0.00  0.00    -0.251 OA
ATOM      8  N   UNL     1       8.167  -1.851  -0.116  0.00  0.00    -0.298 N 
ATOM      9  H   UNL     1       9.620   1.014  -0.106  0.00  0.00    +0.174 HD
ATOM     10  H   UNL     1       7.246  -1.548  -0.102  0.00  0.00    +0.150 HD
BRANCH   8  11
ATOM     11  C   UNL     1       8.467  -3.284  -0.134  0.00  0.00    +0.109 C 
BRANCH  11  12
ATOM     12  C   UNL     1       7.159  -4.079  -0.125  0.00  0.00    +0.006 C 
ATOM     13  C   UNL     1       6.883  -4.972   1.085  0.00  0.00    +0.005 C 
ATOM     14  C   UNL     1       7.255  -5.600  -0.260  0.00  0.00    +0.005 C 
ENDBRANCH  11  12
ENDBRANCH   8  11
ENDBRANCH   3   5
BRANCH   1  17
ATOM     15  C   UNL     1       3.656   2.164  -0.022  0.00  0.00    +0.110 A 
ATOM     16  N   UNL     1       4.896   1.708  -0.042  0.00  0.00    -0.234 NA
ATOM     17  C   UNL     1       5.891   2.584  -0.045  0.00  0.00    +0.135 A 
ATOM     18  C   UNL     1       5.601   3.922  -0.029  0.00  0.00    +0.080 A 
ATOM     19  S   UNL     1       3.918   3.929  -0.016  0.00  0.00    -0.075 S 
BRANCH  15  22
ATOM     20  C   UNL     1      -0.017   1.380   0.010  0.00  0.00    +0.021 A 
ATOM     21  C   UNL     1       1.167   2.090   0.002  0.00  0.00    +0.013 A 
ATOM     22  C   UNL     1       2.385   1.409  -0.013  0.00  0.00    +0.026 A 
ATOM     23  C   UNL     1       2.398   0.013  -0.021  0.00  0.00    +0.052 A 
ATOM     24  C   UNL     1       1.207  -0.686  -0.013  0.00  0.00    +0.040 A 
ATOM     25  C   UNL     1       0.002  -0.004   0.002  0.00  0.00    +0.042 A 
ATOM     26 CL   UNL     1      -1.492  -0.889   0.012  0.00  0.00    -0.083 Cl
ATOM     27 CL   UNL     1       3.908  -0.843  -0.040  0.00  0.00    -0.083 Cl
ENDBRANCH  15  22
ENDBRANCH   1  17
TORSDOF 5
