REMARK  Name = ZINC37378007
REMARK  9 active torsions:
REMARK  status: ('A' for Active; 'I' for Inactive)
REMARK    1  A    between atoms: C_1  and  C_2
REMARK    2  A    between atoms: C_2  and  C_3
REMARK    3  A    between atoms: C_3  and  C_4
REMARK    4  A    between atoms: C_4  and  C_6
REMARK    5  A    between atoms: C_4  and  C_7
REMARK    6  A    between atoms: C_11  and  C_21
REMARK    7  A    between atoms: N_13  and  C_14
REMARK    8  A    between atoms: C_22  and  N_24
REMARK    9  A    between atoms: N_32  and  C_33
REMARK                            x       y       z     vdW  Elec       q    Type
REMARK                         _______ _______ _______ _____ _____    ______ ____
ROOT
ATOM      1  C   UNL     1      -2.788  -2.813   0.020  0.00  0.00    +0.136 A 
ATOM      2  N   UNL     1      -3.659  -2.491  -0.911  0.00  0.00    -0.212 NA
ATOM      3  C   UNL     1      -4.926  -2.892  -0.825  0.00  0.00    +0.169 A 
ATOM      4  C   UNL     1      -5.319  -3.668   0.284  0.00  0.00    +0.082 A 
ATOM      5  C   UNL     1      -6.693  -3.950   0.125  0.00  0.00    +0.073 A 
ATOM      6  N   UNL     1      -7.104  -3.397  -0.981  0.00  0.00    -0.169 NA
ATOM      7  N   UNL     1      -6.038  -2.731  -1.600  0.00  0.00    -0.214 N 
ATOM      8  C   UNL     1      -7.542  -4.755   1.075  0.00  0.00    +0.068 C 
ATOM      9  C   UNL     1      -4.348  -3.986   1.253  0.00  0.00    +0.136 A 
ATOM     10  N   UNL     1      -3.108  -3.542   1.074  0.00  0.00    -0.216 NA
ENDROOT
BRANCH   9  11
ATOM     11  N   UNL     1      -4.675  -4.743   2.361  0.00  0.00    -0.312 N 
ATOM     12  C   UNL     1      -4.454  -6.196   2.365  0.00  0.00    +0.125 C 
ATOM     13  C   UNL     1      -3.585  -6.556   3.577  0.00  0.00    +0.128 C 
ATOM     14  N   UNL     1      -4.160  -5.923   4.772  0.00  0.00    -0.283 N 
ATOM     15  C   UNL     1      -4.381  -4.470   4.767  0.00  0.00    +0.128 C 
ATOM     16  C   UNL     1      -5.245  -4.109   3.558  0.00  0.00    +0.125 C 
ATOM     17  C   UNL     1      -4.480  -6.662   5.853  0.00  0.00    +0.303 C 
ATOM     18  O   UNL     1      -4.209  -7.847   5.881  0.00  0.00    -0.253 OA
ATOM     19  N   UNL     1      -5.100  -6.088   6.902  0.00  0.00    -0.296 N 
ATOM     20  H   UNL     1      -5.251  -5.129   6.912  0.00  0.00    +0.151 HD
BRANCH  19  21
ATOM     21  C   UNL     1      -5.547  -6.910   8.029  0.00  0.00    +0.074 C 
ATOM     22  C   UNL     1      -6.928  -7.492   7.719  0.00  0.00    +0.022 C 
ATOM     23  C   UNL     1      -7.395  -8.352   8.896  0.00  0.00    +0.002 C 
ATOM     24  C   UNL     1      -7.476  -7.489  10.157  0.00  0.00    +0.000 C 
ATOM     25  C   UNL     1      -6.096  -6.907  10.466  0.00  0.00    +0.002 C 
ATOM     26  C   UNL     1      -5.629  -6.048   9.290  0.00  0.00    +0.022 C 
ENDBRANCH  19  21
ENDBRANCH   9  11
BRANCH   7  27
ATOM     27  C   UNL     1      -6.103  -2.022  -2.807  0.00  0.00    +0.068 A 
ATOM     28  C   UNL     1      -5.332  -0.881  -2.985  0.00  0.00    +0.030 A 
ATOM     29  C   UNL     1      -5.396  -0.183  -4.175  0.00  0.00    +0.040 A 
ATOM     30  C   UNL     1      -6.231  -0.621  -5.190  0.00  0.00    +0.124 A 
ATOM     31  C   UNL     1      -7.002  -1.758  -5.014  0.00  0.00    +0.040 A 
ATOM     32  C   UNL     1      -6.935  -2.461  -3.828  0.00  0.00    +0.030 A 
ATOM     33  F   UNL     1      -6.293   0.063  -6.354  0.00  0.00    -0.205 F 
ENDBRANCH   7  27
BRANCH   1  34
ATOM     34  C   UNL     1      -1.366  -2.335  -0.124  0.00  0.00    +0.054 C 
ATOM     35  C   UNL     1      -0.773  -2.884  -1.423  0.00  0.00    +0.015 C 
BRANCH  34  36
ATOM     36  C   UNL     1      -1.343  -0.806  -0.159  0.00  0.00    +0.011 C 
BRANCH  36  38
ATOM     37  C   UNL     1       0.131   1.211  -0.214  0.00  0.00    +0.004 C 
ATOM     38  C   UNL     1       0.108  -0.318  -0.179  0.00  0.00    -0.003 C 
ENDBRANCH  36  38
ENDBRANCH  34  36
ENDBRANCH   1  34
TORSDOF 6
