REMARK  Name = ZINC09739198
REMARK  8 active torsions:
REMARK  status: ('A' for Active; 'I' for Inactive)
REMARK    1  A    between atoms: C_1  and  C_2
REMARK    2  A    between atoms: C_5  and  S_8
REMARK    3  A    between atoms: S_8  and  N_11
REMARK    4  A    between atoms: C_18  and  N_21
REMARK    5  A    between atoms: C_22  and  C_24
REMARK    6  A    between atoms: N_26  and  C_27
REMARK    7  A    between atoms: C_32  and  O_33
REMARK    8  A    between atoms: O_33  and  C_34
REMARK                            x       y       z     vdW  Elec       q    Type
REMARK                         _______ _______ _______ _____ _____    ______ ____
ROOT
ATOM      1  N   UNL     1      -1.616   1.311  -0.976  0.00  0.00    -0.203 N 
ATOM      2  C   UNL     1      -0.884   0.738   0.162  0.00  0.00    +0.132 C 
ATOM      3  C   UNL     1      -1.292   1.513   1.422  0.00  0.00    +0.025 C 
ATOM      4  C   UNL     1      -0.857   2.970   1.268  0.00  0.00    +0.038 C 
ATOM      5  C   UNL     1      -1.342   3.531  -0.043  0.00  0.00    -0.025 A 
ATOM      6  C   UNL     1      -1.692   2.703  -1.099  0.00  0.00    +0.056 A 
ATOM      7  C   UNL     1      -2.125   3.251  -2.300  0.00  0.00    +0.048 A 
ATOM      8  C   UNL     1      -2.211   4.629  -2.442  0.00  0.00    +0.036 A 
ATOM      9  C   UNL     1      -1.863   5.455  -1.379  0.00  0.00    +0.024 A 
ATOM     10  C   UNL     1      -1.432   4.905  -0.189  0.00  0.00    +0.007 A 
ENDROOT
BRANCH   8  11
ATOM     11  N   UNL     1      -2.646   5.184  -3.648  0.00  0.00    -0.278 N 
ATOM     12  C   UNL     1      -3.402   6.299  -3.643  0.00  0.00    +0.303 C 
ATOM     13  O   UNL     1      -3.639   6.867  -2.597  0.00  0.00    -0.265 OA
ATOM     14  H   UNL     1      -2.403   4.766  -4.489  0.00  0.00    +0.155 HD
BRANCH  12  15
ATOM     15  C   UNL     1      -3.948   6.836  -4.924  0.00  0.00    +0.304 C 
ATOM     16  O   UNL     1      -3.711   6.268  -5.971  0.00  0.00    -0.265 OA
ATOM     17  N   UNL     1      -4.705   7.952  -4.919  0.00  0.00    -0.275 N 
ATOM     18  H   UNL     1      -4.952   8.366  -4.078  0.00  0.00    +0.155 HD
BRANCH  17  19
ATOM     19  C   UNL     1      -5.133   8.512  -6.127  0.00  0.00    +0.076 A 
ATOM     20  C   UNL     1      -5.329   7.703  -7.238  0.00  0.00    +0.027 A 
ATOM     21  C   UNL     1      -5.757   8.258  -8.429  0.00  0.00    +0.002 A 
ATOM     22  C   UNL     1      -5.981   9.620  -8.520  0.00  0.00    +0.004 A 
ATOM     23  C   UNL     1      -5.783  10.432  -7.420  0.00  0.00    +0.047 A 
ATOM     24  C   UNL     1      -5.359   9.884  -6.220  0.00  0.00    +0.141 A 
BRANCH  24  25
ATOM     25  O   UNL     1      -5.163  10.682  -5.137  0.00  0.00    -0.493 OA
ATOM     26  C   UNL     1      -5.414  12.078  -5.306  0.00  0.00    +0.277 C 
ENDBRANCH  24  25
ENDBRANCH  17  19
ENDBRANCH  12  15
ENDBRANCH   8  11
BRANCH   1  27
ATOM     27  S   UNL     1      -2.340   0.327  -2.094  0.00  0.00    +0.075 S 
ATOM     28  O   UNL     1      -2.474  -0.950  -1.484  0.00  0.00    -0.150 OA
ATOM     29  O   UNL     1      -3.452   1.046  -2.608  0.00  0.00    -0.150 OA
BRANCH  27  34
ATOM     30  C   UNL     1       1.545  -0.345  -6.662  0.00  0.00    +0.044 C 
ATOM     31  C   UNL     1       0.574  -0.177  -5.521  0.00  0.00    -0.050 A 
ATOM     32  C   UNL     1       0.600  -1.059  -4.456  0.00  0.00    +0.005 A 
ATOM     33  C   UNL     1      -0.290  -0.905  -3.410  0.00  0.00    +0.029 A 
ATOM     34  C   UNL     1      -1.205   0.131  -3.427  0.00  0.00    +0.109 A 
ATOM     35  C   UNL     1      -1.234   1.009  -4.494  0.00  0.00    +0.029 A 
ATOM     36  C   UNL     1      -0.341   0.858  -5.538  0.00  0.00    +0.005 A 
ENDBRANCH  27  34
ENDBRANCH   1  27
TORSDOF 6
