REMARK  Name = ZINC19125705
REMARK  6 active torsions:
REMARK  status: ('A' for Active; 'I' for Inactive)
REMARK    1  A    between atoms: C_1  and  C_2
REMARK    2  A    between atoms: C_9  and  O_32
REMARK    3  A    between atoms: C_18  and  C_19
REMARK    4  A    between atoms: C_18  and  N_59
REMARK    5  A    between atoms: C_19  and  C_21
REMARK    6  A    between atoms: C_19  and  O_31
REMARK                            x       y       z     vdW  Elec       q    Type
REMARK                         _______ _______ _______ _____ _____    ______ ____
ROOT
ATOM      1  C   UNL     1       0.759  -0.539   6.053  0.00  0.00    +0.045 C 
ATOM      2  C   UNL     1      -0.007  -0.389   4.764  0.00  0.00    -0.029 A 
ATOM      3  C   UNL     1       0.647  -0.502   3.554  0.00  0.00    +0.050 A 
ATOM      4  C   UNL     1      -0.056  -0.365   2.362  0.00  0.00    +0.127 A 
ATOM      5  C   UNL     1      -1.416  -0.110   2.393  0.00  0.00    +0.024 A 
ATOM      6  C   UNL     1      -2.069   0.001   3.609  0.00  0.00    +0.030 A 
ATOM      7  C   UNL     1      -1.367  -0.138   4.792  0.00  0.00    +0.044 A 
ATOM      8 CL   UNL     1      -2.193   0.003   6.313  0.00  0.00    -0.083 Cl
ATOM      9  C   UNL     1      -2.213   0.056   1.124  0.00  0.00    +0.152 C 
ATOM     10  C   UNL     1      -1.434  -0.535  -0.054  0.00  0.00    +0.084 C 
ATOM     11  C   UNL     1       0.002  -0.004   0.002  0.00  0.00    +0.110 C 
ATOM     12  O   UNL     1       0.623  -0.488   1.191  0.00  0.00    -0.485 OA
ATOM     13  C   UNL     1      -0.019   1.525   0.010  0.00  0.00    +0.029 C 
ATOM     14  C   UNL     1       1.419   2.051  -0.001  0.00  0.00    -0.075 C 
ATOM     15  C   UNL     1       2.190   0.089  -1.195  0.00  0.00    -0.075 C 
ATOM     16  C   UNL     1       0.776  -0.496  -1.223  0.00  0.00    +0.029 C 
ATOM     17  N   UNL     1       2.099   1.565  -1.220  0.00  0.00    +0.382 N 
ATOM     18  H   UNL     1       1.554   1.851  -2.042  0.00  0.00    -0.082 HD
ENDROOT
BRANCH   9  19
ATOM     19  O   UNL     1      -3.463  -0.623   1.256  0.00  0.00    -0.387 OA
ATOM     20  H   UNL     1      -4.013  -0.298   1.983  0.00  0.00    +0.210 HD
ENDBRANCH   9  19
BRANCH  17  21
ATOM     21  C   UNL     1       3.451   2.153  -1.311  0.00  0.00    -0.042 C 
BRANCH  21  22
ATOM     22  C   UNL     1       3.361   3.659  -1.059  0.00  0.00    +0.128 C 
BRANCH  22  23
ATOM     23  C   UNL     1       4.732   4.272  -1.179  0.00  0.00    -0.017 A 
ATOM     24  C   UNL     1       5.220   4.637  -2.420  0.00  0.00    +0.010 A 
ATOM     25  C   UNL     1       6.476   5.202  -2.533  0.00  0.00    +0.050 A 
ATOM     26  C   UNL     1       7.255   5.395  -1.402  0.00  0.00    +0.162 A 
ATOM     27  C   UNL     1       6.766   5.026  -0.154  0.00  0.00    +0.162 A 
ATOM     28  C   UNL     1       5.503   4.462  -0.048  0.00  0.00    +0.055 A 
ATOM     29  O   UNL     1       7.511   5.214   0.969  0.00  0.00    -0.485 OA
ATOM     30  C   UNL     1       8.913   5.435   0.782  0.00  0.00    +0.270 C 
ATOM     31  C   UNL     1       9.092   6.467  -0.339  0.00  0.00    +0.270 C 
ATOM     32  O   UNL     1       8.494   5.943  -1.530  0.00  0.00    -0.485 OA
ENDBRANCH  22  23
BRANCH  22  33
ATOM     33  O   UNL     1       2.489   4.253  -2.024  0.00  0.00    -0.389 OA
ATOM     34  H   UNL     1       2.776   4.133  -2.939  0.00  0.00    +0.210 HD
ENDBRANCH  22  33
ENDBRANCH  21  22
ENDBRANCH  17  21
TORSDOF 5
