REMARK  Name = ZINC21000889
REMARK  6 active torsions:
REMARK  status: ('A' for Active; 'I' for Inactive)
REMARK    1  A    between atoms: C_4  and  C_7
REMARK    2  A    between atoms: C_9  and  C_30
REMARK    3  A    between atoms: C_10  and  N_12
REMARK    4  A    between atoms: C_13  and  C_15
REMARK    5  A    between atoms: N_18  and  S_21
REMARK    6  A    between atoms: S_21  and  C_24
REMARK                            x       y       z     vdW  Elec       q    Type
REMARK                         _______ _______ _______ _____ _____    ______ ____
ROOT
ATOM      1  N   UNL     1       4.411   0.089   2.277  0.00  0.00    -0.279 N 
ATOM      2  C   UNL     1       3.140  -0.347   2.169  0.00  0.00    +0.221 C 
ATOM      3  O   UNL     1       2.703  -1.145   2.971  0.00  0.00    -0.275 OA
ATOM      4  H   UNL     1       4.807   0.814   1.550  0.00  0.00    +0.155 HD
ENDROOT
BRANCH   2   5
ATOM      5  C   UNL     1       2.263   0.156   1.052  0.00  0.00    +0.078 C 
ATOM      6  C   UNL     1       0.880  -0.492   1.159  0.00  0.00    +0.030 C 
ATOM      7  C   UNL     1       0.002  -0.004   0.002  0.00  0.00    +0.110 C 
ATOM      8  N   UNL     1      -0.018   1.465   0.010  0.00  0.00    -0.176 NA
ATOM      9  C   UNL     1       1.261   2.189   0.002  0.00  0.00    +0.110 C 
ATOM     10  C   UNL     1       2.125   1.677   1.158  0.00  0.00    +0.030 C 
BRANCH   8  11
ATOM     11  S   UNL     1      -1.454   2.289   0.021  0.00  0.00    +0.067 S 
ATOM     12  O   UNL     1      -1.189   3.575  -0.524  0.00  0.00    -0.152 OA
ATOM     13  O   UNL     1      -2.429   1.414  -0.530  0.00  0.00    -0.152 OA
BRANCH  11  14
ATOM     14  C   UNL     1      -1.898   2.539   1.708  0.00  0.00    +0.144 A 
ATOM     15  C   UNL     1      -1.589   3.574   2.527  0.00  0.00    +0.038 A 
ATOM     16  C   UNL     1      -2.052   3.559   3.830  0.00  0.00    +0.030 A 
ATOM     17  C   UNL     1      -2.802   2.509   4.249  0.00  0.00    +0.080 A 
ATOM     18  S   UNL     1      -2.878   1.500   2.779  0.00  0.00    -0.057 S 
ATOM     19 CL   UNL     1      -3.510   2.225   5.808  0.00  0.00    -0.076 Cl
ENDBRANCH  11  14
ENDBRANCH   8  11
ENDBRANCH   2   5
BRANCH   1  23
ATOM     20  C   UNL     1       6.391  -1.522   5.414  0.00  0.00    +0.022 A 
ATOM     21  C   UNL     1       7.142  -0.652   4.685  0.00  0.00    +0.031 A 
ATOM     22  C   UNL     1       6.543  -0.045   3.582  0.00  0.00    +0.066 A 
ATOM     23  C   UNL     1       5.217  -0.373   3.304  0.00  0.00    +0.084 A 
ATOM     24  S   UNL     1       4.824  -1.497   4.563  0.00  0.00    -0.073 S 
BRANCH  20  28
ATOM     25  C   UNL     1       7.497  -3.734   8.867  0.00  0.00    +0.000 A 
ATOM     26  C   UNL     1       6.220  -3.858   8.350  0.00  0.00    +0.001 A 
ATOM     27  C   UNL     1       5.854  -3.142   7.228  0.00  0.00    +0.009 A 
ATOM     28  C   UNL     1       6.776  -2.292   6.615  0.00  0.00    -0.011 A 
ATOM     29  C   UNL     1       8.065  -2.176   7.139  0.00  0.00    +0.009 A 
ATOM     30  C   UNL     1       8.416  -2.893   8.264  0.00  0.00    +0.001 A 
ENDBRANCH  20  28
BRANCH  22  31
ATOM     31  C   UNL     1       7.282   0.904   2.743  0.00  0.00    +0.244 C 
ATOM     32  O   UNL     1       6.738   1.421   1.784  0.00  0.00    -0.270 OA
ATOM     33  N   UNL     1       8.563   1.204   3.033  0.00  0.00    -0.325 N 
ATOM     34  H   UNL     1       9.118   1.916   2.404  0.00  0.00    +0.145 HD
ATOM     35  H   UNL     1       9.055   0.737   3.899  0.00  0.00    +0.145 HD
ENDBRANCH  22  31
ENDBRANCH   1  23
TORSDOF 6
