REMARK  Name = ZINC59461865
REMARK  8 active torsions:
REMARK  status: ('A' for Active; 'I' for Inactive)
REMARK    1  A    between atoms: C_1  and  C_2
REMARK    2  A    between atoms: C_5  and  C_8
REMARK    3  A    between atoms: C_15  and  C_24
REMARK    4  A    between atoms: C_16  and  C_18
REMARK    5  A    between atoms: C_24  and  C_26
REMARK    6  A    between atoms: C_24  and  C_32
REMARK    7  A    between atoms: C_32  and  C_34
REMARK    8  A    between atoms: C_32  and  C_36
REMARK                            x       y       z     vdW  Elec       q    Type
REMARK                         _______ _______ _______ _____ _____    ______ ____
ROOT
ATOM      1  C   UNL     1       2.050  -4.552  -0.678  0.00  0.00    +0.080 A 
ATOM      2  C   UNL     1       2.238  -5.259   0.477  0.00  0.00    +0.077 A 
ATOM      3  S   UNL     1       1.692  -6.882  -0.034  0.00  0.00    -0.056 S 
ATOM      4  C   UNL     1       1.272  -6.456  -1.718  0.00  0.00    +0.196 A 
ATOM      5  N   UNL     1       1.566  -5.170  -1.745  0.00  0.00    -0.221 NA
ATOM      6  N   UNL     1       0.766  -7.263  -2.729  0.00  0.00    -0.194 N 
ATOM      7  C   UNL     1       0.484  -8.577  -2.627  0.00  0.00    +0.278 A 
ATOM      8  C   UNL     1      -0.006  -9.015  -3.873  0.00  0.00    +0.053 A 
ATOM      9  C   UNL     1      -0.014  -7.948  -4.721  0.00  0.00    +0.072 A 
ATOM     10  N   UNL     1       0.455  -6.853  -4.032  0.00  0.00    -0.287 N 
ATOM     11  O   UNL     1       0.627  -9.265  -1.631  0.00  0.00    -0.265 OA
ATOM     12  H   UNL     1       0.554  -5.956  -4.386  0.00  0.00    +0.188 HD
ENDROOT
BRANCH   1  17
ATOM     13  C   UNL     1       3.321   1.060  -0.892  0.00  0.00    +0.044 C 
ATOM     14  C   UNL     1       2.989  -0.408  -0.836  0.00  0.00    -0.050 A 
ATOM     15  C   UNL     1       2.486  -1.044  -1.957  0.00  0.00    +0.004 A 
ATOM     16  C   UNL     1       2.179  -2.389  -1.911  0.00  0.00    +0.010 A 
ATOM     17  C   UNL     1       2.378  -3.107  -0.733  0.00  0.00    +0.001 A 
ATOM     18  C   UNL     1       2.886  -2.461   0.393  0.00  0.00    +0.010 A 
ATOM     19  C   UNL     1       3.193  -1.117   0.334  0.00  0.00    +0.004 A 
ENDBRANCH   1  17
BRANCH   9  20
ATOM     20  C   UNL     1      -0.453  -7.963  -6.131  0.00  0.00    +0.000 A 
ATOM     21  C   UNL     1      -1.314  -6.973  -6.609  0.00  0.00    +0.010 A 
ATOM     22  C   UNL     1      -1.720  -6.993  -7.927  0.00  0.00    +0.001 A 
ATOM     23  C   UNL     1      -1.276  -7.992  -8.775  0.00  0.00    +0.000 A 
ATOM     24  C   UNL     1      -0.422  -8.976  -8.309  0.00  0.00    +0.001 A 
ATOM     25  C   UNL     1      -0.003  -8.964  -6.995  0.00  0.00    +0.010 A 
ENDBRANCH   9  20
BRANCH   8  26
ATOM     26  C   UNL     1      -0.446 -10.416  -4.209  0.00  0.00    +0.082 C 
BRANCH  26  27
ATOM     27  C   UNL     1       0.722 -11.358  -4.061  0.00  0.00    -0.038 A 
ATOM     28  C   UNL     1       1.172 -11.709  -2.802  0.00  0.00    +0.004 A 
ATOM     29  C   UNL     1       2.243 -12.572  -2.667  0.00  0.00    +0.000 A 
ATOM     30  C   UNL     1       2.864 -13.085  -3.791  0.00  0.00    +0.000 A 
ATOM     31  C   UNL     1       2.413 -12.734  -5.050  0.00  0.00    +0.000 A 
ATOM     32  C   UNL     1       1.340 -11.874  -5.185  0.00  0.00    +0.004 A 
ENDBRANCH  26  27
BRANCH  26  33
ATOM     33  C   UNL     1      -1.567 -10.841  -3.258  0.00  0.00    +0.189 C 
BRANCH  33  34
ATOM     34  C   UNL     1      -2.734  -9.900  -3.405  0.00  0.00    +0.228 C 
ATOM     35  O   UNL     1      -3.817 -10.326  -3.749  0.00  0.00    -0.275 OA
ATOM     36  N   UNL     1      -2.576  -8.585  -3.155  0.00  0.00    -0.328 N 
ATOM     37  H   UNL     1      -1.710  -8.245  -2.880  0.00  0.00    +0.145 HD
ATOM     38  H   UNL     1      -3.327  -7.980  -3.250  0.00  0.00    +0.145 HD
ENDBRANCH  33  34
BRANCH  33  39
ATOM     39  C   UNL     1      -1.996 -12.211  -3.586  0.00  0.00    +0.076 C 
ATOM     40  N   UNL     1      -2.327 -13.268  -3.839  0.00  0.00    -0.196 NA
ENDBRANCH  33  39
ENDBRANCH  26  33
ENDBRANCH   8  26
TORSDOF 7
