REMARK  Name = ZINC02245934
REMARK  12 active torsions:
REMARK  status: ('A' for Active; 'I' for Inactive)
REMARK    1  A    between atoms: C_1  and  C_2
REMARK    2  A    between atoms: N_8  and  C_9
REMARK    3  A    between atoms: C_9  and  C_10
REMARK    4  A    between atoms: C_19  and  C_27
REMARK    5  A    between atoms: C_21  and  C_25
REMARK    6  A    between atoms: C_22  and  N_24
REMARK    7  A    between atoms: C_29  and  O_37
REMARK    8  A    between atoms: C_30  and  O_35
REMARK    9  A    between atoms: C_31  and  O_33
REMARK   10  A    between atoms: O_33  and  C_34
REMARK   11  A    between atoms: O_35  and  C_36
REMARK   12  A    between atoms: O_37  and  C_38
REMARK                            x       y       z     vdW  Elec       q    Type
REMARK                         _______ _______ _______ _____ _____    ______ ____
ROOT
ATOM      1  C   UNL     1       0.151   5.292  -0.090  0.00  0.00    +0.064 C 
ATOM      2  C   UNL     1      -0.109   3.811   0.009  0.00  0.00    +0.023 A 
ATOM      3  C   UNL     1       0.934   2.954   0.052  0.00  0.00    +0.068 A 
ATOM      4  C   UNL     1       0.697   1.567   0.144  0.00  0.00    +0.141 A 
ATOM      5  C   UNL     1      -0.605   1.113   0.189  0.00  0.00    +0.072 A 
ATOM      6  C   UNL     1      -1.655   2.040   0.147  0.00  0.00    +0.259 A 
ATOM      7  O   UNL     1      -2.812   1.653   0.190  0.00  0.00    -0.267 OA
ATOM      8  N   UNL     1      -1.389   3.356   0.054  0.00  0.00    -0.308 N 
ATOM      9  C   UNL     1      -0.904  -0.358   0.287  0.00  0.00    +0.103 C 
ATOM     10  C   UNL     1       0.325  -1.108   0.720  0.00  0.00    +0.098 C 
ATOM     11  C   UNL     1       1.554  -0.543   0.648  0.00  0.00    +0.199 C 
ATOM     12  O   UNL     1       1.736   0.707   0.188  0.00  0.00    -0.441 OA
ENDROOT
BRANCH   9  13
ATOM     13  C   UNL     1      -1.348  -0.868  -1.060  0.00  0.00    -0.027 A 
ATOM     14  C   UNL     1      -0.504  -0.763  -2.150  0.00  0.00    +0.054 A 
ATOM     15  C   UNL     1      -0.907  -1.236  -3.389  0.00  0.00    +0.165 A 
ATOM     16  C   UNL     1      -2.165  -1.808  -3.537  0.00  0.00    +0.204 A 
ATOM     17  C   UNL     1      -3.013  -1.906  -2.440  0.00  0.00    +0.165 A 
ATOM     18  C   UNL     1      -2.600  -1.435  -1.203  0.00  0.00    +0.054 A 
BRANCH  17  19
ATOM     19  O   UNL     1      -4.245  -2.464  -2.580  0.00  0.00    -0.491 OA
ATOM     20  C   UNL     1      -5.063  -2.532  -1.410  0.00  0.00    +0.277 C 
ENDBRANCH  17  19
BRANCH  16  21
ATOM     21  O   UNL     1      -2.566  -2.269  -4.753  0.00  0.00    -0.488 OA
ATOM     22  C   UNL     1      -3.245  -1.345  -5.606  0.00  0.00    +0.277 C 
ENDBRANCH  16  21
BRANCH  15  23
ATOM     23  O   UNL     1      -0.074  -1.137  -4.459  0.00  0.00    -0.491 OA
ATOM     24  C   UNL     1       1.204  -0.539  -4.234  0.00  0.00    +0.277 C 
ENDBRANCH  15  23
ENDBRANCH   9  13
BRANCH  11  25
ATOM     25  N   UNL     1       2.645  -1.269   1.055  0.00  0.00    -0.328 N 
ATOM     26  H   UNL     1       2.530  -2.173   1.388  0.00  0.00    +0.145 HD
ATOM     27  H   UNL     1       3.532  -0.879   1.009  0.00  0.00    +0.145 HD
ENDBRANCH  11  25
BRANCH  10  28
ATOM     28  C   UNL     1       0.194  -2.444   1.219  0.00  0.00    +0.101 C 
ATOM     29  N   UNL     1       0.090  -3.503   1.614  0.00  0.00    -0.191 NA
ENDBRANCH  10  28
BRANCH   8  30
ATOM     30  C   UNL     1      -2.496   4.314   0.007  0.00  0.00    +0.160 C 
BRANCH  30  31
ATOM     31  C   UNL     1      -2.971   4.462  -1.415  0.00  0.00    -0.024 A 
ATOM     32  C   UNL     1      -2.503   5.504  -2.194  0.00  0.00    +0.009 A 
ATOM     33  C   UNL     1      -2.931   5.641  -3.502  0.00  0.00    +0.050 A 
ATOM     34  C   UNL     1      -3.841   4.740  -4.030  0.00  0.00    +0.166 A 
ATOM     35  C   UNL     1      -4.318   3.694  -3.244  0.00  0.00    +0.167 A 
ATOM     36  C   UNL     1      -3.879   3.559  -1.937  0.00  0.00    +0.055 A 
ATOM     37  O   UNL     1      -5.193   2.955  -3.986  0.00  0.00    -0.453 OA
ATOM     38  C   UNL     1      -5.559   3.793  -5.098  0.00  0.00    +0.466 C 
ATOM     39  O   UNL     1      -4.418   4.656  -5.265  0.00  0.00    -0.453 OA
ENDBRANCH  30  31
ENDBRANCH   8  30
TORSDOF 8
