REMARK  Name = ZINC13499749
REMARK  9 active torsions:
REMARK  status: ('A' for Active; 'I' for Inactive)
REMARK    1  A    between atoms: C_1  and  C_2
REMARK    2  A    between atoms: C_2  and  C_3
REMARK    3  A    between atoms: C_11  and  C_15
REMARK    4  A    between atoms: C_18  and  S_21
REMARK    5  A    between atoms: S_21  and  C_22
REMARK    6  A    between atoms: C_22  and  C_23
REMARK    7  A    between atoms: N_25  and  N_26
REMARK    8  A    between atoms: C_27  and  C_29
REMARK    9  A    between atoms: C_32  and  C_35
REMARK                            x       y       z     vdW  Elec       q    Type
REMARK                         _______ _______ _______ _____ _____    ______ ____
ROOT
ATOM      1  C   UNL     1      -1.010   2.299   0.029  0.00  0.00    +0.118 A 
ATOM      2  N   UNL     1      -0.742   3.574   0.028  0.00  0.00    -0.226 NA
ATOM      3  C   UNL     1       0.504   4.039   0.019  0.00  0.00    +0.114 A 
ATOM      4  C   UNL     1       1.623   3.192   0.004  0.00  0.00    +0.056 A 
ATOM      5  C   UNL     1       2.896   3.816  -0.006  0.00  0.00    -0.024 A 
ATOM      6  C   UNL     1       2.932   5.168   0.002  0.00  0.00    -0.004 A 
ATOM      7  S   UNL     1       1.229   5.661   0.021  0.00  0.00    -0.073 S 
ATOM      8  C   UNL     1       4.144   6.047  -0.006  0.00  0.00    +0.046 C 
ATOM      9  C   UNL     1       5.359   5.192  -0.396  0.00  0.00    -0.009 C 
ATOM     10  C   UNL     1       5.340   3.905   0.435  0.00  0.00    +0.008 C 
ATOM     11  C   UNL     1       4.191   3.007  -0.023  0.00  0.00    +0.037 C 
ATOM     12  C   UNL     1       6.646   5.968  -0.109  0.00  0.00    +0.008 C 
ATOM     13  C   UNL     1       1.307   1.747  -0.001  0.00  0.00    +0.173 A 
ATOM     14  N   UNL     1      -0.017   1.363   0.009  0.00  0.00    -0.257 N 
ATOM     15  C   UNL     1       0.002  -0.004   0.002  0.00  0.00    +0.198 A 
ATOM     16  N   UNL     1       1.262  -0.376  -0.012  0.00  0.00    -0.122 NA
ATOM     17  N   UNL     1       2.032   0.656  -0.014  0.00  0.00    -0.128 NA
ENDROOT
BRANCH   1  19
ATOM     18  C   UNL     1      -2.914   1.686   1.494  0.00  0.00    +0.012 C 
ATOM     19  C   UNL     1      -2.447   1.847   0.046  0.00  0.00    +0.071 C 
ENDBRANCH   1  19
BRANCH  15  20
ATOM     20  S   UNL     1      -1.402  -1.069   0.009  0.00  0.00    -0.076 S 
BRANCH  20  21
ATOM     21  C   UNL     1      -0.689  -2.736  -0.006  0.00  0.00    +0.174 C 
BRANCH  21  22
ATOM     22  C   UNL     1      -1.797  -3.757  -0.002  0.00  0.00    +0.239 C 
ATOM     23  O   UNL     1      -2.955  -3.395   0.011  0.00  0.00    -0.273 OA
ATOM     24  N   UNL     1      -1.502  -5.072  -0.011  0.00  0.00    -0.233 N 
ATOM     25  H   UNL     1      -0.577  -5.362  -0.021  0.00  0.00    +0.173 HD
BRANCH  24  26
ATOM     26  N   UNL     1      -2.533  -6.021  -0.007  0.00  0.00    -0.230 N 
ATOM     27  C   UNL     1      -2.238  -7.336  -0.017  0.00  0.00    +0.260 C 
ATOM     28  O   UNL     1      -1.078  -7.699  -0.029  0.00  0.00    -0.269 OA
ATOM     29  H   UNL     1      -3.459  -5.732   0.003  0.00  0.00    +0.173 HD
BRANCH  27  30
ATOM     30  C   UNL     1      -3.326  -8.338  -0.012  0.00  0.00    +0.038 A 
ATOM     31  C   UNL     1      -4.659  -7.924   0.008  0.00  0.00    +0.013 A 
ATOM     32  C   UNL     1      -5.669  -8.864   0.008  0.00  0.00    +0.004 A 
ATOM     33  C   UNL     1      -5.363 -10.213  -0.002  0.00  0.00    -0.050 A 
ATOM     34  C   UNL     1      -4.044 -10.630  -0.017  0.00  0.00    +0.004 A 
ATOM     35  C   UNL     1      -3.024  -9.700  -0.022  0.00  0.00    +0.013 A 
ATOM     36  C   UNL     1      -6.472 -11.234   0.004  0.00  0.00    +0.044 C 
ENDBRANCH  27  30
ENDBRANCH  24  26
ENDBRANCH  21  22
ENDBRANCH  20  21
ENDBRANCH  15  20
TORSDOF 6
