REMARK  Name = ZINC67263921
REMARK  8 active torsions:
REMARK  status: ('A' for Active; 'I' for Inactive)
REMARK    1  A    between atoms: C_1  and  C_2
REMARK    2  A    between atoms: C_2  and  C_3
REMARK    3  A    between atoms: C_2  and  C_4
REMARK    4  A    between atoms: C_2  and  C_5
REMARK    5  A    between atoms: N_16  and  C_17
REMARK    6  A    between atoms: C_20  and  N_23
REMARK    7  A    between atoms: C_24  and  O_26
REMARK    8  A    between atoms: O_26  and  C_27
REMARK                            x       y       z     vdW  Elec       q    Type
REMARK                         _______ _______ _______ _____ _____    ______ ____
ROOT
ATOM      1  C   UNL     1       0.720  -0.726  -1.137  0.00  0.00    +0.221 C 
ATOM      2  O   UNL     1       1.400   0.063  -1.758  0.00  0.00    -0.275 OA
ATOM      3  N   UNL     1       0.543  -1.978  -1.605  0.00  0.00    -0.299 N 
ATOM      4  C   UNL     1       1.092  -2.389  -2.849  0.00  0.00    +0.109 C 
ATOM      5  C   UNL     1       0.221  -2.027  -4.097  0.00  0.00    +0.038 C 
ATOM      6  C   UNL     1      -1.276  -2.223  -3.691  0.00  0.00    +0.111 C 
ATOM      7  N   UNL     1      -1.519  -3.340  -2.846  0.00  0.00    -0.284 N 
ATOM      8  C   UNL     1      -1.585  -3.080  -1.385  0.00  0.00    +0.128 C 
ATOM      9  C   UNL     1      -0.229  -2.990  -0.839  0.00  0.00    +0.126 C 
ATOM     10  C   UNL     1      -1.683  -4.580  -3.349  0.00  0.00    +0.306 C 
ATOM     11  O   UNL     1      -1.624  -4.762  -4.550  0.00  0.00    -0.252 OA
ATOM     12  N   UNL     1      -1.911  -5.618  -2.520  0.00  0.00    -0.269 N 
ATOM     13  H   UNL     1      -2.033  -5.463  -1.571  0.00  0.00    +0.156 HD
ENDROOT
BRANCH  12  14
ATOM     14  C   UNL     1      -1.974  -6.921  -3.031  0.00  0.00    +0.035 A 
ATOM     15  C   UNL     1      -2.837  -7.849  -2.462  0.00  0.00    +0.025 A 
ATOM     16  C   UNL     1      -2.899  -9.133  -2.965  0.00  0.00    +0.025 A 
ATOM     17  C   UNL     1      -2.099  -9.497  -4.040  0.00  0.00    +0.037 A 
ATOM     18  C   UNL     1      -1.236  -8.570  -4.609  0.00  0.00    +0.025 A 
ATOM     19  C   UNL     1      -1.179  -7.284  -4.109  0.00  0.00    +0.025 A 
BRANCH  17  20
ATOM     20  N   UNL     1      -2.162 -10.801  -4.551  0.00  0.00    -0.251 N 
ATOM     21  C   UNL     1      -1.053 -11.383  -5.050  0.00  0.00    +0.404 C 
ATOM     22  O   UNL     1       0.018 -10.815  -4.973  0.00  0.00    -0.226 OA
ATOM     23  H   UNL     1      -3.003 -11.284  -4.545  0.00  0.00    +0.158 HD
BRANCH  21  24
ATOM     24  O   UNL     1      -1.134 -12.594  -5.634  0.00  0.00    -0.453 OA
ATOM     25  C   UNL     1       0.080 -13.151  -6.141  0.00  0.00    +0.282 C 
ENDBRANCH  21  24
ENDBRANCH  17  20
ENDBRANCH  12  14
BRANCH   1  27
ATOM     26  C   UNL     1       0.233   1.203   0.344  0.00  0.00    +0.020 C 
ATOM     27  C   UNL     1       0.073  -0.308   0.159  0.00  0.00    +0.039 C 
ATOM     28  C   UNL     1       0.744  -1.038   1.323  0.00  0.00    +0.020 C 
ATOM     29  C   UNL     1      -1.415  -0.662   0.123  0.00  0.00    +0.020 C 
ENDBRANCH   1  27
TORSDOF 4
