REMARK  Name = ZINC34932976
REMARK  6 active torsions:
REMARK  status: ('A' for Active; 'I' for Inactive)
REMARK    1  A    between atoms: C_1  and  C_2
REMARK    2  A    between atoms: C_7  and  C_9
REMARK    3  A    between atoms: C_7  and  C_10
REMARK    4  A    between atoms: C_13  and  C_15
REMARK    5  A    between atoms: C_15  and  N_16
REMARK    6  A    between atoms: N_19  and  C_20
REMARK                            x       y       z     vdW  Elec       q    Type
REMARK                         _______ _______ _______ _____ _____    ______ ____
ROOT
ATOM      1  N   UNL     1       1.408  -3.442  -4.544  0.00  0.00    -0.291 N 
ATOM      2  C   UNL     1       2.314  -3.357  -5.538  0.00  0.00    +0.304 C 
ATOM      3  O   UNL     1       3.057  -2.397  -5.603  0.00  0.00    -0.252 OA
ATOM      4  N   UNL     1       2.397  -4.336  -6.460  0.00  0.00    -0.269 N 
ATOM      5  H   UNL     1       0.815  -4.208  -4.492  0.00  0.00    +0.151 HD
ATOM      6  H   UNL     1       1.850  -5.133  -6.372  0.00  0.00    +0.156 HD
ENDROOT
BRANCH   4   7
ATOM      7  C   UNL     1       3.269  -4.204  -7.543  0.00  0.00    +0.042 A 
ATOM      8  C   UNL     1       4.478  -3.563  -7.387  0.00  0.00    +0.024 A 
ATOM      9  C   UNL     1       5.355  -3.425  -8.459  0.00  0.00    +0.002 A 
ATOM     10  C   UNL     1       5.043  -3.919  -9.689  0.00  0.00    +0.008 A 
ATOM     11  C   UNL     1       3.820  -4.580  -9.890  0.00  0.00    -0.016 A 
ATOM     12  C   UNL     1       2.922  -4.732  -8.805  0.00  0.00    +0.003 A 
ATOM     13  C   UNL     1       1.703  -5.397  -9.006  0.00  0.00    +0.010 A 
ATOM     14  C   UNL     1       1.401  -5.894 -10.238  0.00  0.00    +0.001 A 
ATOM     15  C   UNL     1       2.286  -5.751 -11.304  0.00  0.00    +0.001 A 
ATOM     16  C   UNL     1       3.471  -5.101 -11.149  0.00  0.00    +0.008 A 
ENDBRANCH   4   7
BRANCH   1  17
ATOM     17  C   UNL     1       1.318  -2.377  -3.542  0.00  0.00    +0.201 C 
BRANCH  17  29
ATOM     18  C   UNL     1       0.007   1.514   0.037  0.00  0.00    +0.013 C 
ATOM     19  C   UNL     1       0.032  -0.023   0.025  0.00  0.00    -0.014 C 
ATOM     20  C   UNL     1      -1.395  -0.636   0.009  0.00  0.00    +0.030 C 
ATOM     21  C   UNL     1      -1.056  -2.065  -0.487  0.00  0.00    +0.077 C 
ATOM     22  C   UNL     1      -0.439  -2.817   0.690  0.00  0.00    +0.029 C 
ATOM     23  C   UNL     1       0.770  -2.125   1.295  0.00  0.00    -0.033 C 
ATOM     24  C   UNL     1       0.765  -0.609   1.230  0.00  0.00    +0.014 C 
ATOM     25  C   UNL     1       2.056  -2.677   0.662  0.00  0.00    +0.011 C 
ATOM     26  C   UNL     1       0.818  -2.519   2.793  0.00  0.00    +0.011 C 
ATOM     27  N   UNL     1      -0.030  -1.870  -1.530  0.00  0.00    -0.297 N 
ATOM     28  C   UNL     1       0.648  -0.590  -1.273  0.00  0.00    +0.114 C 
ATOM     29  C   UNL     1       0.234  -2.712  -2.549  0.00  0.00    +0.233 C 
ATOM     30  O   UNL     1      -0.400  -3.739  -2.668  0.00  0.00    -0.274 OA
ENDBRANCH  17  29
ENDBRANCH   1  17
TORSDOF 3
