REMARK  Name = ZINC32809991
REMARK  10 active torsions:
REMARK  status: ('A' for Active; 'I' for Inactive)
REMARK    1  A    between atoms: C_1  and  C_2
REMARK    2  A    between atoms: C_3  and  C_32
REMARK    3  A    between atoms: C_7  and  N_20
REMARK    4  A    between atoms: C_9  and  C_11
REMARK    5  A    between atoms: C_11  and  S_12
REMARK    6  A    between atoms: S_12  and  C_13
REMARK    7  A    between atoms: N_20  and  C_21
REMARK    8  A    between atoms: C_21  and  C_22
REMARK    9  A    between atoms: C_22  and  N_23
REMARK   10  A    between atoms: N_23  and  C_24
REMARK                            x       y       z     vdW  Elec       q    Type
REMARK                         _______ _______ _______ _____ _____    ______ ____
ROOT
ATOM      1  C   UNL     1       3.396  -4.510  -5.766  0.00  0.00    +0.045 C 
ATOM      2  C   UNL     1       3.657  -5.975  -5.530  0.00  0.00    -0.028 A 
ATOM      3  C   UNL     1       4.386  -6.684  -6.404  0.00  0.00    -0.008 A 
ATOM      4  S   UNL     1       4.419  -8.318  -5.691  0.00  0.00    -0.074 S 
ATOM      5  C   UNL     1       3.443  -8.007  -4.244  0.00  0.00    +0.114 A 
ATOM      6  C   UNL     1       3.123  -6.635  -4.352  0.00  0.00    +0.051 A 
ATOM      7  C   UNL     1       2.332  -6.109  -3.293  0.00  0.00    +0.131 A 
ATOM      8  N   UNL     1       1.951  -6.911  -2.313  0.00  0.00    -0.216 NA
ATOM      9  C   UNL     1       2.284  -8.189  -2.279  0.00  0.00    +0.142 A 
ATOM     10  N   UNL     1       3.019  -8.733  -3.229  0.00  0.00    -0.224 NA
ATOM     11  C   UNL     1       5.032  -6.210  -7.681  0.00  0.00    +0.052 C 
ENDROOT
BRANCH   7  12
ATOM     12  N   UNL     1       1.962  -4.776  -3.292  0.00  0.00    -0.330 N 
ATOM     13  H   UNL     1       2.360  -4.094  -4.058  0.00  0.00    +0.147 HD
BRANCH  12  14
ATOM     14  C   UNL     1       1.041  -4.273  -2.271  0.00  0.00    +0.084 C 
BRANCH  14  15
ATOM     15  C   UNL     1       0.798  -2.779  -2.494  0.00  0.00    -0.063 C 
BRANCH  15  16
ATOM     16  N   UNL     1      -0.126  -2.274  -1.470  0.00  0.00    +0.383 N 
ATOM     17  H   UNL     1      -1.081  -2.815  -1.539  0.00  0.00    -0.085 HD
ATOM     18  H   UNL     1       0.312  -2.429  -0.473  0.00  0.00    -0.085 HD
BRANCH  16  19
ATOM     19  C   UNL     1      -0.383  -0.839  -1.654  0.00  0.00    -0.049 C 
ATOM     20  C   UNL     1      -1.745  -0.481  -1.036  0.00  0.00    +0.008 C 
ATOM     21  C   UNL     1      -1.851   1.069  -0.962  0.00  0.00    +0.164 C 
ATOM     22  S   UNL     1      -0.141   1.498  -0.426  0.00  0.00    -0.033 S 
ATOM     23  O   UNL     1       0.323   2.598  -1.197  0.00  0.00    -0.174 OA
ATOM     24  O   UNL     1      -0.106   1.573   0.993  0.00  0.00    -0.174 OA
ATOM     25  C   UNL     1       0.739  -0.024  -0.966  0.00  0.00    +0.150 C 
ENDBRANCH  16  19
ENDBRANCH  15  16
ENDBRANCH  14  15
ENDBRANCH  12  14
ENDBRANCH   7  12
BRANCH   9  26
ATOM     26  C   UNL     1       1.813  -9.043  -1.130  0.00  0.00    +0.150 C 
BRANCH  26  27
ATOM     27  S   UNL     1       0.207  -9.778  -1.542  0.00  0.00    -0.117 S 
BRANCH  27  28
ATOM     28  C   UNL     1      -0.202 -10.734  -0.119  0.00  0.00    +0.008 A 
ATOM     29  C   UNL     1       0.667 -10.776   0.964  0.00  0.00    +0.016 A 
ATOM     30  C   UNL     1       0.342 -11.522   2.080  0.00  0.00    +0.021 A 
ATOM     31  C   UNL     1      -0.844 -12.235   2.115  0.00  0.00    +0.041 A 
ATOM     32  C   UNL     1      -1.708 -12.200   1.036  0.00  0.00    +0.021 A 
ATOM     33  C   UNL     1      -1.391 -11.452  -0.081  0.00  0.00    +0.016 A 
ATOM     34 CL   UNL     1      -1.247 -13.177   3.518  0.00  0.00    -0.084 Cl
ENDBRANCH  27  28
ENDBRANCH  26  27
ENDBRANCH   9  26
TORSDOF 8
