REMARK  Name = ZINC00038517
REMARK  3 active torsions:
REMARK  status: ('A' for Active; 'I' for Inactive)
REMARK    1  A    between atoms: C_4  and  C_7
REMARK    2  A    between atoms: N_9  and  C_10
REMARK    3  A    between atoms: C_11  and  C_19
REMARK                            x       y       z     vdW  Elec       q    Type
REMARK                         _______ _______ _______ _____ _____    ______ ____
ROOT
ATOM      1  C   UNL     1      -1.283   1.551   3.622  0.00  0.00    +0.084 A 
ATOM      2  C   UNL     1      -0.559   0.998   2.575  0.00  0.00    +0.068 A 
ATOM      3  C   UNL     1      -0.732   1.580   1.257  0.00  0.00    -0.023 A 
ATOM      4  C   UNL     1      -1.601   2.615   1.194  0.00  0.00    -0.004 A 
ATOM      5  S   UNL     1      -2.179   2.821   2.854  0.00  0.00    -0.077 S 
ATOM      6  C   UNL     1      -1.979   3.405  -0.021  0.00  0.00    +0.043 C 
ATOM      7  C   UNL     1      -0.956   3.111  -1.127  0.00  0.00    +0.005 C 
ATOM      8  C   UNL     1      -0.758   1.595  -1.227  0.00  0.00    +0.005 C 
ATOM      9  C   UNL     1      -0.013   1.086   0.008  0.00  0.00    +0.037 C 
ENDROOT
BRANCH   2  10
ATOM     10  C   UNL     1       0.350  -0.131   2.793  0.00  0.00    +0.244 C 
ATOM     11  O   UNL     1      -0.062  -1.272   2.692  0.00  0.00    -0.270 OA
ATOM     12  N   UNL     1       1.642   0.094   3.105  0.00  0.00    -0.325 N 
ATOM     13  H   UNL     1       1.970   1.003   3.185  0.00  0.00    +0.145 HD
ATOM     14  H   UNL     1       2.244  -0.653   3.249  0.00  0.00    +0.145 HD
ENDBRANCH   2  10
BRANCH   1  17
ATOM     15  C   UNL     1      -2.066   1.839   5.838  0.00  0.00    +0.221 C 
ATOM     16  O   UNL     1      -2.760   2.760   5.463  0.00  0.00    -0.275 OA
ATOM     17  N   UNL     1      -1.289   1.178   4.957  0.00  0.00    -0.279 N 
ATOM     18  H   UNL     1      -0.734   0.442   5.258  0.00  0.00    +0.155 HD
BRANCH  15  22
ATOM     19  C   UNL     1      -3.495   0.472   9.663  0.00  0.00    +0.000 C 
ATOM     20  C   UNL     1      -3.036   1.927   9.541  0.00  0.00    +0.001 C 
ATOM     21  C   UNL     1      -3.030   2.338   8.068  0.00  0.00    +0.013 C 
ATOM     22  C   UNL     1      -2.071   1.434   7.290  0.00  0.00    +0.075 C 
ATOM     23  C   UNL     1      -2.530  -0.020   7.411  0.00  0.00    +0.013 C 
ATOM     24  C   UNL     1      -2.536  -0.431   8.885  0.00  0.00    +0.001 C 
ENDBRANCH  15  22
ENDBRANCH   1  17
TORSDOF 3
