REMARK  Name = ZINC39609236
REMARK  13 active torsions:
REMARK  status: ('A' for Active; 'I' for Inactive)
REMARK    1  A    between atoms: C_1  and  C_2
REMARK    2  A    between atoms: C_5  and  C_9
REMARK    3  A    between atoms: C_7  and  C_8
REMARK    4  A    between atoms: C_9  and  C_10
REMARK    5  A    between atoms: C_10  and  N_11
REMARK    6  A    between atoms: C_12  and  C_14
REMARK    7  A    between atoms: C_25  and  C_27
REMARK    8  A    between atoms: C_29  and  O_37
REMARK    9  A    between atoms: C_30  and  O_35
REMARK   10  A    between atoms: C_31  and  O_33
REMARK   11  A    between atoms: O_33  and  C_34
REMARK   12  A    between atoms: O_35  and  C_36
REMARK   13  A    between atoms: O_37  and  C_38
REMARK                            x       y       z     vdW  Elec       q    Type
REMARK                         _______ _______ _______ _____ _____    ______ ____
ROOT
ATOM      1  C   UNL     1       2.858  -8.057   0.522  0.00  0.00    +0.100 C 
ATOM      2  C   UNL     1       2.180  -8.858   1.656  0.00  0.00    +0.121 C 
ATOM      3  N   UNL     1       3.038 -10.053   1.834  0.00  0.00    -0.296 N 
ATOM      4  C   UNL     1       4.421  -9.540   1.684  0.00  0.00    +0.115 C 
ATOM      5  C   UNL     1       4.328  -8.507   0.544  0.00  0.00    -0.004 C 
ATOM      6  C   UNL     1       5.240  -7.319   0.834  0.00  0.00    -0.010 C 
ATOM      7  C   UNL     1       6.700  -7.779   0.793  0.00  0.00    -0.082 C 
ATOM      8  N   UNL     1       7.001  -8.341  -0.529  0.00  0.00    +0.379 N 
ATOM      9  C   UNL     1       6.185  -9.539  -0.761  0.00  0.00    -0.082 C 
ATOM     10  C   UNL     1       4.703  -9.153  -0.786  0.00  0.00    -0.010 C 
ATOM     11  C   UNL     1       2.649 -11.321   2.077  0.00  0.00    +0.247 C 
ATOM     12  O   UNL     1       1.469 -11.611   2.046  0.00  0.00    -0.270 OA
ATOM     13  H   UNL     1       6.797  -7.654  -1.239  0.00  0.00    -0.086 HD
ATOM     14  H   UNL     1       7.978  -8.588  -0.574  0.00  0.00    -0.086 HD
ENDROOT
BRANCH  11  15
ATOM     15  C   UNL     1       3.656 -12.357   2.380  0.00  0.00    +0.044 A 
ATOM     16  C   UNL     1       4.921 -11.988   2.846  0.00  0.00    +0.062 A 
ATOM     17  C   UNL     1       5.862 -12.960   3.130  0.00  0.00    +0.166 A 
ATOM     18  C   UNL     1       5.550 -14.306   2.951  0.00  0.00    +0.204 A 
ATOM     19  C   UNL     1       4.291 -14.675   2.487  0.00  0.00    +0.166 A 
ATOM     20  C   UNL     1       3.344 -13.708   2.207  0.00  0.00    +0.062 A 
BRANCH  19  21
ATOM     21  O   UNL     1       3.990 -15.990   2.313  0.00  0.00    -0.491 OA
ATOM     22  C   UNL     1       2.679 -16.298   1.834  0.00  0.00    +0.277 C 
ENDBRANCH  19  21
BRANCH  18  23
ATOM     23  O   UNL     1       6.477 -15.259   3.230  0.00  0.00    -0.488 OA
ATOM     24  C   UNL     1       6.496 -15.775   4.563  0.00  0.00    +0.277 C 
ENDBRANCH  18  23
BRANCH  17  25
ATOM     25  O   UNL     1       7.093 -12.602   3.583  0.00  0.00    -0.491 OA
ATOM     26  C   UNL     1       7.344 -11.205   3.742  0.00  0.00    +0.277 C 
ENDBRANCH  17  25
ENDBRANCH  11  15
BRANCH   1  28
ATOM     27  N   UNL     1       2.704  -5.707  -0.235  0.00  0.00    -0.315 N 
ATOM     28  C   UNL     1       2.757  -6.578   0.792  0.00  0.00    +0.218 C 
ATOM     29  O   UNL     1       2.725  -6.171   1.934  0.00  0.00    -0.275 OA
ATOM     30  H   UNL     1       2.730  -6.033  -1.149  0.00  0.00    +0.149 HD
BRANCH  27  31
ATOM     31  C   UNL     1       2.607  -4.269   0.027  0.00  0.00    +0.109 C 
BRANCH  31  32
ATOM     32  C   UNL     1       2.562  -3.510  -1.300  0.00  0.00    +0.054 C 
BRANCH  32  37
ATOM     33  C   UNL     1       2.177   2.162  -0.267  0.00  0.00    +0.044 C 
ATOM     34  C   UNL     1       2.278   0.683  -0.537  0.00  0.00    -0.048 A 
ATOM     35  C   UNL     1       3.518   0.084  -0.653  0.00  0.00    +0.004 A 
ATOM     36  C   UNL     1       3.610  -1.272  -0.900  0.00  0.00    +0.004 A 
ATOM     37  C   UNL     1       2.462  -2.031  -1.030  0.00  0.00    -0.046 A 
ATOM     38  C   UNL     1       1.222  -1.433  -0.912  0.00  0.00    +0.007 A 
ATOM     39  C   UNL     1       1.129  -0.076  -0.661  0.00  0.00    -0.047 A 
ATOM     40  C   UNL     1      -0.223   0.575  -0.528  0.00  0.00    +0.044 C 
ENDBRANCH  32  37
ENDBRANCH  31  32
ENDBRANCH  27  31
ENDBRANCH   1  28
TORSDOF 8
