REMARK  Name = ZINC39693324
REMARK  7 active torsions:
REMARK  status: ('A' for Active; 'I' for Inactive)
REMARK    1  A    between atoms: C_10  and  C_11
REMARK    2  A    between atoms: C_11  and  C_12
REMARK    3  A    between atoms: N_14  and  C_15
REMARK    4  A    between atoms: C_15  and  C_16
REMARK    5  A    between atoms: C_16  and  N_17
REMARK    6  A    between atoms: C_18  and  C_20
REMARK    7  A    between atoms: C_31  and  C_33
REMARK                            x       y       z     vdW  Elec       q    Type
REMARK                         _______ _______ _______ _____ _____    ______ ____
ROOT
ATOM      1  N   UNL     1      10.248   1.204   5.256  0.00  0.00    -0.314 N 
ATOM      2  C   UNL     1      10.027   2.526   5.401  0.00  0.00    +0.218 C 
ATOM      3  O   UNL     1       9.727   3.200   4.438  0.00  0.00    -0.275 OA
ATOM      4  H   UNL     1      10.488   0.666   6.027  0.00  0.00    +0.149 HD
ENDROOT
BRANCH   2   5
ATOM      5  C   UNL     1      10.153   3.167   6.759  0.00  0.00    +0.100 C 
ATOM      6  C   UNL     1       9.239   4.410   6.854  0.00  0.00    +0.121 C 
ATOM      7  N   UNL     1      10.018   5.387   7.651  0.00  0.00    -0.300 N 
ATOM      8  C   UNL     1      11.411   5.227   7.170  0.00  0.00    +0.115 C 
ATOM      9  C   UNL     1      11.578   3.708   6.966  0.00  0.00    -0.004 C 
ATOM     10  C   UNL     1      12.432   3.432   5.732  0.00  0.00    -0.010 C 
ATOM     11  C   UNL     1      13.859   3.926   5.985  0.00  0.00    -0.082 C 
ATOM     12  N   UNL     1      14.417   3.238   7.155  0.00  0.00    +0.379 N 
ATOM     13  C   UNL     1      13.645   3.583   8.354  0.00  0.00    -0.082 C 
ATOM     14  C   UNL     1      12.208   3.075   8.202  0.00  0.00    -0.010 C 
ATOM     15  C   UNL     1       9.562   6.230   8.598  0.00  0.00    +0.219 C 
ATOM     16  O   UNL     1       8.399   6.188   8.939  0.00  0.00    -0.275 OA
ATOM     17  H   UNL     1      14.379   2.241   7.007  0.00  0.00    -0.086 HD
ATOM     18  H   UNL     1      15.378   3.520   7.283  0.00  0.00    -0.086 HD
BRANCH  15  19
ATOM     19  C   UNL     1      10.498   7.226   9.233  0.00  0.00    +0.079 C 
ATOM     20  C   UNL     1       9.985   7.598  10.630  0.00  0.00    +0.017 C 
ATOM     21  C   UNL     1      11.040   8.466  11.318  0.00  0.00    +0.027 C 
ATOM     22  C   UNL     1      11.471   9.577  10.406  0.00  0.00    -0.031 C 
ATOM     23  C   UNL     1      11.262   9.588   9.128  0.00  0.00    -0.030 C 
ATOM     24  C   UNL     1      10.556   8.495   8.380  0.00  0.00    +0.039 C 
ENDBRANCH  15  19
ENDBRANCH   2   5
BRANCH   1  25
ATOM     25  C   UNL     1      10.125   0.581   3.936  0.00  0.00    +0.123 C 
BRANCH  25  26
ATOM     26  C   UNL     1      10.425  -0.915   4.049  0.00  0.00    +0.123 C 
BRANCH  26  29
ATOM     27  C   UNL     1      10.524  -2.860   2.584  0.00  0.00    +0.217 C 
ATOM     28  O   UNL     1      10.823  -3.533   3.547  0.00  0.00    -0.275 OA
ATOM     29  N   UNL     1      10.303  -1.538   2.728  0.00  0.00    -0.314 N 
ATOM     30  H   UNL     1      10.063  -0.999   1.958  0.00  0.00    +0.149 HD
BRANCH  27  31
ATOM     31  C   UNL     1      10.398  -3.500   1.226  0.00  0.00    +0.131 C 
BRANCH  31  41
ATOM     32  C   UNL     1       7.705  -7.685   2.426  0.00  0.00    +0.001 A 
ATOM     33  C   UNL     1       7.414  -6.325   2.330  0.00  0.00    +0.001 A 
ATOM     34  C   UNL     1       8.372  -5.426   1.976  0.00  0.00    +0.009 A 
ATOM     35  C   UNL     1       9.677  -5.872   1.704  0.00  0.00    -0.014 A 
ATOM     36  C   UNL     1       9.974  -7.255   1.802  0.00  0.00    -0.018 A 
ATOM     37  C   UNL     1       8.957  -8.153   2.170  0.00  0.00    +0.008 A 
ATOM     38  C   UNL     1      11.278  -7.700   1.530  0.00  0.00    +0.008 A 
ATOM     39  C   UNL     1      12.237  -6.801   1.177  0.00  0.00    +0.001 A 
ATOM     40  C   UNL     1      11.945  -5.442   1.081  0.00  0.00    +0.005 A 
ATOM     41  C   UNL     1      10.693  -4.974   1.337  0.00  0.00    -0.031 A 
ENDBRANCH  31  41
ENDBRANCH  27  31
ENDBRANCH  26  29
ENDBRANCH  25  26
ENDBRANCH   1  25
TORSDOF 7
