REMARK  Name = ZINC12642721
REMARK  11 active torsions:
REMARK  status: ('A' for Active; 'I' for Inactive)
REMARK    1  A    between atoms: C_1  and  C_2
REMARK    2  A    between atoms: C_2  and  C_3
REMARK    3  A    between atoms: C_2  and  C_4
REMARK    4  A    between atoms: C_2  and  N_5
REMARK    5  A    between atoms: C_6  and  C_8
REMARK    6  A    between atoms: C_16  and  C_31
REMARK    7  A    between atoms: N_22  and  C_23
REMARK    8  A    between atoms: C_23  and  C_24
REMARK    9  A    between atoms: C_24  and  C_25
REMARK   10  A    between atoms: N_33  and  C_34
REMARK   11  A    between atoms: C_34  and  C_35
REMARK                            x       y       z     vdW  Elec       q    Type
REMARK                         _______ _______ _______ _____ _____    ______ ____
ROOT
ATOM      1  C   UNL     1       3.732   9.934   4.556  0.00  0.00    +0.198 C 
ATOM      2  C   UNL     1       3.562   8.592   3.914  0.00  0.00    +0.127 C 
ATOM      3  C   UNL     1       4.541   7.969   2.985  0.00  0.00    +0.009 C 
ATOM      4  C   UNL     1       4.110   6.707   2.869  0.00  0.00    +0.004 C 
ATOM      5  C   UNL     1       2.879   6.561   3.771  0.00  0.00    +0.155 C 
ATOM      6  O   UNL     1       3.216   7.523   4.835  0.00  0.00    -0.358 OA
ATOM      7  C   UNL     1       1.711   7.330   3.073  0.00  0.00    +0.122 C 
ATOM      8  C   UNL     1       2.219   8.782   3.116  0.00  0.00    +0.128 C 
ATOM      9  C   UNL     1       1.462   9.690   4.044  0.00  0.00    +0.223 C 
ATOM     10  O   UNL     1       0.254   9.781   4.107  0.00  0.00    -0.275 OA
ATOM     11  N   UNL     1       2.343  10.393   4.801  0.00  0.00    -0.286 N 
ENDROOT
BRANCH   1  13
ATOM     12  N   UNL     1       5.791  10.877   3.563  0.00  0.00    -0.309 N 
ATOM     13  C   UNL     1       4.445  10.881   3.626  0.00  0.00    +0.237 C 
ATOM     14  O   UNL     1       3.808  11.648   2.936  0.00  0.00    -0.274 OA
ATOM     15  H   UNL     1       6.301  10.263   4.115  0.00  0.00    +0.149 HD
BRANCH  12  17
ATOM     16  C   UNL     1       6.138  13.239   3.035  0.00  0.00    +0.031 C 
ATOM     17  C   UNL     1       6.485  11.798   2.659  0.00  0.00    +0.026 C 
ATOM     18  C   UNL     1       7.996  11.589   2.779  0.00  0.00    +0.031 C 
ATOM     19  C   UNL     1       6.046  11.527   1.219  0.00  0.00    +0.031 C 
ENDBRANCH  12  17
ENDBRANCH   1  13
BRANCH   7  20
ATOM     20  C   UNL     1       1.532   6.863   1.651  0.00  0.00    +0.220 C 
ATOM     21  O   UNL     1       1.783   7.612   0.731  0.00  0.00    -0.275 OA
ATOM     22  N   UNL     1       1.092   5.614   1.403  0.00  0.00    -0.310 N 
ATOM     23  H   UNL     1       0.891   5.015   2.139  0.00  0.00    +0.149 HD
BRANCH  22  24
ATOM     24  C   UNL     1       0.918   5.160   0.021  0.00  0.00    +0.146 C 
BRANCH  24  25
ATOM     25  C   UNL     1       0.421   3.738   0.017  0.00  0.00    +0.007 A 
ATOM     26  C   UNL     1      -0.855   3.279   0.027  0.00  0.00    +0.013 A 
ATOM     27  C   UNL     1      -1.077   1.915   0.017  0.00  0.00    +0.008 A 
ATOM     28  C   UNL     1      -0.013   1.076   0.008  0.00  0.00    +0.045 A 
ATOM     29  S   UNL     1       1.359   2.219   0.001  0.00  0.00    -0.100 S 
ENDBRANCH  24  25
ENDBRANCH  22  24
ENDBRANCH   7  20
BRANCH  11  30
ATOM     30  C   UNL     1       1.972  11.461   5.732  0.00  0.00    +0.113 C 
BRANCH  30  31
ATOM     31  C   UNL     1       1.709  10.862   7.116  0.00  0.00    +0.049 C 
BRANCH  31  32
ATOM     32  C   UNL     1       1.327  11.960   8.074  0.00  0.00    -0.072 C 
ATOM     33  C   UNL     1       0.068  12.192   8.262  0.00  0.00    -0.028 C 
ATOM     34  C   UNL     1      -0.464  13.257   9.176  0.00  0.00    +0.027 C 
ATOM     35  C   UNL     1       0.629  13.716  10.142  0.00  0.00    +0.004 C 
ATOM     36  C   UNL     1       1.894  14.028   9.332  0.00  0.00    +0.005 C 
ATOM     37  C   UNL     1       2.432  12.714   8.756  0.00  0.00    +0.030 C 
ENDBRANCH  31  32
ENDBRANCH  30  31
ENDBRANCH  11  30
TORSDOF 8
