REMARK  Name = ZINC09851026
REMARK  7 active torsions:
REMARK  status: ('A' for Active; 'I' for Inactive)
REMARK    1  A    between atoms: C_3  and  C_6
REMARK    2  A    between atoms: C_6  and  N_7
REMARK    3  A    between atoms: C_10  and  C_22
REMARK    4  A    between atoms: N_14  and  C_15
REMARK    5  A    between atoms: C_22  and  C_23
REMARK    6  A    between atoms: N_25  and  C_26
REMARK    7  A    between atoms: C_29  and  C_32
REMARK                            x       y       z     vdW  Elec       q    Type
REMARK                         _______ _______ _______ _____ _____    ______ ____
ROOT
ATOM      1  N   UNL     1      -3.649  -5.979   0.634  0.00  0.00    -0.245 N 
ATOM      2  C   UNL     1      -3.471  -5.128  -0.362  0.00  0.00    +0.235 C 
ATOM      3  O   UNL     1      -4.281  -5.003  -1.255  0.00  0.00    -0.274 OA
ATOM      4  C   UNL     1      -2.186  -4.317  -0.317  0.00  0.00    +0.149 C 
ATOM      5  S   UNL     1      -1.440  -4.966   1.230  0.00  0.00    -0.077 S 
ATOM      6  C   UNL     1      -2.731  -6.126   1.653  0.00  0.00    +0.164 C 
ATOM      7  N   UNL     1      -2.792  -6.929   2.689  0.00  0.00    -0.226 NA
ENDROOT
BRANCH   7   8
ATOM      8  C   UNL     1      -1.776  -6.938   3.608  0.00  0.00    +0.067 A 
ATOM      9  C   UNL     1      -0.446  -6.957   3.183  0.00  0.00    +0.030 A 
ATOM     10  C   UNL     1       0.573  -6.961   4.114  0.00  0.00    +0.040 A 
ATOM     11  C   UNL     1       0.278  -6.958   5.468  0.00  0.00    +0.124 A 
ATOM     12  C   UNL     1      -1.040  -6.945   5.895  0.00  0.00    +0.040 A 
ATOM     13  C   UNL     1      -2.067  -6.935   4.974  0.00  0.00    +0.030 A 
ATOM     14  F   UNL     1       1.279  -6.968   6.374  0.00  0.00    -0.205 F 
ENDBRANCH   7   8
BRANCH   1  15
ATOM     15  C   UNL     1      -4.865  -6.796   0.656  0.00  0.00    +0.158 C 
BRANCH  15  18
ATOM     16  C   UNL     1      -7.784  -4.643   1.822  0.00  0.00    +0.008 A 
ATOM     17  C   UNL     1      -6.876  -5.196   0.938  0.00  0.00    +0.013 A 
ATOM     18  C   UNL     1      -5.948  -6.065   1.408  0.00  0.00    +0.008 A 
ATOM     19  S   UNL     1      -6.335  -6.113   3.150  0.00  0.00    -0.100 S 
ATOM     20  C   UNL     1      -7.712  -4.978   3.133  0.00  0.00    +0.045 A 
ENDBRANCH  15  18
ENDBRANCH   1  15
BRANCH   4  21
ATOM     21  C   UNL     1      -2.480  -2.819  -0.205  0.00  0.00    +0.120 C 
BRANCH  21  22
ATOM     22  C   UNL     1      -1.183  -2.059  -0.100  0.00  0.00    +0.219 C 
ATOM     23  O   UNL     1      -0.128  -2.656  -0.113  0.00  0.00    -0.275 OA
ATOM     24  N   UNL     1      -1.197  -0.716   0.010  0.00  0.00    -0.285 N 
ATOM     25  H   UNL     1      -2.041  -0.244   0.087  0.00  0.00    +0.155 HD
BRANCH  24  26
ATOM     26  C   UNL     1       0.003  -0.005   0.011  0.00  0.00    +0.033 A 
ATOM     27  C   UNL     1       0.066   1.250  -0.588  0.00  0.00    +0.024 A 
ATOM     28  C   UNL     1       1.248   1.954  -0.589  0.00  0.00    +0.017 A 
ATOM     29  C   UNL     1       2.386   1.409   0.013  0.00  0.00    +0.063 A 
ATOM     30  C   UNL     1       2.318   0.148   0.615  0.00  0.00    +0.017 A 
ATOM     31  C   UNL     1       1.133  -0.551   0.611  0.00  0.00    +0.024 A 
BRANCH  29  32
ATOM     32  C   UNL     1       3.654   2.161   0.015  0.00  0.00    +0.387 C 
ATOM     33  O   UNL     1       4.642   1.686   0.540  0.00  0.00    -0.241 OA
ATOM     34  O   UNL     1       3.718   3.376  -0.565  0.00  0.00    -0.241 OA
ENDBRANCH  29  32
ENDBRANCH  24  26
ENDBRANCH  21  22
ENDBRANCH   4  21
TORSDOF 7
