REMARK  Name = ZINC08943225
REMARK  7 active torsions:
REMARK  status: ('A' for Active; 'I' for Inactive)
REMARK    1  A    between atoms: C_4  and  C_7
REMARK    2  A    between atoms: C_7  and  C_9
REMARK    3  A    between atoms: C_7  and  S_19
REMARK    4  A    between atoms: N_11  and  C_12
REMARK    5  A    between atoms: S_19  and  C_20
REMARK    6  A    between atoms: C_23  and  C_26
REMARK    7  A    between atoms: N_24  and  N_25
REMARK                            x       y       z     vdW  Elec       q    Type
REMARK                         _______ _______ _______ _____ _____    ______ ____
ROOT
ATOM      1  C   UNL     1       2.421  -4.239  -0.258  0.00  0.00    +0.170 C 
ENDROOT
BRANCH   1   5
ATOM      2  C   UNL     1       1.952  -5.984   3.612  0.00  0.00    +0.000 A 
ATOM      3  C   UNL     1       1.028  -6.248   2.618  0.00  0.00    +0.000 A 
ATOM      4  C   UNL     1       1.180  -5.683   1.366  0.00  0.00    +0.005 A 
ATOM      5  C   UNL     1       2.256  -4.854   1.107  0.00  0.00    -0.025 A 
ATOM      6  C   UNL     1       3.183  -4.595   2.099  0.00  0.00    +0.005 A 
ATOM      7  C   UNL     1       3.029  -5.157   3.353  0.00  0.00    +0.000 A 
ENDBRANCH   1   5
BRANCH   1   8
ATOM      8  C   UNL     1       2.407  -2.737  -0.137  0.00  0.00    +0.235 C 
ATOM      9  O   UNL     1       3.450  -2.118  -0.144  0.00  0.00    -0.274 OA
ATOM     10  N   UNL     1       1.236  -2.081  -0.021  0.00  0.00    -0.284 N 
ATOM     11  H   UNL     1       0.407  -2.579   0.062  0.00  0.00    +0.155 HD
BRANCH  10  12
ATOM     12  C   UNL     1       1.214  -0.681  -0.019  0.00  0.00    +0.034 A 
ATOM     13  C   UNL     1       2.137   0.029  -0.774  0.00  0.00    +0.026 A 
ATOM     14  C   UNL     1       2.114   1.411  -0.772  0.00  0.00    +0.040 A 
ATOM     15  C   UNL     1       1.170   2.087  -0.017  0.00  0.00    +0.124 A 
ATOM     16  C   UNL     1       0.248   1.380   0.737  0.00  0.00    +0.040 A 
ATOM     17  C   UNL     1       0.269  -0.001   0.738  0.00  0.00    +0.026 A 
ATOM     18  F   UNL     1       1.149   3.437  -0.016  0.00  0.00    -0.205 F 
ENDBRANCH  10  12
ENDBRANCH   1   8
BRANCH   1  19
ATOM     19  S   UNL     1       3.997  -4.771  -0.973  0.00  0.00    -0.067 S 
BRANCH  19  20
ATOM     20  C   UNL     1       3.689  -6.498  -1.139  0.00  0.00    +0.210 A 
ATOM     21  N   UNL     1       2.585  -7.129  -0.806  0.00  0.00    -0.121 NA
ATOM     22  N   UNL     1       2.700  -8.383  -1.061  0.00  0.00    -0.127 NA
ATOM     23  C   UNL     1       3.883  -8.631  -1.572  0.00  0.00    +0.182 A 
ATOM     24  N   UNL     1       4.551  -7.430  -1.643  0.00  0.00    -0.224 N 
BRANCH  23  25
ATOM     25  C   UNL     1       4.398  -9.950  -1.997  0.00  0.00    +0.021 A 
ATOM     26  C   UNL     1       5.762 -10.125  -2.235  0.00  0.00    +0.014 A 
ATOM     27  C   UNL     1       6.238 -11.359  -2.627  0.00  0.00    +0.039 A 
ATOM     28  C   UNL     1       5.363 -12.421  -2.795  0.00  0.00    +0.123 A 
ATOM     29  C   UNL     1       4.007 -12.250  -2.565  0.00  0.00    +0.039 A 
ATOM     30  C   UNL     1       3.521 -11.022  -2.168  0.00  0.00    +0.014 A 
ATOM     31  F   UNL     1       5.834 -13.626  -3.184  0.00  0.00    -0.205 F 
ENDBRANCH  23  25
BRANCH  24  32
ATOM     32  N   UNL     1       5.814  -7.216  -2.116  0.00  0.00    -0.295 N 
ATOM     33  H   UNL     1       6.497  -7.304  -1.378  0.00  0.00    +0.163 HD
ATOM     34  H   UNL     1       6.025  -7.840  -2.881  0.00  0.00    +0.163 HD
ENDBRANCH  24  32
ENDBRANCH  19  20
ENDBRANCH   1  19
TORSDOF 7
