REMARK  Name = ZINC24286608
REMARK  6 active torsions:
REMARK  status: ('A' for Active; 'I' for Inactive)
REMARK    1  A    between atoms: C_1  and  C_2
REMARK    2  A    between atoms: C_2  and  C_4
REMARK    3  A    between atoms: C_2  and  N_24
REMARK    4  A    between atoms: C_9  and  C_12
REMARK    5  A    between atoms: N_14  and  C_15
REMARK    6  A    between atoms: C_25  and  C_27
REMARK                            x       y       z     vdW  Elec       q    Type
REMARK                         _______ _______ _______ _____ _____    ______ ____
ROOT
ATOM      1  C   UNL     1       9.103   2.959  -2.289  0.00  0.00    +0.236 C 
ATOM      2  O   UNL     1       9.871   2.035  -2.450  0.00  0.00    -0.274 OA
ATOM      3  N   UNL     1       8.325   3.006  -1.190  0.00  0.00    -0.300 N 
ATOM      4  C   UNL     1       7.307   4.054  -1.037  0.00  0.00    +0.108 C 
ATOM      5  C   UNL     1       7.525   4.763   0.303  0.00  0.00    +0.032 C 
ATOM      6  C   UNL     1       7.533   3.726   1.429  0.00  0.00    +0.078 C 
ATOM      7  C   UNL     1       8.685   2.742   1.210  0.00  0.00    +0.032 C 
ATOM      8  C   UNL     1       8.479   2.010  -0.120  0.00  0.00    +0.108 C 
ENDROOT
BRANCH   6   9
ATOM      9  C   UNL     1       7.714   4.423   2.752  0.00  0.00    +0.220 C 
ATOM     10  O   UNL     1       7.826   5.631   2.792  0.00  0.00    -0.275 OA
ATOM     11  N   UNL     1       7.752   3.706   3.893  0.00  0.00    -0.285 N 
ATOM     12  H   UNL     1       7.737   2.607   3.851  0.00  0.00    +0.155 HD
BRANCH  11  13
ATOM     13  C   UNL     1       7.811   4.359   5.130  0.00  0.00    +0.037 A 
ATOM     14  C   UNL     1       7.179   5.584   5.299  0.00  0.00    +0.027 A 
ATOM     15  C   UNL     1       7.235   6.229   6.520  0.00  0.00    +0.051 A 
ATOM     16  C   UNL     1       7.922   5.657   7.578  0.00  0.00    +0.166 A 
ATOM     17  C   UNL     1       8.557   4.429   7.411  0.00  0.00    +0.168 A 
ATOM     18  C   UNL     1       8.501   3.783   6.188  0.00  0.00    +0.072 A 
ATOM     19  O   UNL     1       9.162   4.087   8.587  0.00  0.00    -0.453 OA
ATOM     20  C   UNL     1       9.229   5.302   9.354  0.00  0.00    +0.466 C 
ATOM     21  O   UNL     1       8.125   6.082   8.860  0.00  0.00    -0.453 OA
ENDBRANCH  11  13
ENDBRANCH   6   9
BRANCH   1  23
ATOM     22  C   UNL     1       7.758   3.865  -4.165  0.00  0.00    +0.038 C 
ATOM     23  C   UNL     1       9.018   4.056  -3.319  0.00  0.00    +0.156 C 
BRANCH  23  24
ATOM     24  N   UNL     1      10.199   4.005  -4.185  0.00  0.00    -0.304 N 
ATOM     25  C   UNL     1      10.615   5.117  -4.823  0.00  0.00    +0.220 C 
ATOM     26  O   UNL     1      10.012   6.160  -4.681  0.00  0.00    -0.275 OA
ATOM     27  H   UNL     1      10.747   3.060  -4.314  0.00  0.00    +0.149 HD
BRANCH  25  28
ATOM     28  C   UNL     1      11.830   5.065  -5.713  0.00  0.00    +0.048 C 
ATOM     29  C   UNL     1      11.594   4.058  -6.840  0.00  0.00    +0.019 C 
ATOM     30  C   UNL     1      12.827   4.005  -7.744  0.00  0.00    -0.009 C 
ATOM     31  C   UNL     1      13.081   5.390  -8.342  0.00  0.00    +0.007 C 
ATOM     32  C   UNL     1      13.318   6.397  -7.215  0.00  0.00    -0.009 C 
ATOM     33  C   UNL     1      12.084   6.450  -6.311  0.00  0.00    +0.019 C 
ATOM     34  C   UNL     1      14.534   5.966  -6.393  0.00  0.00    +0.007 C 
ATOM     35  C   UNL     1      14.280   4.581  -5.795  0.00  0.00    -0.009 C 
ATOM     36  C   UNL     1      14.043   3.574  -6.922  0.00  0.00    +0.007 C 
ATOM     37  C   UNL     1      13.047   4.634  -4.891  0.00  0.00    +0.019 C 
ENDBRANCH  25  28
ENDBRANCH  23  24
ENDBRANCH   1  23
TORSDOF 5
