REMARK  Name = ZINC19877491
REMARK  7 active torsions:
REMARK  status: ('A' for Active; 'I' for Inactive)
REMARK    1  A    between atoms: C_1  and  C_2
REMARK    2  A    between atoms: C_9  and  C_11
REMARK    3  A    between atoms: C_14  and  N_17
REMARK    4  A    between atoms: C_18  and  C_20
REMARK    5  A    between atoms: C_20  and  N_21
REMARK    6  A    between atoms: C_24  and  C_27
REMARK    7  A    between atoms: C_24  and  N_30
REMARK                            x       y       z     vdW  Elec       q    Type
REMARK                         _______ _______ _______ _____ _____    ______ ____
ROOT
ATOM      1  N   UNL     1       7.783   0.114   6.503  0.00  0.00    -0.287 N 
ATOM      2  C   UNL     1       6.776   0.386   5.650  0.00  0.00    +0.201 C 
ATOM      3  O   UNL     1       6.926   1.218   4.780  0.00  0.00    -0.278 OA
ATOM      4  H   UNL     1       7.675  -0.692   7.244  0.00  0.00    +0.155 HD
ENDROOT
BRANCH   1   8
ATOM      5  C   UNL     1      11.311   2.328   6.335  0.00  0.00    +0.007 A 
ATOM      6  C   UNL     1      10.813   1.897   7.567  0.00  0.00    +0.012 A 
ATOM      7  C   UNL     1       9.646   1.166   7.619  0.00  0.00    +0.024 A 
ATOM      8  C   UNL     1       8.965   0.857   6.447  0.00  0.00    +0.033 A 
ATOM      9  C   UNL     1       9.461   1.279   5.218  0.00  0.00    +0.024 A 
ATOM     10  C   UNL     1      10.624   2.015   5.160  0.00  0.00    +0.012 A 
BRANCH   5  19
ATOM     11  C   UNL     1      17.956   6.502   5.942  0.00  0.00    +0.044 C 
ATOM     12  C   UNL     1      16.735   5.704   6.321  0.00  0.00    -0.049 A 
ATOM     13  C   UNL     1      16.475   5.410   7.653  0.00  0.00    +0.005 A 
ATOM     14  C   UNL     1      15.382   4.694   8.026  0.00  0.00    +0.029 A 
ATOM     15  C   UNL     1      14.463   4.217   7.060  0.00  0.00    +0.079 A 
ATOM     16  C   UNL     1      14.756   4.531   5.712  0.00  0.00    +0.040 A 
ATOM     17  C   UNL     1      15.864   5.256   5.346  0.00  0.00    +0.020 A 
ATOM     18  S   UNL     1      13.403   3.775   4.845  0.00  0.00    -0.067 S 
ATOM     19  C   UNL     1      12.562   3.112   6.276  0.00  0.00    +0.109 A 
ATOM     20  N   UNL     1      13.338   3.504   7.263  0.00  0.00    -0.239 NA
ENDBRANCH   5  19
ENDBRANCH   1   8
BRANCH   2  21
ATOM     21  C   UNL     1       5.464  -0.344   5.777  0.00  0.00    +0.019 C 
BRANCH  21  22
ATOM     22  N   UNL     1       4.530   0.146   4.754  0.00  0.00    +0.386 N 
ATOM     23  C   UNL     1       4.988  -0.213   3.406  0.00  0.00    -0.076 C 
ATOM     24  C   UNL     1       4.073   0.435   2.365  0.00  0.00    +0.013 C 
ATOM     25  C   UNL     1       2.637  -0.048   2.582  0.00  0.00    +0.095 C 
ATOM     26  C   UNL     1       2.201   0.296   4.009  0.00  0.00    +0.013 C 
ATOM     27  C   UNL     1       3.170  -0.349   5.003  0.00  0.00    -0.076 C 
ATOM     28  H   UNL     1       4.503   1.244   4.817  0.00  0.00    -0.081 HD
BRANCH  25  29
ATOM     29  N   UNL     1       1.745   0.616   1.623  0.00  0.00    -0.289 NA
ATOM     30  C   UNL     1       0.373   0.105   1.739  0.00  0.00    +0.085 C 
ATOM     31  C   UNL     1      -0.494   0.711   0.632  0.00  0.00    +0.015 C 
ATOM     32  C   UNL     1      -0.484   2.236   0.760  0.00  0.00    +0.002 C 
ATOM     33  C   UNL     1       0.960   2.739   0.685  0.00  0.00    +0.015 C 
ATOM     34  C   UNL     1       1.784   2.074   1.790  0.00  0.00    +0.085 C 
ENDBRANCH  25  29
BRANCH  25  35
ATOM     35  C   UNL     1       2.572  -1.540   2.381  0.00  0.00    +0.231 C 
ATOM     36  O   UNL     1       2.582  -2.283   3.339  0.00  0.00    -0.274 OA
ATOM     37  N   UNL     1       2.504  -2.050   1.135  0.00  0.00    -0.328 N 
ATOM     38  H   UNL     1       2.457  -3.139   0.987  0.00  0.00    +0.145 HD
ATOM     39  H   UNL     1       2.495  -1.376   0.265  0.00  0.00    +0.145 HD
ENDBRANCH  25  35
ENDBRANCH  21  22
ENDBRANCH   2  21
TORSDOF 6
