REMARK  Name = ZINC13243852
REMARK  8 active torsions:
REMARK  status: ('A' for Active; 'I' for Inactive)
REMARK    1  A    between atoms: C_2  and  C_3
REMARK    2  A    between atoms: C_3  and  N_4
REMARK    3  A    between atoms: C_5  and  C_23
REMARK    4  A    between atoms: C_8  and  S_9
REMARK    5  A    between atoms: S_9  and  C_10
REMARK    6  A    between atoms: C_10  and  C_11
REMARK    7  A    between atoms: N_13  and  C_14
REMARK    8  A    between atoms: C_19  and  C_20
REMARK                            x       y       z     vdW  Elec       q    Type
REMARK                         _______ _______ _______ _____ _____    ______ ____
ROOT
ATOM      1  N   UNL     1      -1.937   1.336   1.015  0.00  0.00    -0.298 N 
ATOM      2  C   UNL     1      -1.782   1.897   2.261  0.00  0.00    +0.167 A 
ATOM      3  N   UNL     1      -2.628   1.295   3.064  0.00  0.00    -0.128 NA
ATOM      4  N   UNL     1      -3.293   0.408   2.414  0.00  0.00    -0.122 NA
ATOM      5  C   UNL     1      -2.915   0.393   1.155  0.00  0.00    +0.193 A 
ENDROOT
BRANCH   2   6
ATOM      6  C   UNL     1      -0.839   2.975   2.628  0.00  0.00    +0.038 A 
ATOM      7  C   UNL     1      -0.772   4.139   1.861  0.00  0.00    +0.014 A 
ATOM      8  C   UNL     1       0.105   5.144   2.211  0.00  0.00    +0.021 A 
ATOM      9  C   UNL     1       0.928   4.995   3.316  0.00  0.00    +0.042 A 
ATOM     10  C   UNL     1       0.871   3.841   4.078  0.00  0.00    +0.040 A 
ATOM     11  C   UNL     1      -0.007   2.830   3.741  0.00  0.00    +0.053 A 
ATOM     12 CL   UNL     1      -0.077   1.383   4.697  0.00  0.00    -0.083 Cl
ATOM     13 CL   UNL     1       2.035   6.261   3.745  0.00  0.00    -0.083 Cl
ENDBRANCH   2   6
BRANCH   1  14
ATOM     14  C   UNL     1      -1.210   1.682  -0.209  0.00  0.00    +0.152 C 
BRANCH  14  16
ATOM     15  C   UNL     1       1.227   1.567  -0.301  0.00  0.00    +0.005 C 
ATOM     16  C   UNL     1       0.089   0.920  -0.254  0.00  0.00    -0.013 C 
ENDBRANCH  14  16
ENDBRANCH   1  14
BRANCH   5  17
ATOM     17  S   UNL     1      -3.550  -0.651  -0.115  0.00  0.00    -0.077 S 
BRANCH  17  18
ATOM     18  C   UNL     1      -4.776  -1.588   0.832  0.00  0.00    +0.173 C 
BRANCH  18  19
ATOM     19  C   UNL     1      -5.466  -2.573  -0.076  0.00  0.00    +0.228 C 
ATOM     20  O   UNL     1      -5.159  -2.635  -1.248  0.00  0.00    -0.275 OA
ATOM     21  N   UNL     1      -6.424  -3.385   0.414  0.00  0.00    -0.284 N 
ATOM     22  H   UNL     1      -6.726  -3.280   1.330  0.00  0.00    +0.155 HD
BRANCH  21  23
ATOM     23  C   UNL     1      -6.979  -4.373  -0.394  0.00  0.00    +0.050 A 
ATOM     24  C   UNL     1      -6.258  -4.888  -1.461  0.00  0.00    +0.062 A 
ATOM     25  C   UNL     1      -6.810  -5.873  -2.260  0.00  0.00    +0.125 A 
ATOM     26  C   UNL     1      -8.091  -6.346  -2.006  0.00  0.00    +0.039 A 
ATOM     27  C   UNL     1      -8.822  -5.843  -0.954  0.00  0.00    +0.020 A 
ATOM     28  C   UNL     1      -8.274  -4.851  -0.135  0.00  0.00    +0.084 A 
ATOM     29  F   UNL     1      -6.101  -6.374  -3.295  0.00  0.00    -0.205 F 
BRANCH  28  30
ATOM     30  C   UNL     1      -9.051  -4.309   0.992  0.00  0.00    +0.388 C 
ATOM     31  O   UNL     1      -8.612  -3.381   1.643  0.00  0.00    -0.241 OA
ATOM     32  O   UNL     1     -10.249  -4.842   1.303  0.00  0.00    -0.241 OA
ENDBRANCH  28  30
ENDBRANCH  21  23
ENDBRANCH  18  19
ENDBRANCH  17  18
ENDBRANCH   5  17
TORSDOF 8
