REMARK  Name = ZINC44161632
REMARK  6 active torsions:
REMARK  status: ('A' for Active; 'I' for Inactive)
REMARK    1  A    between atoms: C_1  and  C_2
REMARK    2  A    between atoms: C_3  and  C_28
REMARK    3  A    between atoms: C_5  and  C_12
REMARK    4  A    between atoms: N_6  and  C_7
REMARK    5  A    between atoms: N_17  and  C_18
REMARK    6  A    between atoms: C_22  and  C_24
REMARK                            x       y       z     vdW  Elec       q    Type
REMARK                         _______ _______ _______ _____ _____    ______ ____
ROOT
ATOM      1  C   UNL     1       0.921  -3.276   1.376  0.00  0.00    +0.097 A 
ATOM      2  C   UNL     1       1.279  -3.100   2.684  0.00  0.00    +0.078 A 
ATOM      3  S   UNL     1       2.097  -4.654   3.018  0.00  0.00    -0.060 S 
ATOM      4  C   UNL     1       1.883  -5.376   1.397  0.00  0.00    +0.163 A 
ATOM      5  N   UNL     1       1.230  -4.418   0.765  0.00  0.00    -0.223 NA
ATOM      6  N   UNL     1       2.290  -6.615   0.930  0.00  0.00    -0.294 N 
ATOM      7  H   UNL     1       2.173  -6.843  -0.006  0.00  0.00    +0.154 HD
ENDROOT
BRANCH   1  12
ATOM      8  C   UNL     1      -0.993   1.243   0.198  0.00  0.00    +0.064 C 
ATOM      9  C   UNL     1      -0.647  -0.223   0.135  0.00  0.00    +0.029 A 
ATOM     10  C   UNL     1      -1.026  -1.100  -0.856  0.00  0.00    +0.058 A 
ATOM     11  C   UNL     1      -0.483  -2.368  -0.517  0.00  0.00    +0.042 A 
ATOM     12  C   UNL     1       0.194  -2.212   0.649  0.00  0.00    +0.069 A 
ATOM     13  N   UNL     1       0.094  -0.899   1.038  0.00  0.00    -0.339 N 
BRANCH  13  14
ATOM     14  C   UNL     1       0.694  -0.324   2.245  0.00  0.00    +0.088 C 
ATOM     15  C   UNL     1       0.619   1.216   2.190  0.00  0.00    +0.025 C 
ATOM     16  C   UNL     1       1.950   1.683   2.829  0.00  0.00    +0.002 C 
ATOM     17  C   UNL     1       2.967   0.641   2.303  0.00  0.00    +0.002 C 
ATOM     18  C   UNL     1       2.186  -0.690   2.317  0.00  0.00    +0.025 C 
ENDBRANCH  13  14
BRANCH  10  19
ATOM     19  C   UNL     1      -1.840  -0.784  -2.042  0.00  0.00    +0.243 C 
ATOM     20  O   UNL     1      -2.247   0.349  -2.217  0.00  0.00    -0.270 OA
ATOM     21  N   UNL     1      -2.135  -1.750  -2.934  0.00  0.00    -0.325 N 
ATOM     22  H   UNL     1      -1.810  -2.654  -2.796  0.00  0.00    +0.145 HD
ATOM     23  H   UNL     1      -2.671  -1.542  -3.716  0.00  0.00    +0.145 HD
ENDBRANCH  10  19
ENDBRANCH   1  12
BRANCH   6  24
ATOM     24  C   UNL     1       2.868  -7.538   1.806  0.00  0.00    +0.033 A 
ATOM     25  C   UNL     1       2.407  -7.639   3.113  0.00  0.00    +0.023 A 
ATOM     26  C   UNL     1       2.981  -8.551   3.977  0.00  0.00    +0.002 A 
ATOM     27  C   UNL     1       4.012  -9.364   3.542  0.00  0.00    +0.012 A 
ATOM     28  C   UNL     1       4.472  -9.266   2.242  0.00  0.00    +0.057 A 
ATOM     29  C   UNL     1       3.899  -8.360   1.371  0.00  0.00    +0.035 A 
BRANCH  28  30
ATOM     30  C   UNL     1       5.596 -10.154   1.772  0.00  0.00    +0.417 C 
ATOM     31  F   UNL     1       6.004 -10.984   2.822  0.00  0.00    -0.166 F 
ATOM     32  F   UNL     1       5.155 -10.938   0.702  0.00  0.00    -0.166 F 
ATOM     33  F   UNL     1       6.673  -9.363   1.358  0.00  0.00    -0.166 F 
ENDBRANCH  28  30
ENDBRANCH   6  24
TORSDOF 5
