REMARK  Name = ZINC09460737
REMARK  6 active torsions:
REMARK  status: ('A' for Active; 'I' for Inactive)
REMARK    1  A    between atoms: C_4  and  C_7
REMARK    2  A    between atoms: C_7  and  C_8
REMARK    3  A    between atoms: C_8  and  C_9
REMARK    4  A    between atoms: C_10  and  C_28
REMARK    5  A    between atoms: C_10  and  C_32
REMARK    6  A    between atoms: N_18  and  C_21
REMARK                            x       y       z     vdW  Elec       q    Type
REMARK                         _______ _______ _______ _____ _____    ______ ____
ROOT
ATOM      1  C   UNL     1       7.246  -0.429  -1.930  0.00  0.00    +0.075 C 
ATOM      2  C   UNL     1       8.475  -2.305  -1.042  0.00  0.00    +0.264 C 
ATOM      3  C   UNL     1       7.684  -3.138  -2.010  0.00  0.00    +0.098 A 
ATOM      4  C   UNL     1       7.742  -4.541  -1.957  0.00  0.00    +0.262 A 
ATOM      5  O   UNL     1       8.434  -5.096  -1.120  0.00  0.00    -0.267 OA
ATOM      6  N   UNL     1       7.027  -5.268  -2.838  0.00  0.00    -0.274 N 
ATOM      7  H   UNL     1       7.066  -6.266  -2.803  0.00  0.00    +0.173 HD
ATOM      8  C   UNL     1       6.261  -4.663  -3.765  0.00  0.00    +0.335 A 
ATOM      9  O   UNL     1       5.626  -5.339  -4.551  0.00  0.00    -0.246 OA
ATOM     10  N   UNL     1       6.187  -3.320  -3.835  0.00  0.00    -0.250 N 
ATOM     11  C   UNL     1       6.898  -2.543  -2.953  0.00  0.00    +0.124 A 
ATOM     12  N   UNL     1       6.819  -1.172  -3.003  0.00  0.00    -0.290 N 
ATOM     13  H   UNL     1       6.467  -0.733  -3.793  0.00  0.00    +0.155 HD
ATOM     14  N   UNL     1       8.022  -0.872  -0.949  0.00  0.00    -0.352 N 
ATOM     15  H   UNL     1       8.300  -0.268  -0.166  0.00  0.00    +0.162 HD
ENDROOT
BRANCH  10  16
ATOM     16  C   UNL     1       5.383  -2.714  -4.809  0.00  0.00    +0.053 A 
ATOM     17  C   UNL     1       4.057  -2.413  -4.527  0.00  0.00    +0.029 A 
ATOM     18  C   UNL     1       3.267  -1.811  -5.487  0.00  0.00    +0.040 A 
ATOM     19  C   UNL     1       3.794  -1.517  -6.734  0.00  0.00    +0.124 A 
ATOM     20  C   UNL     1       5.114  -1.821  -7.019  0.00  0.00    +0.040 A 
ATOM     21  C   UNL     1       5.909  -2.418  -6.060  0.00  0.00    +0.029 A 
ATOM     22  F   UNL     1       3.018  -0.933  -7.673  0.00  0.00    -0.205 F 
ENDBRANCH  10  16
BRANCH   2  23
ATOM     23  C   UNL     1       9.948  -2.319  -1.456  0.00  0.00    +0.426 C 
ATOM     24  F   UNL     1      10.698  -1.577  -0.537  0.00  0.00    -0.167 F 
ATOM     25  F   UNL     1      10.413  -3.638  -1.480  0.00  0.00    -0.167 F 
ATOM     26  F   UNL     1      10.080  -1.754  -2.729  0.00  0.00    -0.167 F 
ENDBRANCH   2  23
BRANCH   2  27
ATOM     27  C   UNL     1       8.344  -2.905   0.360  0.00  0.00    +0.426 C 
ATOM     28  F   UNL     1       7.006  -3.231   0.604  0.00  0.00    -0.167 F 
ATOM     29  F   UNL     1       9.129  -4.060   0.448  0.00  0.00    -0.167 F 
ATOM     30  F   UNL     1       8.778  -1.973   1.308  0.00  0.00    -0.167 F 
ENDBRANCH   2  27
BRANCH   1  31
ATOM     31  C   UNL     1       6.814   1.010  -1.817  0.00  0.00    +0.074 C 
BRANCH  31  32
ATOM     32  C   UNL     1       7.405   1.622  -0.546  0.00  0.00    +0.042 C 
BRANCH  32  36
ATOM     33  C   UNL     1       6.180   5.702  -0.227  0.00  0.00    +0.000 A 
ATOM     34  C   UNL     1       7.348   5.381  -0.893  0.00  0.00    +0.000 A 
ATOM     35  C   UNL     1       7.745   4.061  -0.997  0.00  0.00    +0.003 A 
ATOM     36  C   UNL     1       6.973   3.062  -0.433  0.00  0.00    -0.047 A 
ATOM     37  C   UNL     1       5.806   3.382   0.233  0.00  0.00    +0.003 A 
ATOM     38  C   UNL     1       5.409   4.703   0.336  0.00  0.00    +0.000 A 
ENDBRANCH  32  36
ENDBRANCH  31  32
ENDBRANCH   1  31
TORSDOF 6
