REMARK  Name = ZINC46566603
REMARK  9 active torsions:
REMARK  status: ('A' for Active; 'I' for Inactive)
REMARK    1  A    between atoms: C_1  and  C_2
REMARK    2  A    between atoms: C_4  and  C_33
REMARK    3  A    between atoms: C_5  and  N_9
REMARK    4  A    between atoms: C_6  and  C_8
REMARK    5  A    between atoms: C_10  and  C_12
REMARK    6  A    between atoms: C_12  and  N_13
REMARK    7  A    between atoms: C_14  and  C_16
REMARK    8  A    between atoms: C_18  and  C_28
REMARK    9  A    between atoms: N_19  and  C_21
REMARK                            x       y       z     vdW  Elec       q    Type
REMARK                         _______ _______ _______ _____ _____    ______ ____
ROOT
ATOM      1  N   UNL     1       0.657  -6.878   2.432  0.00  0.00    -0.301 N 
ATOM      2  C   UNL     1       0.667  -8.216   2.590  0.00  0.00    +0.265 C 
ATOM      3  O   UNL     1       0.116  -8.929   1.774  0.00  0.00    -0.268 OA
ATOM      4  H   UNL     1       1.096  -6.309   3.083  0.00  0.00    +0.150 HD
ENDROOT
BRANCH   2   5
ATOM      5  C   UNL     1       1.349  -8.817   3.755  0.00  0.00    +0.148 A 
ATOM      6  C   UNL     1       1.446 -10.194   4.046  0.00  0.00    +0.066 A 
ATOM      7  C   UNL     1       2.161 -10.270   5.213  0.00  0.00    +0.110 A 
ATOM      8  N   UNL     1       2.460  -8.985   5.575  0.00  0.00    -0.228 N 
ATOM      9  N   UNL     1       1.983  -8.165   4.710  0.00  0.00    -0.161 NA
BRANCH   8  10
ATOM     10  C   UNL     1       3.185  -8.620   6.716  0.00  0.00    +0.066 A 
ATOM     11  C   UNL     1       4.317  -9.337   7.081  0.00  0.00    +0.029 A 
ATOM     12  C   UNL     1       5.030  -8.974   8.206  0.00  0.00    +0.022 A 
ATOM     13  C   UNL     1       4.617  -7.897   8.971  0.00  0.00    +0.041 A 
ATOM     14  C   UNL     1       3.489  -7.181   8.611  0.00  0.00    +0.022 A 
ATOM     15  C   UNL     1       2.776  -7.536   7.482  0.00  0.00    +0.029 A 
ATOM     16 CL   UNL     1       5.515  -7.444  10.386  0.00  0.00    -0.084 Cl
ENDBRANCH   8  10
BRANCH   7  17
ATOM     17  C   UNL     1       2.533 -11.497   5.937  0.00  0.00    +0.153 A 
ATOM     18  C   UNL     1       2.481 -12.765   5.442  0.00  0.00    +0.051 A 
ATOM     19  C   UNL     1       2.924 -13.620   6.470  0.00  0.00    +0.042 A 
ATOM     20  C   UNL     1       3.223 -12.843   7.530  0.00  0.00    +0.196 A 
ATOM     21  O   UNL     1       2.991 -11.561   7.203  0.00  0.00    -0.461 OA
ENDBRANCH   7  17
ENDBRANCH   2   5
BRANCH   1  22
ATOM     22  C   UNL     1      -0.019  -6.282   1.277  0.00  0.00    +0.200 C 
BRANCH  22  24
ATOM     23  N   UNL     1      -0.433  -4.018   0.369  0.00  0.00    -0.284 N 
ATOM     24  C   UNL     1       0.115  -4.782   1.335  0.00  0.00    +0.234 C 
ATOM     25  O   UNL     1       0.715  -4.262   2.252  0.00  0.00    -0.274 OA
ATOM     26  H   UNL     1      -0.982  -4.426  -0.319  0.00  0.00    +0.155 HD
BRANCH  23  31
ATOM     27  C   UNL     1       0.468   1.583   0.325  0.00  0.00    +0.044 C 
ATOM     28  C   UNL     1       0.228   0.095   0.337  0.00  0.00    -0.050 A 
ATOM     29  C   UNL     1       0.567  -0.667  -0.766  0.00  0.00    +0.008 A 
ATOM     30  C   UNL     1       0.348  -2.031  -0.759  0.00  0.00    -0.029 A 
ATOM     31  C   UNL     1      -0.211  -2.637   0.359  0.00  0.00    +0.039 A 
ATOM     32  C   UNL     1      -0.549  -1.869   1.465  0.00  0.00    -0.029 A 
ATOM     33  C   UNL     1      -0.324  -0.506   1.453  0.00  0.00    +0.008 A 
ATOM     34  C   UNL     1      -1.156  -2.523   2.680  0.00  0.00    +0.045 C 
ATOM     35  C   UNL     1       0.716  -2.860  -1.962  0.00  0.00    +0.045 C 
ENDBRANCH  23  31
ENDBRANCH  22  24
ENDBRANCH   1  22
TORSDOF 6
