REMARK  Name = ZINC02995015
REMARK  9 active torsions:
REMARK  status: ('A' for Active; 'I' for Inactive)
REMARK    1  A    between atoms: C_1  and  C_2
REMARK    2  A    between atoms: C_2  and  C_3
REMARK    3  A    between atoms: C_2  and  C_4
REMARK    4  A    between atoms: C_7  and  C_10
REMARK    5  A    between atoms: N_12  and  C_13
REMARK    6  A    between atoms: C_13  and  N_15
REMARK    7  A    between atoms: N_15  and  C_16
REMARK    8  A    between atoms: C_20  and  N_22
REMARK    9  A    between atoms: C_23  and  C_25
REMARK                            x       y       z     vdW  Elec       q    Type
REMARK                         _______ _______ _______ _____ _____    ______ ____
ROOT
ATOM      1  C   UNL     1       4.758  -3.094  -0.051  0.00  0.00    +0.034 A 
ATOM      2  C   UNL     1       5.513  -2.436   0.912  0.00  0.00    +0.023 A 
ATOM      3  C   UNL     1       5.501  -1.056   0.977  0.00  0.00    +0.004 A 
ATOM      4  C   UNL     1       4.738  -0.326   0.085  0.00  0.00    +0.023 A 
ATOM      5  C   UNL     1       3.981  -0.978  -0.880  0.00  0.00    +0.035 A 
ATOM      6  C   UNL     1       3.986  -2.364  -0.944  0.00  0.00    +0.046 A 
ENDROOT
BRANCH   5   7
ATOM      7  N   UNL     1       3.209  -0.238  -1.781  0.00  0.00    -0.281 N 
ATOM      8  C   UNL     1       3.034  -0.683  -3.042  0.00  0.00    +0.250 C 
ATOM      9  O   UNL     1       3.628  -1.672  -3.425  0.00  0.00    -0.270 OA
ATOM     10  H   UNL     1       2.799   0.594  -1.500  0.00  0.00    +0.155 HD
BRANCH   8  11
ATOM     11  C   UNL     1       2.122   0.031  -3.957  0.00  0.00    +0.055 A 
ATOM     12  C   UNL     1       1.438   1.168  -3.519  0.00  0.00    +0.016 A 
ATOM     13  C   UNL     1       0.583   1.827  -4.376  0.00  0.00    +0.021 A 
ATOM     14  C   UNL     1       0.408   1.371  -5.673  0.00  0.00    +0.042 A 
ATOM     15  C   UNL     1       1.083   0.245  -6.114  0.00  0.00    +0.040 A 
ATOM     16  C   UNL     1       1.938  -0.427  -5.264  0.00  0.00    +0.054 A 
ATOM     17 CL   UNL     1       2.783  -1.839  -5.818  0.00  0.00    -0.083 Cl
ATOM     18 CL   UNL     1      -0.666   2.211  -6.747  0.00  0.00    -0.083 Cl
ENDBRANCH   8  11
ENDBRANCH   5   7
BRANCH   1  19
ATOM     19  N   UNL     1       4.770  -4.491  -0.117  0.00  0.00    -0.297 N 
ATOM     20  H   UNL     1       3.946  -4.977  -0.275  0.00  0.00    +0.154 HD
BRANCH  19  21
ATOM     21  C   UNL     1       5.928  -5.163   0.041  0.00  0.00    +0.141 C 
ATOM     22  S   UNL     1       7.404  -4.305   0.178  0.00  0.00    -0.018 S 
BRANCH  21  25
ATOM     23  C   UNL     1       7.083  -7.181   0.248  0.00  0.00    +0.250 C 
ATOM     24  O   UNL     1       8.130  -6.572   0.345  0.00  0.00    -0.270 OA
ATOM     25  N   UNL     1       5.925  -6.510   0.090  0.00  0.00    -0.264 N 
ATOM     26  H   UNL     1       5.089  -6.996   0.013  0.00  0.00    +0.157 HD
BRANCH  23  30
ATOM     27  C   UNL     1       7.073 -11.425   0.404  0.00  0.00    -0.045 A 
ATOM     28  C   UNL     1       8.267 -10.735   0.515  0.00  0.00    +0.004 A 
ATOM     29  C   UNL     1       8.277  -9.356   0.465  0.00  0.00    +0.013 A 
ATOM     30  C   UNL     1       7.080  -8.658   0.302  0.00  0.00    +0.037 A 
ATOM     31  C   UNL     1       5.878  -9.360   0.196  0.00  0.00    +0.013 A 
ATOM     32  C   UNL     1       5.882 -10.739   0.242  0.00  0.00    +0.004 A 
BRANCH  27  34
ATOM     33  C   UNL     1       6.209 -13.396   1.636  0.00  0.00    +0.012 C 
ATOM     34  C   UNL     1       7.069 -12.931   0.459  0.00  0.00    +0.013 C 
ATOM     35  C   UNL     1       6.494 -13.488  -0.844  0.00  0.00    +0.012 C 
ENDBRANCH  27  34
ENDBRANCH  23  30
ENDBRANCH  21  25
ENDBRANCH  19  21
ENDBRANCH   1  19
TORSDOF 7
