REMARK  Name = ZINC13977395
REMARK  11 active torsions:
REMARK  status: ('A' for Active; 'I' for Inactive)
REMARK    1  A    between atoms: C_1  and  C_2
REMARK    2  A    between atoms: C_5  and  C_9
REMARK    3  A    between atoms: N_11  and  N_12
REMARK    4  A    between atoms: N_12  and  C_13
REMARK    5  A    between atoms: C_13  and  N_15
REMARK    6  A    between atoms: C_16  and  C_18
REMARK    7  A    between atoms: C_19  and  C_20
REMARK    8  A    between atoms: C_23  and  O_28
REMARK    9  A    between atoms: C_24  and  O_26
REMARK   10  A    between atoms: O_26  and  C_27
REMARK   11  A    between atoms: O_28  and  C_29
REMARK                            x       y       z     vdW  Elec       q    Type
REMARK                         _______ _______ _______ _____ _____    ______ ____
ROOT
ATOM      1  C   UNL     1      -6.064   3.186   0.073  0.00  0.00    +0.153 C 
ATOM      2  S   UNL     1      -7.555   4.026   0.090  0.00  0.00    -0.017 S 
ENDROOT
BRANCH   1   3
ATOM      3  N   UNL     1      -6.050   1.838   0.067  0.00  0.00    -0.263 N 
ATOM      4  C   UNL     1      -7.210   1.152   0.074  0.00  0.00    +0.242 C 
ATOM      5  O   UNL     1      -8.270   1.750   0.086  0.00  0.00    -0.270 OA
ATOM      6  H   UNL     1      -5.205   1.361   0.057  0.00  0.00    +0.157 HD
BRANCH   4   7
ATOM      7  C   UNL     1      -7.195  -0.309   0.068  0.00  0.00    +0.068 C 
ATOM      8  C   UNL     1      -8.357  -0.997   0.075  0.00  0.00    +0.013 C 
BRANCH   8   9
ATOM      9  C   UNL     1      -8.342  -2.466   0.069  0.00  0.00    -0.021 A 
ATOM     10  C   UNL     1      -7.124  -3.156   0.054  0.00  0.00    +0.012 A 
ATOM     11  C   UNL     1      -7.113  -4.533   0.048  0.00  0.00    +0.050 A 
ATOM     12  C   UNL     1      -8.308  -5.241   0.056  0.00  0.00    +0.162 A 
ATOM     13  C   UNL     1      -9.525  -4.561   0.070  0.00  0.00    +0.162 A 
ATOM     14  C   UNL     1      -9.546  -3.181   0.082  0.00  0.00    +0.057 A 
BRANCH  13  15
ATOM     15  O   UNL     1     -10.693  -5.259   0.077  0.00  0.00    -0.491 OA
ATOM     16  C   UNL     1     -11.903  -4.498   0.091  0.00  0.00    +0.277 C 
ENDBRANCH  13  15
BRANCH  12  17
ATOM     17  O   UNL     1      -8.290  -6.599   0.050  0.00  0.00    -0.491 OA
ATOM     18  C   UNL     1      -7.009  -7.231   0.036  0.00  0.00    +0.277 C 
ENDBRANCH  12  17
ENDBRANCH   8   9
ENDBRANCH   4   7
ENDBRANCH   1   3
BRANCH   1  19
ATOM     19  N   UNL     1      -4.904   3.871   0.066  0.00  0.00    -0.245 N 
ATOM     20  H   UNL     1      -4.913   4.841   0.070  0.00  0.00    +0.172 HD
BRANCH  19  23
ATOM     21  C   UNL     1      -2.523   3.869   0.044  0.00  0.00    +0.260 C 
ATOM     22  O   UNL     1      -2.535   5.085   0.050  0.00  0.00    -0.269 OA
ATOM     23  N   UNL     1      -3.683   3.183   0.051  0.00  0.00    -0.231 N 
ATOM     24  H   UNL     1      -3.673   2.213   0.047  0.00  0.00    +0.173 HD
BRANCH  21  29
ATOM     25  C   UNL     1       2.489   1.042  -0.016  0.00  0.00    +0.045 C 
ATOM     26  C   UNL     1       1.177   1.782   0.000  0.00  0.00    -0.036 A 
ATOM     27  C   UNL     1      -0.013   1.076   0.008  0.00  0.00    +0.005 A 
ATOM     28  C   UNL     1      -1.217   1.748   0.017  0.00  0.00    +0.013 A 
ATOM     29  C   UNL     1      -1.235   3.143   0.029  0.00  0.00    +0.039 A 
ATOM     30  C   UNL     1      -0.032   3.851   0.022  0.00  0.00    +0.028 A 
ATOM     31  C   UNL     1       1.167   3.166   0.007  0.00  0.00    +0.021 A 
ATOM     32 BR   UNL     1       2.799   4.122  -0.003  0.00  0.00    -0.050 Br
ENDBRANCH  21  29
ENDBRANCH  19  23
ENDBRANCH   1  19
TORSDOF 8
