REMARK  Name = ZINC12006320
REMARK  6 active torsions:
REMARK  status: ('A' for Active; 'I' for Inactive)
REMARK    1  A    between atoms: C_1  and  C_2
REMARK    2  A    between atoms: C_11  and  N_20
REMARK    3  A    between atoms: C_13  and  C_15
REMARK    4  A    between atoms: C_21  and  C_23
REMARK    5  A    between atoms: C_25  and  C_33
REMARK    6  A    between atoms: C_27  and  C_29
REMARK                            x       y       z     vdW  Elec       q    Type
REMARK                         _______ _______ _______ _____ _____    ______ ____
ROOT
ATOM      1  C   UNL     1       4.905   4.926  -0.021  0.00  0.00    +0.066 C 
ATOM      2  C   UNL     1       3.426   4.638  -0.007  0.00  0.00    +0.047 A 
ATOM      3  C   UNL     1       2.531   5.667   0.006  0.00  0.00    +0.093 A 
ATOM      4  C   UNL     1       1.155   5.371   0.018  0.00  0.00    +0.253 A 
ATOM      5  O   UNL     1       0.326   6.266   0.031  0.00  0.00    -0.268 OA
ATOM      6  N   UNL     1       0.770   4.076   0.010  0.00  0.00    -0.291 N 
ATOM      7  H   UNL     1      -0.172   3.849   0.014  0.00  0.00    +0.172 HD
ATOM      8  C   UNL     1       1.710   3.093   0.002  0.00  0.00    +0.234 A 
ATOM      9  N   UNL     1       2.994   3.378  -0.009  0.00  0.00    -0.217 NA
ATOM     10  N   UNL     1       1.308   1.772  -0.001  0.00  0.00    -0.184 N 
ATOM     11  C   UNL     1       2.131   0.682  -0.015  0.00  0.00    +0.133 A 
ATOM     12  C   UNL     1       1.348  -0.427  -0.013  0.00  0.00    +0.077 A 
ATOM     13  C   UNL     1       0.002  -0.004   0.002  0.00  0.00    +0.130 A 
ATOM     14  N   UNL     1      -0.016   1.313   0.009  0.00  0.00    -0.159 NA
ENDROOT
BRANCH  13  15
ATOM     15  C   UNL     1      -1.183  -0.887   0.009  0.00  0.00    +0.155 A 
ATOM     16  C   UNL     1      -2.481  -0.480   0.030  0.00  0.00    +0.051 A 
ATOM     17  C   UNL     1      -3.271  -1.647   0.027  0.00  0.00    +0.042 A 
ATOM     18  C   UNL     1      -2.426  -2.696   0.014  0.00  0.00    +0.196 A 
ATOM     19  O   UNL     1      -1.166  -2.233   0.003  0.00  0.00    -0.461 OA
ENDBRANCH  13  15
BRANCH  11  20
ATOM     20  N   UNL     1       3.523   0.704  -0.027  0.00  0.00    -0.266 N 
ATOM     21  C   UNL     1       4.216  -0.452  -0.040  0.00  0.00    +0.249 C 
ATOM     22  O   UNL     1       3.625  -1.515  -0.041  0.00  0.00    -0.270 OA
ATOM     23  H   UNL     1       3.995   1.552  -0.027  0.00  0.00    +0.157 HD
BRANCH  21  24
ATOM     24  C   UNL     1       5.694  -0.428  -0.054  0.00  0.00    +0.038 A 
ATOM     25  C   UNL     1       6.375   0.790  -0.059  0.00  0.00    +0.025 A 
ATOM     26  C   UNL     1       7.755   0.805  -0.066  0.00  0.00    +0.056 A 
ATOM     27  C   UNL     1       8.462  -0.384  -0.079  0.00  0.00    +0.024 A 
ATOM     28  C   UNL     1       7.793  -1.595  -0.080  0.00  0.00    +0.056 A 
ATOM     29  C   UNL     1       6.414  -1.624  -0.067  0.00  0.00    +0.025 A 
BRANCH  28  30
ATOM     30  C   UNL     1       8.572  -2.885  -0.094  0.00  0.00    +0.417 C 
ATOM     31  F   UNL     1       7.684  -3.966  -0.091  0.00  0.00    -0.166 F 
ATOM     32  F   UNL     1       9.367  -2.937  -1.244  0.00  0.00    -0.166 F 
ATOM     33  F   UNL     1       9.388  -2.949   1.041  0.00  0.00    -0.166 F 
ENDBRANCH  28  30
BRANCH  26  34
ATOM     34  C   UNL     1       8.492   2.119  -0.065  0.00  0.00    +0.417 C 
ATOM     35  F   UNL     1       8.709   2.533  -1.383  0.00  0.00    -0.166 F 
ATOM     36  F   UNL     1       7.730   3.081   0.607  0.00  0.00    -0.166 F 
ATOM     37  F   UNL     1       9.722   1.963   0.583  0.00  0.00    -0.166 F 
ENDBRANCH  26  34
ENDBRANCH  21  24
ENDBRANCH  11  20
TORSDOF 5
