REMARK  Name = ZINC33127997
REMARK  5 active torsions:
REMARK  status: ('A' for Active; 'I' for Inactive)
REMARK    1  A    between atoms: C_4  and  C_7
REMARK    2  A    between atoms: C_7  and  C_8
REMARK    3  A    between atoms: C_8  and  C_10
REMARK    4  A    between atoms: C_8  and  N_21
REMARK    5  A    between atoms: N_24  and  C_25
REMARK                            x       y       z     vdW  Elec       q    Type
REMARK                         _______ _______ _______ _____ _____    ______ ____
ROOT
ATOM      1  C   UNL     1       4.840  -4.178   0.193  0.00  0.00    +0.165 C 
ENDROOT
BRANCH   1   2
ATOM      2  C   UNL     1       6.198  -4.561   0.723  0.00  0.00    +0.240 C 
ATOM      3  O   UNL     1       6.954  -3.705   1.129  0.00  0.00    -0.273 OA
ATOM      4  N   UNL     1       6.571  -5.856   0.745  0.00  0.00    -0.269 N 
ATOM      5  C   UNL     1       5.784  -6.967   0.203  0.00  0.00    +0.118 C 
ATOM      6  C   UNL     1       6.628  -8.225   0.465  0.00  0.00    +0.056 C 
ATOM      7  C   UNL     1       7.865  -7.714   1.168  0.00  0.00    -0.024 A 
ATOM      8  C   UNL     1       7.763  -6.337   1.295  0.00  0.00    +0.040 A 
ATOM      9  C   UNL     1       8.797  -5.636   1.918  0.00  0.00    +0.024 A 
ATOM     10  C   UNL     1       9.902  -6.307   2.397  0.00  0.00    +0.002 A 
ATOM     11  C   UNL     1       9.994  -7.680   2.265  0.00  0.00    +0.000 A 
ATOM     12  C   UNL     1       8.974  -8.382   1.650  0.00  0.00    +0.005 A 
ENDBRANCH   1   2
BRANCH   1  13
ATOM     13  N   UNL     1       4.501  -2.828   0.650  0.00  0.00    -0.288 N 
ATOM     14  C   UNL     1       3.210  -2.455   0.752  0.00  0.00    +0.304 C 
ATOM     15  O   UNL     1       2.326  -3.240   0.465  0.00  0.00    -0.252 OA
ATOM     16  N   UNL     1       2.898  -1.213   1.173  0.00  0.00    -0.269 N 
ATOM     17  H   UNL     1       5.300  -2.118   0.909  0.00  0.00    +0.151 HD
ATOM     18  H   UNL     1       3.695  -0.477   1.351  0.00  0.00    +0.156 HD
BRANCH  16  19
ATOM     19  C   UNL     1       1.558  -0.861   1.383  0.00  0.00    +0.038 A 
ATOM     20  C   UNL     1       0.647  -1.817   1.808  0.00  0.00    +0.027 A 
ATOM     21  C   UNL     1      -0.675  -1.471   2.014  0.00  0.00    +0.051 A 
ATOM     22  C   UNL     1      -1.095  -0.167   1.797  0.00  0.00    +0.162 A 
ATOM     23  C   UNL     1      -0.184   0.794   1.373  0.00  0.00    +0.164 A 
ATOM     24  C   UNL     1       1.142   0.445   1.166  0.00  0.00    +0.072 A 
ATOM     25  O   UNL     1      -0.576   2.080   1.163  0.00  0.00    -0.485 OA
ATOM     26  C   UNL     1      -1.981   2.310   1.020  0.00  0.00    +0.270 C 
ATOM     27  C   UNL     1      -2.709   1.547   2.135  0.00  0.00    +0.270 C 
ATOM     28  O   UNL     1      -2.403   0.155   1.997  0.00  0.00    -0.485 OA
ENDBRANCH  16  19
ENDBRANCH   1  13
BRANCH   1  29
ATOM     29  C   UNL     1       4.863  -4.207  -1.337  0.00  0.00    +0.067 C 
BRANCH  29  33
ATOM     30  C   UNL     1       0.914  -3.561  -2.833  0.00  0.00    +0.000 A 
ATOM     31  C   UNL     1       1.798  -2.503  -2.736  0.00  0.00    +0.000 A 
ATOM     32  C   UNL     1       3.076  -2.712  -2.252  0.00  0.00    +0.004 A 
ATOM     33  C   UNL     1       3.470  -3.979  -1.865  0.00  0.00    -0.045 A 
ATOM     34  C   UNL     1       2.587  -5.038  -1.966  0.00  0.00    +0.004 A 
ATOM     35  C   UNL     1       1.308  -4.828  -2.446  0.00  0.00    +0.000 A 
ENDBRANCH  29  33
ENDBRANCH   1  29
TORSDOF 5
