REMARK  Name = ZINC51151403
REMARK  3 active torsions:
REMARK  status: ('A' for Active; 'I' for Inactive)
REMARK    1  A    between atoms: C_8  and  N_15
REMARK    2  A    between atoms: C_10  and  C_12
REMARK    3  A    between atoms: N_15  and  N_16
REMARK                            x       y       z     vdW  Elec       q    Type
REMARK                         _______ _______ _______ _____ _____    ______ ____
ROOT
ATOM      1  C   UNL     1      -0.019   1.540   0.011  0.00  0.00    +0.010 C 
ATOM      2  C   UNL     1       1.486   1.874  -0.002  0.00  0.00    +0.037 C 
ATOM      3  C   UNL     1       2.178   0.668   0.641  0.00  0.00    -0.025 A 
ATOM      4  C   UNL     1       1.324  -0.367   0.625  0.00  0.00    -0.004 A 
ATOM      5  S   UNL     1       2.210  -1.711   1.381  0.00  0.00    -0.073 S 
ATOM      6  C   UNL     1       3.733  -0.872   1.721  0.00  0.00    +0.114 A 
ATOM      7  C   UNL     1       3.503   0.428   1.235  0.00  0.00    +0.052 A 
ATOM      8  C   UNL     1       4.584   1.340   1.381  0.00  0.00    +0.144 A 
ATOM      9  N   UNL     1       5.705   0.921   1.949  0.00  0.00    -0.215 NA
ATOM     10  C   UNL     1       5.851  -0.318   2.384  0.00  0.00    +0.135 A 
ATOM     11  N   UNL     1       4.883  -1.207   2.274  0.00  0.00    -0.224 NA
ATOM     12  C   UNL     1       0.002  -0.004   0.002  0.00  0.00    +0.043 C 
ENDROOT
BRANCH  10  13
ATOM     13  C   UNL     1       7.156  -0.725   3.019  0.00  0.00    +0.057 C 
ATOM     14  C   UNL     1       7.360  -2.210   3.325  0.00  0.00    +0.012 C 
ATOM     15  C   UNL     1       7.112  -1.221   4.466  0.00  0.00    +0.012 C 
ENDBRANCH  10  13
BRANCH   8  16
ATOM     16  N   UNL     1       4.467   2.645   0.938  0.00  0.00    -0.267 N 
ATOM     17  H   UNL     1       3.643   2.944   0.523  0.00  0.00    +0.167 HD
BRANCH  16  18
ATOM     18  N   UNL     1       5.512   3.512   1.084  0.00  0.00    -0.255 NA
ATOM     19  H   UNL     1       6.348   3.148   0.650  0.00  0.00    +0.140 HD
ATOM     20  H   UNL     1       5.281   4.422   0.715  0.00  0.00    +0.140 HD
ENDBRANCH  16  18
ENDBRANCH   8  16
TORSDOF 3
