REMARK  Name = ZINC35457239
REMARK  14 active torsions:
REMARK  status: ('A' for Active; 'I' for Inactive)
REMARK    1  A    between atoms: C_1  and  C_2
REMARK    2  A    between atoms: C_6  and  O_44
REMARK    3  A    between atoms: C_10  and  C_43
REMARK    4  A    between atoms: C_13  and  C_18
REMARK    5  A    between atoms: C_23  and  C_42
REMARK    6  A    between atoms: C_25  and  O_38
REMARK    7  A    between atoms: C_28  and  C_29
REMARK    8  A    between atoms: C_28  and  C_35
REMARK    9  A    between atoms: C_29  and  C_30
REMARK   10  A    between atoms: C_30  and  C_31
REMARK   11  A    between atoms: C_32  and  C_33
REMARK   12  A    between atoms: C_32  and  C_34
REMARK   13  A    between atoms: O_38  and  C_39
REMARK   14  A    between atoms: C_39  and  C_41
REMARK                            x       y       z     vdW  Elec       q    Type
REMARK                         _______ _______ _______ _____ _____    ______ ____
ROOT
ATOM      1  C   UNL     1      -0.342   0.989  -0.463  0.00  0.00    +0.016 C 
ATOM      2  C   UNL     1      -0.480  -0.268   0.398  0.00  0.00    +0.059 C 
ATOM      3  C   UNL     1      -1.947  -0.584   0.677  0.00  0.00    +0.041 C 
ATOM      4  C   UNL     1      -2.717   0.650   1.117  0.00  0.00    +0.185 C 
ATOM      5  C   UNL     1      -4.152   0.281   1.437  0.00  0.00    +0.168 C 
ATOM      6  O   UNL     1      -5.048   0.986   1.017  0.00  0.00    -0.294 OA
ATOM      7  C   UNL     1      -4.436  -0.927   2.283  0.00  0.00    +0.038 C 
ATOM      8  C   UNL     1      -3.535  -2.090   1.890  0.00  0.00    +0.009 C 
ATOM      9  C   UNL     1      -2.072  -1.729   1.685  0.00  0.00    -0.022 C 
ATOM     10  C   UNL     1      -1.363  -1.413   2.993  0.00  0.00    +0.015 C 
ATOM     11  C   UNL     1       0.131  -1.152   2.757  0.00  0.00    +0.075 C 
ATOM     12  C   UNL     1       0.260  -0.077   1.701  0.00  0.00    +0.137 C 
ATOM     13  O   UNL     1       0.938   0.904   1.894  0.00  0.00    -0.297 OA
ATOM     14  C   UNL     1      -1.387  -2.966   1.052  0.00  0.00    +0.012 C 
ATOM     15  C   UNL     1      -3.732  -3.284   2.819  0.00  0.00    +0.005 C 
ATOM     16  C   UNL     1      -5.211  -3.733   2.761  0.00  0.00    +0.009 C 
ATOM     17  C   UNL     1      -5.909  -2.873   1.741  0.00  0.00    +0.026 C 
ATOM     18  C   UNL     1      -5.878  -1.384   2.169  0.00  0.00    -0.009 C 
ATOM     19  C   UNL     1      -6.734  -0.764   1.057  0.00  0.00    +0.057 C 
ATOM     20  C   UNL     1      -7.880  -1.803   0.890  0.00  0.00    +0.204 C 
ATOM     21  C   UNL     1      -7.381  -3.103   1.516  0.00  0.00    -0.016 C 
ATOM     22  C   UNL     1      -8.085  -4.194   1.794  0.00  0.00    +0.044 C 
ATOM     23  C   UNL     1      -6.575  -1.188   3.522  0.00  0.00    +0.013 C 
ATOM     24  C   UNL     1      -4.239  -0.542   3.760  0.00  0.00    +0.020 C 
ENDROOT
BRANCH  22  25
ATOM     25  C   UNL     1      -7.407  -5.398   2.287  0.00  0.00    +0.383 C 
ATOM     26  O   UNL     1      -7.348  -5.618   3.490  0.00  0.00    -0.241 OA
ATOM     27  O   UNL     1      -6.900  -6.183   1.496  0.00  0.00    -0.241 OA
ENDBRANCH  22  25
BRANCH   4  28
ATOM     28  O   UNL     1      -2.109   1.284   2.239  0.00  0.00    -0.384 OA
ATOM     29  H   UNL     1      -2.575   2.074   2.545  0.00  0.00    +0.210 HD
ENDBRANCH   4  28
BRANCH  22  30
ATOM     30  C   UNL     1      -9.579  -4.196   1.603  0.00  0.00    +0.046 C 
BRANCH  30  31
ATOM     31  C   UNL     1      -9.916  -4.758   0.221  0.00  0.00    +0.032 C 
BRANCH  31  32
ATOM     32  C   UNL     1     -11.411  -4.760   0.030  0.00  0.00    -0.028 C 
ATOM     33  C   UNL     1     -12.025  -5.861  -0.327  0.00  0.00    -0.080 C 
ATOM     34  C   UNL     1     -11.228  -7.106  -0.623  0.00  0.00    +0.038 C 
ATOM     35  C   UNL     1     -13.527  -5.883  -0.442  0.00  0.00    +0.038 C 
ENDBRANCH  31  32
ENDBRANCH  30  31
ENDBRANCH  22  30
BRANCH  20  36
ATOM     36  O   UNL     1      -9.059  -1.353   1.556  0.00  0.00    -0.457 OA
BRANCH  36  37
ATOM     37  C   UNL     1      -9.930  -0.632   0.832  0.00  0.00    +0.305 C 
ATOM     38  O   UNL     1      -9.744  -0.469  -0.351  0.00  0.00    -0.251 OA
ATOM     39  C   UNL     1     -11.140  -0.025   1.495  0.00  0.00    +0.136 C 
ENDBRANCH  36  37
ENDBRANCH  20  36
TORSDOF 7
