REMARK  Name = ZINC22691453
REMARK  5 active torsions:
REMARK  status: ('A' for Active; 'I' for Inactive)
REMARK    1  A    between atoms: C_1  and  C_2
REMARK    2  A    between atoms: C_5  and  S_7
REMARK    3  A    between atoms: S_7  and  N_10
REMARK    4  A    between atoms: C_14  and  C_17
REMARK    5  A    between atoms: C_22  and  C_25
REMARK                            x       y       z     vdW  Elec       q    Type
REMARK                         _______ _______ _______ _____ _____    ______ ____
ROOT
ATOM      1  C   UNL     1      -0.014   1.209   0.009  0.00  0.00    +0.223 C 
ATOM      2  O   UNL     1       0.002  -0.004   0.002  0.00  0.00    -0.275 OA
ATOM      3  N   UNL     1       1.143   1.898   0.001  0.00  0.00    -0.264 N 
ATOM      4  C   UNL     1       2.356   1.220  -0.014  0.00  0.00    +0.165 A 
ATOM      5  N   UNL     1       3.577   1.713  -0.028  0.00  0.00    -0.225 NA
ATOM      6  C   UNL     1       4.639   0.919  -0.037  0.00  0.00    +0.082 A 
ATOM      7  C   UNL     1       4.430  -0.431  -0.043  0.00  0.00    +0.077 A 
ATOM      8  S   UNL     1       2.644  -0.492  -0.026  0.00  0.00    -0.060 S 
ATOM      9  H   UNL     1       1.129   2.998   0.007  0.00  0.00    +0.157 HD
ENDROOT
BRANCH   6  10
ATOM     10  C   UNL     1       6.012   1.480  -0.046  0.00  0.00    +0.026 A 
ATOM     11  C   UNL     1       7.171   0.780  -0.055  0.00  0.00    +0.093 A 
ATOM     12  N   UNL     1       8.233   1.643  -0.065  0.00  0.00    -0.360 N 
ATOM     13  H   UNL     1       9.260   1.251  -0.079  0.00  0.00    +0.165 HD
ATOM     14  C   UNL     1       7.784   2.945  -0.054  0.00  0.00    +0.047 A 
ATOM     15  C   UNL     1       6.379   2.905  -0.042  0.00  0.00    +0.009 A 
ATOM     16  C   UNL     1       5.648   4.092  -0.029  0.00  0.00    +0.010 A 
ATOM     17  C   UNL     1       6.302   5.293  -0.028  0.00  0.00    +0.001 A 
ATOM     18  C   UNL     1       7.689   5.339  -0.039  0.00  0.00    +0.002 A 
ATOM     19  C   UNL     1       8.430   4.178  -0.052  0.00  0.00    +0.026 A 
ENDBRANCH   6  10
BRANCH   1  24
ATOM     20  N   UNL     1      -3.749   1.662   0.164  0.00  0.00    -0.175 NA
ATOM     21  C   UNL     1      -3.905   2.597   1.287  0.00  0.00    +0.109 C 
ATOM     22  C   UNL     1      -2.738   3.589   1.268  0.00  0.00    +0.018 C 
ATOM     23  C   UNL     1      -1.417   2.816   1.274  0.00  0.00    +0.015 C 
ATOM     24  C   UNL     1      -1.330   1.944   0.019  0.00  0.00    +0.091 C 
ATOM     25  C   UNL     1      -2.481   0.934   0.023  0.00  0.00    +0.122 C 
BRANCH  20  26
ATOM     26  S   UNL     1      -4.978   1.434  -0.922  0.00  0.00    +0.067 S 
ATOM     27  O   UNL     1      -4.778   0.150  -1.498  0.00  0.00    -0.152 OA
ATOM     28  O   UNL     1      -6.181   1.789  -0.254  0.00  0.00    -0.152 OA
BRANCH  26  33
ATOM     29  C   UNL     1      -4.793   5.971  -4.714  0.00  0.00    +0.051 C 
ATOM     30  C   UNL     1      -4.682   4.687  -3.932  0.00  0.00    -0.011 A 
ATOM     31  C   UNL     1      -4.016   3.550  -4.249  0.00  0.00    +0.013 A 
ATOM     32  C   UNL     1      -4.049   2.486  -3.367  0.00  0.00    +0.036 A 
ATOM     33  C   UNL     1      -4.755   2.608  -2.216  0.00  0.00    +0.143 A 
ATOM     34  S   UNL     1      -5.393   4.270  -2.349  0.00  0.00    -0.074 S 
ENDBRANCH  26  33
ENDBRANCH  20  26
ENDBRANCH   1  24
TORSDOF 4
