REMARK  Name = ZINC02310865
REMARK  9 active torsions:
REMARK  status: ('A' for Active; 'I' for Inactive)
REMARK    1  A    between atoms: C_1  and  C_2
REMARK    2  A    between atoms: C_5  and  C_7
REMARK    3  A    between atoms: C_9  and  C_33
REMARK    4  A    between atoms: C_10  and  S_19
REMARK    5  A    between atoms: S_19  and  C_20
REMARK    6  A    between atoms: C_20  and  C_21
REMARK    7  A    between atoms: N_23  and  C_24
REMARK    8  A    between atoms: C_27  and  C_30
REMARK    9  A    between atoms: C_30  and  C_32
REMARK                            x       y       z     vdW  Elec       q    Type
REMARK                         _______ _______ _______ _____ _____    ______ ____
ROOT
ATOM      1  C   UNL     1       1.679  -3.226  -0.025  0.00  0.00    +0.132 C 
ATOM      2  C   UNL     1       2.523  -3.182  -1.264  0.00  0.00    +0.072 C 
ATOM      3  C   UNL     1       3.812  -2.750  -1.220  0.00  0.00    +0.080 C 
ATOM      4  N   UNL     1       4.365  -2.352  -0.025  0.00  0.00    -0.311 N 
ATOM      5  C   UNL     1       3.809  -2.740   1.164  0.00  0.00    +0.016 C 
ATOM      6  C   UNL     1       2.533  -3.172   1.217  0.00  0.00    +0.027 C 
ATOM      7  C   UNL     1       1.960  -3.587   2.432  0.00  0.00    +0.162 C 
ATOM      8  O   UNL     1       0.805  -3.965   2.448  0.00  0.00    -0.292 OA
ATOM      9  C   UNL     1       2.749  -3.572   3.712  0.00  0.00    +0.080 C 
ATOM     10  C   UNL     1       4.234  -3.762   3.385  0.00  0.00    +0.014 C 
ATOM     11  C   UNL     1       4.658  -2.667   2.409  0.00  0.00    +0.051 C 
ATOM     12  H   UNL     1       5.157  -1.791  -0.025  0.00  0.00    +0.152 HD
ENDROOT
BRANCH   1  17
ATOM     13  C   UNL     1      -0.030   1.520  -0.037  0.00  0.00    +0.086 C 
ATOM     14  C   UNL     1      -0.007   0.013  -0.032  0.00  0.00    +0.102 A 
ATOM     15  C   UNL     1      -1.087  -0.790  -0.027  0.00  0.00    +0.044 A 
ATOM     16  C   UNL     1      -0.608  -2.120  -0.024  0.00  0.00    +0.046 A 
ATOM     17  C   UNL     1       0.735  -2.051  -0.027  0.00  0.00    +0.118 A 
ATOM     18  O   UNL     1       1.093  -0.756  -0.038  0.00  0.00    -0.464 OA
ENDBRANCH   1  17
BRANCH   2  19
ATOM     19  C   UNL     1       1.963  -3.601  -2.513  0.00  0.00    +0.098 C 
ATOM     20  N   UNL     1       1.519  -3.934  -3.505  0.00  0.00    -0.191 NA
ENDBRANCH   2  19
BRANCH   3  21
ATOM     21  S   UNL     1       4.775  -2.702  -2.695  0.00  0.00    -0.100 S 
BRANCH  21  22
ATOM     22  C   UNL     1       6.386  -2.073  -2.147  0.00  0.00    +0.171 C 
BRANCH  22  23
ATOM     23  C   UNL     1       7.317  -1.982  -3.328  0.00  0.00    +0.227 C 
ATOM     24  O   UNL     1       6.933  -2.309  -4.430  0.00  0.00    -0.275 OA
ATOM     25  N   UNL     1       8.578  -1.537  -3.159  0.00  0.00    -0.285 N 
ATOM     26  H   UNL     1       8.866  -1.213  -2.291  0.00  0.00    +0.155 HD
BRANCH  25  27
ATOM     27  C   UNL     1       9.468  -1.542  -4.230  0.00  0.00    +0.033 A 
ATOM     28  C   UNL     1      10.816  -1.814  -4.011  0.00  0.00    +0.024 A 
ATOM     29  C   UNL     1      11.696  -1.821  -5.063  0.00  0.00    +0.013 A 
ATOM     30  C   UNL     1      11.236  -1.554  -6.359  0.00  0.00    +0.017 A 
ATOM     31  C   UNL     1       9.880  -1.281  -6.574  0.00  0.00    +0.013 A 
ATOM     32  C   UNL     1       9.007  -1.282  -5.517  0.00  0.00    +0.024 A 
BRANCH  30  33
ATOM     33  C   UNL     1      12.175  -1.559  -7.489  0.00  0.00    +0.160 C 
ATOM     34  O   UNL     1      13.349  -1.796  -7.300  0.00  0.00    -0.292 OA
ATOM     35  C   UNL     1      11.678  -1.272  -8.882  0.00  0.00    +0.091 C 
ENDBRANCH  30  33
ENDBRANCH  25  27
ENDBRANCH  22  23
ENDBRANCH  21  22
ENDBRANCH   3  21
TORSDOF 7
