REMARK  Name = ZINC01886585
REMARK  17 active torsions:
REMARK  status: ('A' for Active; 'I' for Inactive)
REMARK    1  A    between atoms: C_1  and  C_2
REMARK    2  A    between atoms: C_2  and  O_3
REMARK    3  A    between atoms: O_3  and  C_4
REMARK    4  A    between atoms: C_12  and  C_20
REMARK    5  A    between atoms: C_12  and  C_21
REMARK    6  A    between atoms: C_14  and  C_16
REMARK    7  A    between atoms: C_16  and  C_17
REMARK    8  A    between atoms: C_17  and  C_18
REMARK    9  A    between atoms: C_17  and  C_19
REMARK   10  A    between atoms: C_23  and  C_35
REMARK   11  A    between atoms: C_28  and  C_30
REMARK   12  A    between atoms: C_30  and  O_32
REMARK   13  A    between atoms: O_32  and  C_33
REMARK   14  A    between atoms: C_33  and  C_34
REMARK   15  A    between atoms: C_35  and  O_37
REMARK   16  A    between atoms: O_37  and  C_38
REMARK   17  A    between atoms: C_38  and  C_39
REMARK                            x       y       z     vdW  Elec       q    Type
REMARK                         _______ _______ _______ _____ _____    ______ ____
ROOT
ATOM      1  C   UNL     1       1.870  -1.653  -1.756  0.00  0.00    +0.121 A 
ATOM      2  C   UNL     1       1.443  -2.357  -0.640  0.00  0.00    +0.047 A 
ATOM      3  C   UNL     1       1.349  -3.738  -0.683  0.00  0.00    +0.028 A 
ATOM      4  C   UNL     1       1.687  -4.420  -1.833  0.00  0.00    +0.045 A 
ATOM      5  C   UNL     1       2.169  -3.720  -2.951  0.00  0.00    +0.006 A 
ATOM      6  C   UNL     1       2.231  -2.330  -2.910  0.00  0.00    +0.055 A 
ATOM      7  C   UNL     1       2.614  -4.468  -4.155  0.00  0.00    +0.004 C 
ATOM      8  C   UNL     1       2.218  -5.737  -4.294  0.00  0.00    +0.020 C 
ATOM      9  C   UNL     1       1.355  -6.406  -3.247  0.00  0.00    +0.068 C 
ATOM     10  N   UNL     1       1.588  -5.814  -1.926  0.00  0.00    -0.261 N 
ATOM     11  C   UNL     1       1.716  -6.604  -0.837  0.00  0.00    +0.221 C 
ATOM     12  O   UNL     1       1.670  -7.810  -0.954  0.00  0.00    -0.275 OA
ATOM     13  C   UNL     1      -0.120  -6.244  -3.625  0.00  0.00    +0.037 C 
ATOM     14  C   UNL     1       1.696  -7.899  -3.198  0.00  0.00    +0.037 C 
ATOM     15  S   UNL     1       2.661  -6.697  -5.706  0.00  0.00    -0.084 S 
ATOM     16  C   UNL     1       4.035  -5.844  -6.393  0.00  0.00    +0.095 C 
ATOM     17  C   UNL     1       4.272  -4.581  -6.076  0.00  0.00    +0.028 C 
ATOM     18  C   UNL     1       3.466  -3.755  -5.149  0.00  0.00    +0.117 C 
ATOM     19  S   UNL     1       2.447  -2.557  -6.104  0.00  0.00    -0.105 S 
ATOM     20  C   UNL     1       3.498  -1.139  -6.218  0.00  0.00    +0.064 C 
ATOM     21  C   UNL     1       4.515  -1.137  -5.344  0.00  0.00    +0.100 C 
ATOM     22  S   UNL     1       4.570  -2.558  -4.291  0.00  0.00    -0.091 S 
ENDROOT
BRANCH  21  23
ATOM     23  C   UNL     1       5.460  -0.088  -5.267  0.00  0.00    +0.346 C 
ATOM     24  O   UNL     1       6.364  -0.141  -4.453  0.00  0.00    -0.244 OA
BRANCH  23  25
ATOM     25  O   UNL     1       5.361   0.972  -6.097  0.00  0.00    -0.461 OA
BRANCH  25  26
ATOM     26  C   UNL     1       6.350   1.995  -5.965  0.00  0.00    +0.229 C 
ATOM     27  C   UNL     1       6.076   3.105  -6.981  0.00  0.00    +0.048 C 
ENDBRANCH  25  26
ENDBRANCH  23  25
ENDBRANCH  21  23
BRANCH  16  28
ATOM     28  C   UNL     1       4.932  -6.544  -7.332  0.00  0.00    +0.346 C 
ATOM     29  O   UNL     1       5.884  -5.961  -7.812  0.00  0.00    -0.244 OA
BRANCH  28  30
ATOM     30  O   UNL     1       4.696  -7.830  -7.659  0.00  0.00    -0.461 OA
BRANCH  30  31
ATOM     31  C   UNL     1       5.604  -8.445  -8.574  0.00  0.00    +0.229 C 
ATOM     32  C   UNL     1       5.177  -9.893  -8.821  0.00  0.00    +0.048 C 
ENDBRANCH  30  31
ENDBRANCH  28  30
ENDBRANCH  16  28
BRANCH   1  33
ATOM     33  O   UNL     1       1.942  -0.296  -1.717  0.00  0.00    -0.492 OA
BRANCH  33  35
ATOM     34  C   UNL     1       1.702   1.856  -0.643  0.00  0.00    +0.048 C 
ATOM     35  C   UNL     1       1.555   0.340  -0.497  0.00  0.00    +0.225 C 
ENDBRANCH  33  35
ENDBRANCH   1  33
BRANCH  11  36
ATOM     36  C   UNL     1       1.917  -5.986   0.523  0.00  0.00    +0.099 C 
BRANCH  36  37
ATOM     37  C   UNL     1       2.391  -7.058   1.505  0.00  0.00    -0.008 C 
ATOM     38  C   UNL     1       3.772  -7.563   1.083  0.00  0.00    +0.008 C 
ATOM     39  C   UNL     1       2.475  -6.460   2.911  0.00  0.00    +0.008 C 
ENDBRANCH  36  37
ENDBRANCH  11  36
TORSDOF 10
