REMARK  Name = ZINC12561594
REMARK  6 active torsions:
REMARK  status: ('A' for Active; 'I' for Inactive)
REMARK    1  A    between atoms: C_4  and  O_32
REMARK    2  A    between atoms: C_5  and  C_7
REMARK    3  A    between atoms: C_20  and  C_22
REMARK    4  A    between atoms: C_27  and  O_28
REMARK    5  A    between atoms: O_28  and  C_29
REMARK    6  A    between atoms: O_32  and  C_33
REMARK                            x       y       z     vdW  Elec       q    Type
REMARK                         _______ _______ _______ _____ _____    ______ ____
ROOT
ATOM      1  C   UNL     1       1.250  -2.156  -0.022  0.00  0.00    +0.017 C 
ATOM      2  C   UNL     1       0.105  -2.850   0.087  0.00  0.00    -0.023 C 
ATOM      3  C   UNL     1      -1.235  -2.147   0.101  0.00  0.00    +0.037 C 
ATOM      4  C   UNL     1      -2.090  -2.817   1.186  0.00  0.00    +0.009 C 
ATOM      5  C   UNL     1      -2.311  -4.280   0.811  0.00  0.00    +0.035 C 
ATOM      6  C   UNL     1      -1.012  -4.979   0.540  0.00  0.00    -0.020 C 
ATOM      7  C   UNL     1       0.115  -4.328   0.191  0.00  0.00    +0.046 C 
ATOM      8  N   UNL     1       1.274  -4.997  -0.065  0.00  0.00    -0.326 N 
ATOM      9  C   UNL     1       1.413  -6.298  -0.003  0.00  0.00    +0.215 C 
ATOM     10  N   UNL     1       2.474  -7.106  -0.224  0.00  0.00    -0.206 NA
ATOM     11  C   UNL     1       2.139  -8.354  -0.039  0.00  0.00    +0.203 C 
ATOM     12  N   UNL     1       0.827  -8.424   0.318  0.00  0.00    -0.251 N 
ATOM     13  N   UNL     1       0.352  -7.111   0.343  0.00  0.00    -0.210 N 
ATOM     14  C   UNL     1      -0.945  -6.493   0.651  0.00  0.00    +0.159 C 
ATOM     15  H   UNL     1       0.321  -9.228   0.515  0.00  0.00    +0.171 HD
ATOM     16  H   UNL     1       2.052  -4.472  -0.312  0.00  0.00    +0.169 HD
ENDROOT
BRANCH   1  21
ATOM     17  C   UNL     1       0.221   1.194  -1.360  0.00  0.00    +0.001 A 
ATOM     18  C   UNL     1       1.137   2.027  -0.740  0.00  0.00    +0.004 A 
ATOM     19  C   UNL     1       2.091   1.506   0.114  0.00  0.00    +0.046 A 
ATOM     20  C   UNL     1       2.137   0.143   0.355  0.00  0.00    +0.134 A 
ATOM     21  C   UNL     1       1.211  -0.705  -0.271  0.00  0.00    +0.017 A 
ATOM     22  C   UNL     1       0.252  -0.165  -1.131  0.00  0.00    +0.011 A 
BRANCH  20  23
ATOM     23  O   UNL     1       3.074  -0.371   1.193  0.00  0.00    -0.434 OA
BRANCH  23  24
ATOM     24  C   UNL     1       3.984   0.554   1.793  0.00  0.00    +0.541 C 
ATOM     25  F   UNL     1       4.699   1.221   0.792  0.00  0.00    -0.166 F 
ATOM     26  F   UNL     1       3.268   1.484   2.554  0.00  0.00    -0.166 F 
ENDBRANCH  23  24
ENDBRANCH  20  23
ENDBRANCH   1  21
BRANCH  14  27
ATOM     27  C   UNL     1      -1.342  -6.877   2.054  0.00  0.00    +0.021 A 
ATOM     28  C   UNL     1      -0.372  -7.073   3.018  0.00  0.00    +0.009 A 
ATOM     29  C   UNL     1      -0.736  -7.426   4.304  0.00  0.00    +0.001 A 
ATOM     30  C   UNL     1      -2.070  -7.583   4.629  0.00  0.00    +0.004 A 
ATOM     31  C   UNL     1      -3.044  -7.389   3.669  0.00  0.00    +0.046 A 
ATOM     32  C   UNL     1      -2.682  -7.029   2.378  0.00  0.00    +0.132 A 
BRANCH  32  33
ATOM     33  O   UNL     1      -3.638  -6.832   1.433  0.00  0.00    -0.434 OA
BRANCH  33  34
ATOM     34  C   UNL     1      -4.997  -7.006   1.839  0.00  0.00    +0.541 C 
ATOM     35  F   UNL     1      -5.183  -8.316   2.294  0.00  0.00    -0.166 F 
ATOM     36  F   UNL     1      -5.295  -6.107   2.868  0.00  0.00    -0.166 F 
ENDBRANCH  33  34
ENDBRANCH  32  33
ENDBRANCH  14  27
TORSDOF 6
