REMARK  Name = ZINC00675116
REMARK  8 active torsions:
REMARK  status: ('A' for Active; 'I' for Inactive)
REMARK    1  A    between atoms: C_1  and  O_2
REMARK    2  A    between atoms: O_2  and  C_3
REMARK    3  A    between atoms: C_6  and  N_11
REMARK    4  A    between atoms: C_8  and  O_9
REMARK    5  A    between atoms: O_9  and  C_10
REMARK    6  A    between atoms: C_12  and  C_14
REMARK    7  A    between atoms: C_19  and  C_31
REMARK    8  A    between atoms: C_22  and  C_25
REMARK                            x       y       z     vdW  Elec       q    Type
REMARK                         _______ _______ _______ _____ _____    ______ ____
ROOT
ATOM      1  C   UNL     1       0.438   8.226  -1.356  0.00  0.00    +0.163 A 
ATOM      2  C   UNL     1       0.297   9.631  -1.372  0.00  0.00    +0.089 A 
ATOM      3  C   UNL     1       0.856  10.088  -2.518  0.00  0.00    +0.133 A 
ATOM      4  N   UNL     1       1.327   9.011  -3.209  0.00  0.00    -0.237 N 
ATOM      5  N   UNL     1       1.055   7.862  -2.466  0.00  0.00    -0.163 NA
ATOM      6  C   UNL     1       1.999   9.098  -4.511  0.00  0.00    +0.215 C 
ATOM      7  C   UNL     1       2.403  10.562  -4.734  0.00  0.00    +0.066 C 
ATOM      8  C   UNL     1       1.212  11.464  -4.396  0.00  0.00    +0.140 C 
ATOM      9  N   UNL     1       0.946  11.410  -2.950  0.00  0.00    -0.318 N 
ATOM     10 BR   UNL     1      -0.520  10.685  -0.032  0.00  0.00    -0.044 Br
ATOM     11  H   UNL     1       0.109  11.924  -2.717  0.00  0.00    +0.148 HD
ENDROOT
BRANCH   8  12
ATOM     12  C   UNL     1      -0.005  10.991  -5.149  0.00  0.00    +0.127 A 
ATOM     13  C   UNL     1      -0.486  11.529  -6.284  0.00  0.00    +0.048 A 
ATOM     14  C   UNL     1      -1.631  10.779  -6.639  0.00  0.00    +0.057 A 
ATOM     15  C   UNL     1      -1.781   9.827  -5.700  0.00  0.00    +0.170 A 
ATOM     16  O   UNL     1      -0.789   9.957  -4.803  0.00  0.00    -0.451 OA
ATOM     17 BR   UNL     1      -3.150   8.523  -5.654  0.00  0.00    -0.008 Br
ENDBRANCH   8  12
BRANCH   1  19
ATOM     18  N   UNL     1       0.165   5.991  -0.398  0.00  0.00    -0.280 N 
ATOM     19  C   UNL     1      -0.028   7.320  -0.287  0.00  0.00    +0.270 C 
ATOM     20  O   UNL     1      -0.587   7.774   0.693  0.00  0.00    -0.268 OA
ATOM     21  H   UNL     1       0.677   5.636  -1.141  0.00  0.00    +0.155 HD
BRANCH  18  25
ATOM     22  C   UNL     1      -1.447   3.405   2.452  0.00  0.00    +0.162 A 
ATOM     23  C   UNL     1      -2.117   4.570   2.115  0.00  0.00    +0.051 A 
ATOM     24  C   UNL     1      -1.584   5.426   1.169  0.00  0.00    +0.027 A 
ATOM     25  C   UNL     1      -0.373   5.123   0.560  0.00  0.00    +0.037 A 
ATOM     26  C   UNL     1       0.303   3.959   0.900  0.00  0.00    +0.072 A 
ATOM     27  C   UNL     1      -0.231   3.101   1.848  0.00  0.00    +0.163 A 
BRANCH  22  29
ATOM     28  C   UNL     1      -3.227   2.936   3.959  0.00  0.00    +0.277 C 
ATOM     29  O   UNL     1      -1.976   2.561   3.379  0.00  0.00    -0.491 OA
ENDBRANCH  22  29
BRANCH  27  30
ATOM     30  O   UNL     1       0.429   1.961   2.182  0.00  0.00    -0.491 OA
ATOM     31  C   UNL     1       1.669   1.710   1.517  0.00  0.00    +0.277 C 
ENDBRANCH  27  30
ENDBRANCH  18  25
ENDBRANCH   1  19
BRANCH   6  32
ATOM     32  C   UNL     1       3.245   8.210  -4.511  0.00  0.00    +0.412 C 
ATOM     33  F   UNL     1       2.873   6.883  -4.270  0.00  0.00    -0.168 F 
ATOM     34  F   UNL     1       3.880   8.298  -5.754  0.00  0.00    -0.168 F 
ATOM     35  F   UNL     1       4.122   8.638  -3.508  0.00  0.00    -0.168 F 
ENDBRANCH   6  32
TORSDOF 6
