REMARK  Name = ZINC40325717
REMARK  8 active torsions:
REMARK  status: ('A' for Active; 'I' for Inactive)
REMARK    1  A    between atoms: C_4  and  C_7
REMARK    2  A    between atoms: C_7  and  C_8
REMARK    3  A    between atoms: C_8  and  N_9
REMARK    4  A    between atoms: C_11  and  C_16
REMARK    5  A    between atoms: N_18  and  C_19
REMARK    6  A    between atoms: C_20  and  C_28
REMARK    7  A    between atoms: N_30  and  C_31
REMARK    8  A    between atoms: C_31  and  C_32
REMARK                            x       y       z     vdW  Elec       q    Type
REMARK                         _______ _______ _______ _____ _____    ______ ____
ROOT
ATOM      1  C   UNL     1       9.381  -6.122   2.043  0.00  0.00    +0.084 A 
ATOM      2  C   UNL     1      10.645  -6.674   1.913  0.00  0.00    +0.069 A 
ATOM      3  C   UNL     1      10.949  -7.838   2.728  0.00  0.00    -0.023 A 
ATOM      4  C   UNL     1       9.932  -8.237   3.522  0.00  0.00    -0.004 A 
ATOM      5  S   UNL     1       8.628  -7.088   3.193  0.00  0.00    -0.077 S 
ATOM      6  C   UNL     1       9.932  -9.396   4.470  0.00  0.00    +0.043 C 
ATOM      7  C   UNL     1      11.130 -10.295   4.131  0.00  0.00    +0.005 C 
ATOM      8  C   UNL     1      12.381  -9.423   3.988  0.00  0.00    +0.005 C 
ATOM      9  C   UNL     1      12.281  -8.574   2.719  0.00  0.00    +0.037 C 
ENDROOT
BRANCH   1  12
ATOM     10  C   UNL     1       7.599  -4.616   1.637  0.00  0.00    +0.223 C 
ATOM     11  O   UNL     1       6.922  -5.213   2.447  0.00  0.00    -0.275 OA
ATOM     12  N   UNL     1       8.859  -5.021   1.381  0.00  0.00    -0.279 N 
ATOM     13  H   UNL     1       9.400  -4.543   0.734  0.00  0.00    +0.155 HD
BRANCH  10  16
ATOM     14  N   UNL     1       5.450  -1.678   1.382  0.00  0.00    -0.300 N 
ATOM     15  C   UNL     1       5.581  -3.140   1.367  0.00  0.00    +0.121 C 
ATOM     16  C   UNL     1       7.032  -3.419   0.917  0.00  0.00    +0.101 C 
ATOM     17  C   UNL     1       7.752  -2.120   1.349  0.00  0.00    +0.110 C 
ATOM     18  C   UNL     1       6.654  -1.080   1.372  0.00  0.00    +0.216 C 
ATOM     19  O   UNL     1       6.833   0.119   1.382  0.00  0.00    -0.276 OA
BRANCH  14  20
ATOM     20  C   UNL     1       4.171  -0.963   1.399  0.00  0.00    +0.112 C 
BRANCH  20  21
ATOM     21  C   UNL     1       3.711  -0.707  -0.038  0.00  0.00    +0.054 C 
BRANCH  21  25
ATOM     22  C   UNL     1      -0.017   1.378   0.010  0.00  0.00    +0.000 A 
ATOM     23  C   UNL     1       1.171   2.086   0.002  0.00  0.00    +0.000 A 
ATOM     24  C   UNL     1       2.377   1.411  -0.013  0.00  0.00    +0.004 A 
ATOM     25  C   UNL     1       2.396   0.029  -0.020  0.00  0.00    -0.046 A 
ATOM     26  C   UNL     1       1.208  -0.679  -0.012  0.00  0.00    +0.004 A 
ATOM     27  C   UNL     1       0.002  -0.004   0.002  0.00  0.00    +0.000 A 
ENDBRANCH  21  25
ENDBRANCH  20  21
ENDBRANCH  14  20
ENDBRANCH  10  16
ENDBRANCH   1  12
BRANCH   2  28
ATOM     28  C   UNL     1      11.635  -6.108   0.992  0.00  0.00    +0.247 C 
ATOM     29  O   UNL     1      12.400  -5.243   1.377  0.00  0.00    -0.270 OA
ATOM     30  N   UNL     1      11.698  -6.544  -0.282  0.00  0.00    -0.307 N 
ATOM     31  H   UNL     1      11.088  -7.233  -0.589  0.00  0.00    +0.149 HD
BRANCH  30  32
ATOM     32  C   UNL     1      12.687  -5.978  -1.202  0.00  0.00    +0.139 C 
BRANCH  32  33
ATOM     33  C   UNL     1      12.548  -6.632  -2.553  0.00  0.00    -0.030 A 
ATOM     34  C   UNL     1      13.267  -7.777  -2.843  0.00  0.00    +0.005 A 
ATOM     35  C   UNL     1      13.140  -8.377  -4.082  0.00  0.00    +0.000 A 
ATOM     36  C   UNL     1      12.294  -7.833  -5.030  0.00  0.00    +0.000 A 
ATOM     37  C   UNL     1      11.575  -6.689  -4.739  0.00  0.00    +0.000 A 
ATOM     38  C   UNL     1      11.698  -6.091  -3.499  0.00  0.00    +0.005 A 
ENDBRANCH  32  33
ENDBRANCH  30  32
ENDBRANCH   2  28
TORSDOF 8
