REMARK  Name = ZINC08809384
REMARK  7 active torsions:
REMARK  status: ('A' for Active; 'I' for Inactive)
REMARK    1  A    between atoms: C_4  and  C_7
REMARK    2  A    between atoms: C_7  and  N_8
REMARK    3  A    between atoms: C_9  and  C_11
REMARK    4  A    between atoms: C_11  and  N_20
REMARK    5  A    between atoms: C_12  and  C_13
REMARK    6  A    between atoms: C_21  and  C_23
REMARK    7  A    between atoms: C_26  and  N_29
REMARK                            x       y       z     vdW  Elec       q    Type
REMARK                         _______ _______ _______ _____ _____    ______ ____
ROOT
ATOM      1  C   UNL     1      -3.519   1.670   0.111  0.00  0.00    +0.097 C 
ATOM      2  C   UNL     1      -2.453   0.841   0.026  0.00  0.00    +0.036 C 
ENDROOT
BRANCH   2   3
ATOM      3  C   UNL     1      -1.091   1.380   0.160  0.00  0.00    -0.023 A 
ATOM      4  C   UNL     1      -0.018   0.744  -0.473  0.00  0.00    +0.009 A 
ATOM      5  C   UNL     1       1.255   1.258  -0.347  0.00  0.00    +0.016 A 
ATOM      6  C   UNL     1       1.474   2.398   0.408  0.00  0.00    +0.018 A 
ATOM      7  C   UNL     1       0.417   3.031   1.042  0.00  0.00    +0.016 A 
ATOM      8  C   UNL     1      -0.861   2.528   0.925  0.00  0.00    +0.009 A 
ATOM      9 BR   UNL     1       3.224   3.095   0.574  0.00  0.00    -0.050 Br
ENDBRANCH   2   3
BRANCH   1  11
ATOM     10  N   UNL     1      -2.682   3.741  -0.874  0.00  0.00    -0.306 N 
ATOM     11  C   UNL     1      -3.318   3.126   0.142  0.00  0.00    +0.259 C 
ATOM     12  O   UNL     1      -3.727   3.776   1.086  0.00  0.00    -0.269 OA
ATOM     13  H   UNL     1      -2.421   3.235  -1.659  0.00  0.00    +0.149 HD
BRANCH  10  14
ATOM     14  C   UNL     1      -2.386   5.173  -0.793  0.00  0.00    +0.140 C 
BRANCH  14  18
ATOM     15  C   UNL     1      -0.692   6.488  -4.488  0.00  0.00    +0.000 A 
ATOM     16  C   UNL     1      -2.050   6.620  -4.264  0.00  0.00    +0.000 A 
ATOM     17  C   UNL     1      -2.598   6.195  -3.069  0.00  0.00    +0.005 A 
ATOM     18  C   UNL     1      -1.788   5.637  -2.097  0.00  0.00    -0.030 A 
ATOM     19  C   UNL     1      -0.430   5.509  -2.318  0.00  0.00    +0.005 A 
ATOM     20  C   UNL     1       0.118   5.930  -3.516  0.00  0.00    +0.000 A 
ENDBRANCH  14  18
ENDBRANCH  10  14
ENDBRANCH   1  11
BRANCH   1  21
ATOM     21  N   UNL     1      -4.812   1.141   0.167  0.00  0.00    -0.277 N 
ATOM     22  C   UNL     1      -5.879   1.963   0.119  0.00  0.00    +0.248 C 
ATOM     23  O   UNL     1      -5.720   3.156  -0.058  0.00  0.00    -0.270 OA
ATOM     24  H   UNL     1      -4.942   0.183   0.241  0.00  0.00    +0.155 HD
BRANCH  22  25
ATOM     25  C   UNL     1      -7.242   1.415   0.281  0.00  0.00    +0.037 A 
ATOM     26  C   UNL     1      -7.429   0.046   0.479  0.00  0.00    +0.015 A 
ATOM     27  C   UNL     1      -8.703  -0.458   0.634  0.00  0.00    +0.033 A 
ATOM     28  C   UNL     1      -9.796   0.389   0.584  0.00  0.00    +0.126 A 
ATOM     29  C   UNL     1      -9.619   1.746   0.383  0.00  0.00    +0.033 A 
ATOM     30  C   UNL     1      -8.350   2.264   0.232  0.00  0.00    +0.015 A 
BRANCH  28  31
ATOM     31  N   UNL     1     -11.162  -0.160   0.745  0.00  0.00    +0.056 N 
ATOM     32  O   UNL     1     -12.126   0.583   0.701  0.00  0.00    -0.126 OA
ATOM     33  O   UNL     1     -11.321  -1.355   0.921  0.00  0.00    -0.126 OA
ENDBRANCH  28  31
ENDBRANCH  22  25
ENDBRANCH   1  21
TORSDOF 7
