REMARK  Name = ZINC39530506
REMARK  6 active torsions:
REMARK  status: ('A' for Active; 'I' for Inactive)
REMARK    1  A    between atoms: C_4  and  O_7
REMARK    2  A    between atoms: O_7  and  S_8
REMARK    3  A    between atoms: S_8  and  C_11
REMARK    4  A    between atoms: C_16  and  N_17
REMARK    5  A    between atoms: C_21  and  C_24
REMARK    6  A    between atoms: C_29  and  O_30
REMARK                            x       y       z     vdW  Elec       q    Type
REMARK                         _______ _______ _______ _____ _____    ______ ____
ROOT
ATOM      1  C   UNL     1       2.853  -4.633   2.321  0.00  0.00    +0.152 A 
ATOM      2  C   UNL     1       1.665  -4.369   2.975  0.00  0.00    +0.070 A 
ATOM      3  C   UNL     1       1.259  -3.061   3.173  0.00  0.00    +0.125 A 
ATOM      4  C   UNL     1       2.041  -2.014   2.715  0.00  0.00    +0.040 A 
ATOM      5  C   UNL     1       3.229  -2.273   2.060  0.00  0.00    +0.028 A 
ATOM      6  C   UNL     1       3.642  -3.585   1.866  0.00  0.00    +0.058 A 
ATOM      7  F   UNL     1       0.097  -2.805   3.813  0.00  0.00    -0.205 F 
ENDROOT
BRANCH   6   8
ATOM      8  N   UNL     1       4.847  -3.849   1.209  0.00  0.00    -0.331 N 
ATOM      9  C   UNL     1       6.080  -4.115   1.967  0.00  0.00    +0.086 C 
ATOM     10  C   UNL     1       7.191  -3.213   1.420  0.00  0.00    -0.063 C 
ATOM     11  N   UNL     1       7.315  -3.416  -0.029  0.00  0.00    +0.386 N 
ATOM     12  C   UNL     1       6.085  -2.980  -0.702  0.00  0.00    -0.020 C 
ATOM     13  C   UNL     1       4.918  -3.876  -0.260  0.00  0.00    +0.094 C 
ATOM     14  H   UNL     1       8.096  -2.879  -0.376  0.00  0.00    -0.085 HD
ATOM     15  H   UNL     1       7.472  -4.394  -0.218  0.00  0.00    -0.085 HD
BRANCH  12  16
ATOM     16  C   UNL     1       6.263  -3.089  -2.194  0.00  0.00    -0.018 A 
ATOM     17  C   UNL     1       7.174  -3.986  -2.718  0.00  0.00    +0.005 A 
ATOM     18  C   UNL     1       7.339  -4.086  -4.087  0.00  0.00    +0.000 A 
ATOM     19  C   UNL     1       6.592  -3.290  -4.936  0.00  0.00    +0.004 A 
ATOM     20  C   UNL     1       5.679  -2.392  -4.417  0.00  0.00    +0.045 A 
ATOM     21  C   UNL     1       5.509  -2.293  -3.044  0.00  0.00    +0.118 A 
BRANCH  21  22
ATOM     22  O   UNL     1       4.608  -1.414  -2.531  0.00  0.00    -0.507 OA
ATOM     23  H   UNL     1       4.972  -0.536  -2.353  0.00  0.00    +0.292 HD
ENDBRANCH  21  22
ENDBRANCH  12  16
ENDBRANCH   6   8
BRANCH   1  24
ATOM     24  S   UNL     1       3.371  -6.299   2.071  0.00  0.00    +0.153 S 
ATOM     25  O   UNL     1       4.138  -6.310   0.875  0.00  0.00    -0.131 OA
ATOM     26  O   UNL     1       2.219  -7.113   2.245  0.00  0.00    -0.131 OA
BRANCH  24  27
ATOM     27  O   UNL     1       4.326  -6.648   3.204  0.00  0.00    -0.342 OA
BRANCH  27  31
ATOM     28  C   UNL     1       2.464  -7.311   6.825  0.00  0.00    +0.000 A 
ATOM     29  C   UNL     1       2.667  -8.362   5.951  0.00  0.00    +0.004 A 
ATOM     30  C   UNL     1       3.290  -8.143   4.738  0.00  0.00    +0.048 A 
ATOM     31  C   UNL     1       3.712  -6.866   4.396  0.00  0.00    +0.157 A 
ATOM     32  C   UNL     1       3.507  -5.813   5.275  0.00  0.00    +0.048 A 
ATOM     33  C   UNL     1       2.884  -6.037   6.487  0.00  0.00    +0.004 A 
ENDBRANCH  27  31
ENDBRANCH  24  27
ENDBRANCH   1  24
TORSDOF 6
