REMARK  Name = ZINC12993062
REMARK  7 active torsions:
REMARK  status: ('A' for Active; 'I' for Inactive)
REMARK    1  A    between atoms: C_1  and  C_2
REMARK    2  A    between atoms: C_2  and  C_4
REMARK    3  A    between atoms: C_2  and  N_14
REMARK    4  A    between atoms: C_15  and  C_17
REMARK    5  A    between atoms: C_17  and  N_67
REMARK    6  A    between atoms: C_20  and  C_23
REMARK    7  A    between atoms: N_25  and  C_26
REMARK                            x       y       z     vdW  Elec       q    Type
REMARK                         _______ _______ _______ _____ _____    ______ ____
ROOT
ATOM      1  C   UNL     1       8.584   1.608  -3.050  0.00  0.00    -0.077 C 
ATOM      2  C   UNL     1       7.204   0.949  -3.013  0.00  0.00    -0.006 C 
ATOM      3  C   UNL     1       7.106   0.051  -1.776  0.00  0.00    +0.072 C 
ATOM      4  C   UNL     1       7.364   0.892  -0.523  0.00  0.00    -0.006 C 
ATOM      5  C   UNL     1       8.740   1.553  -0.633  0.00  0.00    -0.077 C 
ATOM      6  N   UNL     1       8.761   2.422  -1.828  0.00  0.00    +0.385 N 
ATOM      7  H   UNL     1       7.989   3.096  -1.763  0.00  0.00    -0.081 HD
ENDROOT
BRANCH   3   8
ATOM      8  C   UNL     1       5.728  -0.555  -1.702  0.00  0.00    +0.220 C 
ATOM      9  O   UNL     1       4.904  -0.294  -2.553  0.00  0.00    -0.275 OA
ATOM     10  N   UNL     1       5.411  -1.385  -0.689  0.00  0.00    -0.285 N 
ATOM     11  H   UNL     1       6.043  -1.535   0.032  0.00  0.00    +0.155 HD
BRANCH  10  12
ATOM     12  C   UNL     1       4.169  -2.034  -0.677  0.00  0.00    +0.037 A 
ATOM     13  C   UNL     1       3.570  -2.409  -1.872  0.00  0.00    +0.027 A 
ATOM     14  C   UNL     1       2.346  -3.050  -1.862  0.00  0.00    +0.051 A 
ATOM     15  C   UNL     1       1.712  -3.318  -0.660  0.00  0.00    +0.166 A 
ATOM     16  C   UNL     1       2.310  -2.942   0.541  0.00  0.00    +0.168 A 
ATOM     17  C   UNL     1       3.537  -2.301   0.530  0.00  0.00    +0.072 A 
ATOM     18  O   UNL     1       1.491  -3.310   1.570  0.00  0.00    -0.453 OA
ATOM     19  C   UNL     1       0.206  -3.554   0.973  0.00  0.00    +0.466 C 
ATOM     20  O   UNL     1       0.521  -3.926  -0.382  0.00  0.00    -0.453 OA
ENDBRANCH  10  12
ENDBRANCH   3   8
BRANCH   6  21
ATOM     21  C   UNL     1      10.039   3.160  -1.894  0.00  0.00    +0.019 C 
BRANCH  21  23
ATOM     22  N   UNL     1      11.021   4.942  -3.299  0.00  0.00    -0.310 N 
ATOM     23  C   UNL     1       9.941   4.204  -2.976  0.00  0.00    +0.197 C 
ATOM     24  O   UNL     1       8.891   4.380  -3.556  0.00  0.00    -0.278 OA
ATOM     25  H   UNL     1      11.862   4.801  -2.835  0.00  0.00    +0.149 HD
BRANCH  22  27
ATOM     26  C   UNL     1      11.150   5.301  -5.715  0.00  0.00    +0.033 C 
ATOM     27  C   UNL     1      10.927   5.957  -4.351  0.00  0.00    +0.100 C 
BRANCH  27  28
ATOM     28  C   UNL     1      11.976   7.015  -4.125  0.00  0.00    -0.027 A 
ATOM     29  C   UNL     1      13.242   6.656  -3.700  0.00  0.00    +0.006 A 
ATOM     30  C   UNL     1      14.199   7.629  -3.498  0.00  0.00    +0.004 A 
ATOM     31  C   UNL     1      13.897   8.969  -3.707  0.00  0.00    -0.044 A 
ATOM     32  C   UNL     1      12.636   9.326  -4.128  0.00  0.00    -0.044 A 
ATOM     33  C   UNL     1      11.676   8.344  -4.336  0.00  0.00    +0.009 A 
ATOM     34  C   UNL     1      12.242  10.758  -4.384  0.00  0.00    +0.035 C 
ATOM     35  C   UNL     1      13.227  11.714  -3.714  0.00  0.00    +0.005 C 
ATOM     36  C   UNL     1      14.648  11.310  -4.125  0.00  0.00    +0.005 C 
ATOM     37  C   UNL     1      14.984   9.980  -3.454  0.00  0.00    +0.035 C 
ENDBRANCH  27  28
ENDBRANCH  22  27
ENDBRANCH  21  23
ENDBRANCH   6  21
TORSDOF 6
