REMARK  Name = ZINC44166829
REMARK  7 active torsions:
REMARK  status: ('A' for Active; 'I' for Inactive)
REMARK    1  A    between atoms: C_1  and  C_2
REMARK    2  A    between atoms: C_3  and  C_13
REMARK    3  A    between atoms: C_5  and  C_7
REMARK    4  A    between atoms: C_18  and  C_21
REMARK    5  A    between atoms: N_23  and  C_24
REMARK    6  A    between atoms: C_24  and  C_26
REMARK    7  A    between atoms: C_24  and  C_27
REMARK                            x       y       z     vdW  Elec       q    Type
REMARK                         _______ _______ _______ _____ _____    ______ ____
ROOT
ATOM      1  C   UNL     1       0.052   0.356  -1.917  0.00  0.00    -0.021 C 
ATOM      2  C   UNL     1      -1.443   0.277  -2.250  0.00  0.00    +0.058 C 
ATOM      3  S   UNL     1      -1.669   0.793  -3.981  0.00  0.00    -0.163 S 
ATOM      4  C   UNL     1      -0.431  -0.210  -4.861  0.00  0.00    +0.062 C 
ATOM      5  C   UNL     1       0.912  -0.058  -4.137  0.00  0.00    +0.027 C 
ATOM      6  N   UNL     1       0.799  -0.571  -2.769  0.00  0.00    +0.393 N 
ATOM      7  H   UNL     1       1.724  -0.698  -2.387  0.00  0.00    -0.084 HD
ATOM      8  H   UNL     1       0.324  -1.461  -2.787  0.00  0.00    -0.084 HD
ENDROOT
BRANCH   1  11
ATOM      9  C   UNL     1       0.674   2.272   0.415  0.00  0.00    +0.066 C 
ATOM     10  C   UNL     1       0.538   0.782   0.598  0.00  0.00    +0.048 A 
ATOM     11  C   UNL     1       0.262  -0.013  -0.471  0.00  0.00    -0.000 A 
ATOM     12  S   UNL     1       0.219  -1.619   0.316  0.00  0.00    -0.072 S 
ATOM     13  C   UNL     1       0.571  -1.056   1.976  0.00  0.00    +0.128 A 
ATOM     14  N   UNL     1       0.691   0.250   1.786  0.00  0.00    -0.242 NA
BRANCH  13  15
ATOM     15  C   UNL     1       0.700  -1.838   3.224  0.00  0.00    +0.114 A 
ATOM     16  C   UNL     1       0.977  -1.192   4.431  0.00  0.00    +0.141 A 
ATOM     17  N   UNL     1       1.090  -1.895   5.542  0.00  0.00    -0.260 NA
ATOM     18  C   UNL     1       0.942  -3.209   5.513  0.00  0.00    +0.130 A 
ATOM     19  C   UNL     1       0.667  -3.854   4.319  0.00  0.00    +0.131 A 
ATOM     20  N   UNL     1       0.547  -3.160   3.203  0.00  0.00    -0.250 NA
ENDBRANCH  13  15
ENDBRANCH   1  11
BRANCH   5  21
ATOM     21  C   UNL     1       1.298   1.398  -4.095  0.00  0.00    +0.200 C 
ATOM     22  O   UNL     1       1.859   1.849  -3.119  0.00  0.00    -0.278 OA
ATOM     23  N   UNL     1       1.018   2.199  -5.143  0.00  0.00    -0.310 N 
ATOM     24  H   UNL     1       0.569   1.838  -5.923  0.00  0.00    +0.149 HD
BRANCH  23  25
ATOM     25  C   UNL     1       1.393   3.615  -5.102  0.00  0.00    +0.101 C 
ATOM     26  C   UNL     1       2.820   3.780  -5.628  0.00  0.00    +0.033 C 
BRANCH  25  27
ATOM     27  C   UNL     1       0.444   4.410  -5.962  0.00  0.00    -0.020 A 
ATOM     28  C   UNL     1      -0.181   3.819  -7.017  0.00  0.00    +0.006 A 
ATOM     29  C   UNL     1      -1.061   4.538  -7.824  0.00  0.00    +0.001 A 
ATOM     30  C   UNL     1      -1.320   5.852  -7.580  0.00  0.00    +0.008 A 
ATOM     31  C   UNL     1      -0.693   6.496  -6.501  0.00  0.00    -0.018 A 
ATOM     32  C   UNL     1       0.197   5.763  -5.676  0.00  0.00    -0.013 A 
ATOM     33  C   UNL     1       0.820   6.406  -4.593  0.00  0.00    +0.009 A 
ATOM     34  C   UNL     1       0.557   7.718  -4.346  0.00  0.00    +0.001 A 
ATOM     35  C   UNL     1      -0.324   8.437  -5.153  0.00  0.00    +0.001 A 
ATOM     36  C   UNL     1      -0.935   7.852  -6.219  0.00  0.00    +0.008 A 
ENDBRANCH  25  27
ENDBRANCH  23  25
ENDBRANCH   5  21
TORSDOF 5
