REMARK  Name = ZINC32932213
REMARK  8 active torsions:
REMARK  status: ('A' for Active; 'I' for Inactive)
REMARK    1  A    between atoms: C_1  and  C_2
REMARK    2  A    between atoms: C_2  and  C_3
REMARK    3  A    between atoms: C_2  and  C_4
REMARK    4  A    between atoms: C_2  and  N_5
REMARK    5  A    between atoms: N_5  and  S_6
REMARK    6  A    between atoms: S_6  and  C_9
REMARK    7  A    between atoms: C_13  and  N_15
REMARK    8  A    between atoms: C_16  and  C_18
REMARK                            x       y       z     vdW  Elec       q    Type
REMARK                         _______ _______ _______ _____ _____    ______ ____
ROOT
ATOM      1  N   UNL     1      -2.826  -0.996  -3.829  0.00  0.00    -0.285 N 
ATOM      2  C   UNL     1      -1.555  -1.025  -3.382  0.00  0.00    +0.222 C 
ATOM      3  O   UNL     1      -1.327  -1.283  -2.219  0.00  0.00    -0.275 OA
ATOM      4  H   UNL     1      -3.040  -0.674  -4.859  0.00  0.00    +0.155 HD
ENDROOT
BRANCH   2   5
ATOM      5  C   UNL     1      -0.417  -0.737  -4.327  0.00  0.00    +0.093 C 
ATOM      6  C   UNL     1       0.911  -0.829  -3.570  0.00  0.00    +0.016 C 
ATOM      7  C   UNL     1       2.057  -0.476  -4.522  0.00  0.00    +0.020 C 
ATOM      8  C   UNL     1       1.828   0.926  -5.091  0.00  0.00    +0.107 C 
ATOM      9  N   UNL     1       0.545   0.963  -5.805  0.00  0.00    -0.309 N 
ATOM     10  C   UNL     1      -0.575   0.673  -4.901  0.00  0.00    +0.119 C 
ATOM     11  C   UNL     1       0.367   2.175  -6.441  0.00  0.00    +0.162 A 
ATOM     12  N   UNL     1      -0.629   3.024  -6.330  0.00  0.00    -0.225 NA
ATOM     13  C   UNL     1      -0.669   4.188  -7.017  0.00  0.00    +0.080 A 
ATOM     14  C   UNL     1      -1.671   5.184  -6.986  0.00  0.00    +0.029 A 
ATOM     15  C   UNL     1      -1.560   6.312  -7.757  0.00  0.00    +0.002 A 
ATOM     16  C   UNL     1      -0.470   6.517  -8.590  0.00  0.00    +0.001 A 
ATOM     17  C   UNL     1       0.529   5.562  -8.644  0.00  0.00    +0.017 A 
ATOM     18  C   UNL     1       0.426   4.430  -7.876  0.00  0.00    +0.041 A 
ATOM     19  S   UNL     1       1.429   2.983  -7.630  0.00  0.00    -0.052 S 
ENDBRANCH   2   5
BRANCH   1  24
ATOM     20  C   UNL     1      -4.734  -2.791  -1.248  0.00  0.00    +0.107 A 
ATOM     21  C   UNL     1      -5.947  -2.129  -1.312  0.00  0.00    +0.028 A 
ATOM     22  C   UNL     1      -6.126  -1.091  -2.208  0.00  0.00    +0.004 A 
ATOM     23  C   UNL     1      -5.093  -0.714  -3.044  0.00  0.00    +0.023 A 
ATOM     24  C   UNL     1      -3.874  -1.377  -2.983  0.00  0.00    +0.035 A 
ATOM     25  C   UNL     1      -3.700  -2.421  -2.085  0.00  0.00    +0.051 A 
BRANCH  20  26
ATOM     26  S   UNL     1      -4.511  -4.111  -0.103  0.00  0.00    +0.059 S 
ATOM     27  O   UNL     1      -3.161  -4.045   0.335  0.00  0.00    -0.153 OA
ATOM     28  O   UNL     1      -5.608  -4.056   0.799  0.00  0.00    -0.153 OA
BRANCH  26  29
ATOM     29  N   UNL     1      -4.665  -5.525  -0.950  0.00  0.00    -0.185 NA
ATOM     30  H   UNL     1      -3.844  -6.257  -0.928  0.00  0.00    +0.149 HD
BRANCH  29  32
ATOM     31  C   UNL     1      -6.477  -4.731  -2.389  0.00  0.00    +0.029 C 
ATOM     32  C   UNL     1      -5.957  -5.891  -1.536  0.00  0.00    +0.032 C 
ATOM     33  C   UNL     1      -5.785  -7.132  -2.415  0.00  0.00    +0.029 C 
ATOM     34  C   UNL     1      -6.958  -6.191  -0.419  0.00  0.00    +0.029 C 
ENDBRANCH  29  32
ENDBRANCH  26  29
ENDBRANCH  20  26
ENDBRANCH   1  24
TORSDOF 5
