REMARK  Name = ZINC37835134
REMARK  4 active torsions:
REMARK  status: ('A' for Active; 'I' for Inactive)
REMARK    1  A    between atoms: C_4  and  C_21
REMARK    2  A    between atoms: C_6  and  C_9
REMARK    3  A    between atoms: C_14  and  C_17
REMARK    4  A    between atoms: C_17  and  C_18
REMARK                            x       y       z     vdW  Elec       q    Type
REMARK                         _______ _______ _______ _____ _____    ______ ____
ROOT
ATOM      1  C   UNL     1       0.739  -2.004  -1.265  0.00  0.00    +0.219 C 
ATOM      2  O   UNL     1       1.792  -2.596  -1.366  0.00  0.00    -0.275 OA
ATOM      3  N   UNL     1      -0.414  -2.695  -1.156  0.00  0.00    -0.301 N 
ATOM      4  C   UNL     1      -1.706  -1.996  -1.145  0.00  0.00    +0.108 C 
ATOM      5  C   UNL     1      -2.490  -2.429   0.099  0.00  0.00    +0.023 C 
ATOM      6  C   UNL     1      -2.600  -3.955   0.122  0.00  0.00    +0.001 C 
ATOM      7  C   UNL     1      -1.199  -4.568   0.195  0.00  0.00    +0.023 C 
ATOM      8  C   UNL     1      -0.402  -4.160  -1.053  0.00  0.00    +0.108 C 
ENDROOT
BRANCH   1  13
ATOM      9  C   UNL     1       0.699   1.539   0.187  0.00  0.00    +0.001 C 
ATOM     10  C   UNL     1       1.936   2.068  -0.541  0.00  0.00    +0.001 C 
ATOM     11  C   UNL     1       1.934   1.562  -1.985  0.00  0.00    +0.015 C 
ATOM     12  C   UNL     1       1.955   0.032  -1.989  0.00  0.00    +0.114 C 
ATOM     13  C   UNL     1       0.718  -0.497  -1.261  0.00  0.00    +0.089 C 
ATOM     14  C   UNL     1       0.720   0.009   0.183  0.00  0.00    +0.013 C 
BRANCH  12  15
ATOM     15  C   UNL     1       1.953  -0.467  -3.411  0.00  0.00    +0.360 C 
ATOM     16  O   UNL     1       2.859  -0.158  -4.167  0.00  0.00    -0.246 OA
ATOM     17  O   UNL     1       1.046  -1.179  -3.806  0.00  0.00    -0.246 OA
ENDBRANCH  12  15
ENDBRANCH   1  13
BRANCH   6  18
ATOM     18  C   UNL     1      -3.411  -4.390   1.344  0.00  0.00    +0.099 C 
BRANCH  18  19
ATOM     19  C   UNL     1      -3.624  -5.881   1.301  0.00  0.00    +0.211 C 
ATOM     20  O   UNL     1      -3.172  -6.532   0.384  0.00  0.00    -0.276 OA
ATOM     21  N   UNL     1      -4.318  -6.491   2.283  0.00  0.00    -0.329 N 
ATOM     22  H   UNL     1      -4.680  -5.970   3.017  0.00  0.00    +0.145 HD
ATOM     23  H   UNL     1      -4.455  -7.451   2.255  0.00  0.00    +0.145 HD
ENDBRANCH  18  19
ENDBRANCH   6  18
TORSDOF 4
