REMARK  Name = ZINC20940940
REMARK  8 active torsions:
REMARK  status: ('A' for Active; 'I' for Inactive)
REMARK    1  A    between atoms: C_1  and  O_2
REMARK    2  A    between atoms: O_2  and  C_3
REMARK    3  A    between atoms: C_6  and  N_11
REMARK    4  A    between atoms: C_7  and  O_9
REMARK    5  A    between atoms: O_9  and  C_10
REMARK    6  A    between atoms: C_12  and  C_14
REMARK    7  A    between atoms: N_17  and  C_25
REMARK    8  A    between atoms: C_18  and  C_19
REMARK                            x       y       z     vdW  Elec       q    Type
REMARK                         _______ _______ _______ _____ _____    ______ ____
ROOT
ATOM      1  C   UNL     1      -0.027  -0.302   2.838  0.00  0.00    +0.078 A 
ATOM      2  C   UNL     1       0.839  -0.332   3.955  0.00  0.00    +0.148 A 
ATOM      3  N   UNL     1       1.192   0.894   4.226  0.00  0.00    -0.174 NA
ATOM      4  N   UNL     1       0.583   1.756   3.307  0.00  0.00    -0.236 N 
ATOM      5  C   UNL     1      -0.158   1.019   2.459  0.00  0.00    +0.060 A 
ENDROOT
BRANCH   5   6
ATOM      6  C   UNL     1      -0.984   1.540   1.312  0.00  0.00    +0.035 C 
ATOM      7  C   UNL     1      -0.443   0.977  -0.005  0.00  0.00    -0.010 C 
ATOM      8  C   UNL     1      -1.322   1.461  -1.161  0.00  0.00    -0.082 C 
ATOM      9  N   UNL     1      -2.704   1.012  -0.949  0.00  0.00    +0.379 N 
ATOM     10  C   UNL     1      -3.262   1.578   0.286  0.00  0.00    -0.082 C 
ATOM     11  C   UNL     1      -2.441   1.098   1.486  0.00  0.00    -0.010 C 
ATOM     12  H   UNL     1      -3.328   1.333  -1.795  0.00  0.00    -0.086 HD
ATOM     13  H   UNL     1      -2.725  -0.085  -0.873  0.00  0.00    -0.086 HD
ENDBRANCH   5   6
BRANCH   4  14
ATOM     14  C   UNL     1       0.721   3.150   3.274  0.00  0.00    +0.066 A 
ATOM     15  C   UNL     1       0.796   3.813   2.057  0.00  0.00    +0.029 A 
ATOM     16  C   UNL     1       0.928   5.188   2.027  0.00  0.00    +0.022 A 
ATOM     17  C   UNL     1       0.996   5.903   3.210  0.00  0.00    +0.041 A 
ATOM     18  C   UNL     1       0.926   5.244   4.425  0.00  0.00    +0.022 A 
ATOM     19  C   UNL     1       0.789   3.870   4.460  0.00  0.00    +0.029 A 
ATOM     20 CL   UNL     1       1.168   7.630   3.170  0.00  0.00    -0.084 Cl
ENDBRANCH   4  14
BRANCH   1  22
ATOM     21  N   UNL     1      -0.532  -2.692   2.736  0.00  0.00    -0.278 N 
ATOM     22  C   UNL     1      -0.668  -1.464   2.197  0.00  0.00    +0.252 C 
ATOM     23  O   UNL     1      -1.320  -1.316   1.181  0.00  0.00    -0.270 OA
ATOM     24  H   UNL     1       0.125  -2.841   3.606  0.00  0.00    +0.155 HD
BRANCH  21  28
ATOM     25  C   UNL     1      -2.601  -5.930   1.105  0.00  0.00    +0.124 A 
ATOM     26  C   UNL     1      -2.153  -4.906   0.284  0.00  0.00    +0.047 A 
ATOM     27  C   UNL     1      -1.468  -3.834   0.824  0.00  0.00    +0.030 A 
ATOM     28  C   UNL     1      -1.227  -3.780   2.189  0.00  0.00    +0.076 A 
ATOM     29  C   UNL     1      -1.673  -4.810   3.014  0.00  0.00    +0.145 A 
ATOM     30  C   UNL     1      -2.363  -5.880   2.471  0.00  0.00    +0.093 A 
BRANCH  25  32
ATOM     31  C   UNL     1      -3.484  -6.971  -0.842  0.00  0.00    +0.277 C 
ATOM     32  O   UNL     1      -3.274  -6.984   0.571  0.00  0.00    -0.495 OA
ENDBRANCH  25  32
BRANCH  29  33
ATOM     33  O   UNL     1      -1.434  -4.762   4.352  0.00  0.00    -0.493 OA
ATOM     34  C   UNL     1      -1.919  -5.852   5.137  0.00  0.00    +0.277 C 
ENDBRANCH  29  33
ENDBRANCH  21  28
ENDBRANCH   1  22
TORSDOF 6
