REMARK  Name = ZINC16573745
REMARK  10 active torsions:
REMARK  status: ('A' for Active; 'I' for Inactive)
REMARK    1  A    between atoms: C_1  and  C_2
REMARK    2  A    between atoms: C_2  and  C_3
REMARK    3  A    between atoms: C_3  and  C_5
REMARK    4  A    between atoms: C_3  and  C_6
REMARK    5  A    between atoms: C_6  and  C_8
REMARK    6  A    between atoms: C_6  and  N_23
REMARK    7  A    between atoms: C_14  and  C_16
REMARK    8  A    between atoms: N_26  and  C_27
REMARK    9  A    between atoms: C_30  and  C_34
REMARK   10  A    between atoms: C_32  and  C_33
REMARK                            x       y       z     vdW  Elec       q    Type
REMARK                         _______ _______ _______ _____ _____    ______ ____
ROOT
ATOM      1  C   UNL     1      -0.220   1.318   0.098  0.00  0.00    +0.163 C 
ENDROOT
BRANCH   1   2
ATOM      2  C   UNL     1      -1.109   1.587  -1.089  0.00  0.00    +0.239 C 
ATOM      3  O   UNL     1      -2.149   2.193  -0.943  0.00  0.00    -0.273 OA
ATOM      4  N   UNL     1      -0.748   1.153  -2.313  0.00  0.00    -0.262 N 
ATOM      5  C   UNL     1      -1.512   1.491  -3.423  0.00  0.00    +0.188 A 
ATOM      6  N   UNL     1      -2.619   2.212  -3.495  0.00  0.00    -0.125 NA
ATOM      7  N   UNL     1      -3.201   2.435  -4.593  0.00  0.00    -0.140 NA
ATOM      8  C   UNL     1      -2.717   1.934  -5.723  0.00  0.00    +0.134 A 
ATOM      9  S   UNL     1      -1.280   1.073  -5.096  0.00  0.00    -0.030 S 
ATOM     10  H   UNL     1       0.046   0.606  -2.420  0.00  0.00    +0.157 HD
BRANCH   8  11
ATOM     11  C   UNL     1      -3.223   2.054  -7.107  0.00  0.00    +0.010 A 
ATOM     12  C   UNL     1      -4.382   2.787  -7.369  0.00  0.00    +0.011 A 
ATOM     13  C   UNL     1      -4.848   2.895  -8.663  0.00  0.00    +0.002 A 
ATOM     14  C   UNL     1      -4.170   2.279  -9.700  0.00  0.00    +0.015 A 
ATOM     15  C   UNL     1      -3.020   1.551  -9.447  0.00  0.00    +0.019 A 
ATOM     16  C   UNL     1      -2.540   1.439  -8.158  0.00  0.00    +0.026 A 
ATOM     17 BR   UNL     1      -2.101   0.713 -10.872  0.00  0.00    -0.050 Br
ENDBRANCH   8  11
ENDBRANCH   1   2
BRANCH   1  18
ATOM     18  N   UNL     1      -0.917   1.702   1.327  0.00  0.00    -0.288 N 
ATOM     19  C   UNL     1      -0.585   1.125   2.499  0.00  0.00    +0.304 C 
ATOM     20  O   UNL     1       0.294   0.286   2.536  0.00  0.00    -0.252 OA
ATOM     21  N   UNL     1      -1.227   1.479   3.630  0.00  0.00    -0.269 N 
ATOM     22  H   UNL     1      -1.618   2.372   1.298  0.00  0.00    +0.151 HD
ATOM     23  H   UNL     1      -1.969   2.103   3.592  0.00  0.00    +0.156 HD
BRANCH  21  24
ATOM     24  C   UNL     1      -0.822   0.947   4.860  0.00  0.00    +0.038 A 
ATOM     25  C   UNL     1      -0.206  -0.296   4.911  0.00  0.00    +0.024 A 
ATOM     26  C   UNL     1       0.192  -0.819   6.126  0.00  0.00    +0.005 A 
ATOM     27  C   UNL     1      -0.022  -0.104   7.291  0.00  0.00    -0.050 A 
ATOM     28  C   UNL     1      -0.635   1.134   7.243  0.00  0.00    +0.008 A 
ATOM     29  C   UNL     1      -1.031   1.664   6.030  0.00  0.00    -0.029 A 
ATOM     30  C   UNL     1      -1.693   3.017   5.979  0.00  0.00    +0.045 C 
ATOM     31  C   UNL     1       0.414  -0.677   8.615  0.00  0.00    +0.044 C 
ENDBRANCH  21  24
ENDBRANCH   1  18
BRANCH   1  32
ATOM     32  C   UNL     1       1.068   2.133  -0.035  0.00  0.00    +0.015 C 
ATOM     33  C   UNL     1       0.742   3.624   0.079  0.00  0.00    +0.010 C 
BRANCH  32  35
ATOM     34  C   UNL     1       2.440   0.270   0.910  0.00  0.00    +0.004 C 
ATOM     35  C   UNL     1       2.039   1.737   1.080  0.00  0.00    +0.002 C 
ENDBRANCH  32  35
ENDBRANCH   1  32
TORSDOF 6
