REMARK  Name = ZINC39688671
REMARK  8 active torsions:
REMARK  status: ('A' for Active; 'I' for Inactive)
REMARK    1  A    between atoms: C_1  and  C_2
REMARK    2  A    between atoms: C_2  and  C_4
REMARK    3  A    between atoms: C_2  and  N_12
REMARK    4  A    between atoms: C_4  and  C_5
REMARK    5  A    between atoms: C_13  and  C_15
REMARK    6  A    between atoms: C_26  and  C_28
REMARK    7  A    between atoms: C_33  and  S_34
REMARK    8  A    between atoms: S_34  and  C_35
REMARK                            x       y       z     vdW  Elec       q    Type
REMARK                         _______ _______ _______ _____ _____    ______ ____
ROOT
ATOM      1  C   UNL     1       3.223  -2.719   2.765  0.00  0.00    +0.100 C 
ATOM      2  C   UNL     1       2.756  -1.495   3.585  0.00  0.00    +0.121 C 
ATOM      3  N   UNL     1       3.995  -0.960   4.198  0.00  0.00    -0.296 N 
ATOM      4  C   UNL     1       5.020  -1.097   3.135  0.00  0.00    +0.115 C 
ATOM      5  C   UNL     1       4.709  -2.453   2.471  0.00  0.00    -0.004 C 
ATOM      6  C   UNL     1       4.944  -2.368   0.966  0.00  0.00    -0.010 C 
ATOM      7  C   UNL     1       6.437  -2.162   0.697  0.00  0.00    -0.082 C 
ATOM      8  N   UNL     1       7.198  -3.280   1.268  0.00  0.00    +0.379 N 
ATOM      9  C   UNL     1       7.041  -3.297   2.728  0.00  0.00    -0.082 C 
ATOM     10  C   UNL     1       5.574  -3.552   3.083  0.00  0.00    -0.010 C 
ATOM     11  C   UNL     1       4.154  -0.462   5.440  0.00  0.00    +0.249 C 
ATOM     12  O   UNL     1       5.219   0.024   5.769  0.00  0.00    -0.270 OA
ATOM     13  H   UNL     1       6.857  -4.148   0.884  0.00  0.00    -0.086 HD
ATOM     14  H   UNL     1       8.174  -3.173   1.037  0.00  0.00    -0.086 HD
ENDROOT
BRANCH  11  15
ATOM     15  C   UNL     1       3.036  -0.506   6.400  0.00  0.00    +0.069 A 
ATOM     16  C   UNL     1       1.723  -0.273   5.976  0.00  0.00    +0.017 A 
ATOM     17  C   UNL     1       0.709  -0.326   6.916  0.00  0.00    +0.020 A 
ATOM     18  C   UNL     1       1.018  -0.605   8.236  0.00  0.00    +0.112 A 
ATOM     19  N   UNL     1       2.261  -0.822   8.617  0.00  0.00    -0.248 NA
ATOM     20  C   UNL     1       3.269  -0.788   7.757  0.00  0.00    +0.114 A 
BRANCH  20  21
ATOM     21  S   UNL     1       4.911  -1.093   8.320  0.00  0.00    -0.069 S 
BRANCH  21  22
ATOM     22  C   UNL     1       4.720  -1.401  10.044  0.00  0.00    +0.014 A 
ATOM     23  C   UNL     1       4.396  -2.676  10.492  0.00  0.00    +0.015 A 
ATOM     24  C   UNL     1       4.248  -2.914  11.844  0.00  0.00    +0.001 A 
ATOM     25  C   UNL     1       4.421  -1.886  12.752  0.00  0.00    +0.000 A 
ATOM     26  C   UNL     1       4.744  -0.616  12.310  0.00  0.00    +0.001 A 
ATOM     27  C   UNL     1       4.900  -0.371  10.960  0.00  0.00    +0.015 A 
ENDBRANCH  21  22
ENDBRANCH  20  21
ENDBRANCH  11  15
BRANCH   1  29
ATOM     28  N   UNL     1       2.192  -4.023   0.934  0.00  0.00    -0.312 N 
ATOM     29  C   UNL     1       2.444  -2.817   1.479  0.00  0.00    +0.218 C 
ATOM     30  O   UNL     1       2.043  -1.810   0.934  0.00  0.00    -0.275 OA
ATOM     31  H   UNL     1       2.512  -4.829   1.370  0.00  0.00    +0.149 HD
BRANCH  28  33
ATOM     32  C   UNL     1      -0.065  -4.109  -0.006  0.00  0.00    +0.028 C 
ATOM     33  C   UNL     1       1.433  -4.119  -0.316  0.00  0.00    +0.074 C 
BRANCH  33  34
ATOM     34  C   UNL     1       1.797  -5.420  -1.035  0.00  0.00    +0.057 C 
BRANCH  34  35
ATOM     35  C   UNL     1       3.245  -5.377  -1.449  0.00  0.00    -0.045 A 
ATOM     36  C   UNL     1       3.596  -4.861  -2.683  0.00  0.00    +0.006 A 
ATOM     37  C   UNL     1       4.923  -4.821  -3.064  0.00  0.00    +0.038 A 
ATOM     38  C   UNL     1       5.903  -5.298  -2.209  0.00  0.00    +0.123 A 
ATOM     39  C   UNL     1       5.551  -5.814  -0.973  0.00  0.00    +0.038 A 
ATOM     40  C   UNL     1       4.223  -5.848  -0.593  0.00  0.00    +0.006 A 
ATOM     41  F   UNL     1       7.201  -5.259  -2.580  0.00  0.00    -0.205 F 
ENDBRANCH  34  35
ENDBRANCH  33  34
ENDBRANCH  28  33
ENDBRANCH   1  29
TORSDOF 7
