REMARK  Name = ZINC22506141
REMARK  8 active torsions:
REMARK  status: ('A' for Active; 'I' for Inactive)
REMARK    1  A    between atoms: C_1  and  C_2
REMARK    2  A    between atoms: N_15  and  N_16
REMARK    3  A    between atoms: N_16  and  C_17
REMARK    4  A    between atoms: C_21  and  C_24
REMARK    5  A    between atoms: C_24  and  C_25
REMARK    6  A    between atoms: N_27  and  C_28
REMARK    7  A    between atoms: C_32  and  O_34
REMARK    8  A    between atoms: O_34  and  C_35
REMARK                            x       y       z     vdW  Elec       q    Type
REMARK                         _______ _______ _______ _____ _____    ______ ____
ROOT
ATOM      1  C   UNL     1       0.438  -3.273   3.498  0.00  0.00    +0.191 C 
ATOM      2  N   UNL     1      -0.582  -4.027   3.111  0.00  0.00    -0.155 NA
ATOM      3  C   UNL     1      -0.968  -5.116   3.717  0.00  0.00    +0.252 C 
ATOM      4  O   UNL     1      -1.910  -5.779   3.328  0.00  0.00    -0.272 OA
ATOM      5  C   UNL     1      -0.156  -5.500   4.949  0.00  0.00    +0.150 C 
ATOM      6  S   UNL     1       1.062  -4.117   4.946  0.00  0.00    -0.076 S 
ENDROOT
BRANCH   1   7
ATOM      7  N   UNL     1       0.906  -2.126   2.924  0.00  0.00    -0.094 NA
BRANCH   7  21
ATOM      8  C   UNL     1       0.028   1.533   0.024  0.00  0.00    +0.014 C 
ATOM      9  C   UNL     1       0.037   0.007   0.013  0.00  0.00    +0.032 C 
ATOM     10  C   UNL     1       0.708  -0.524  -1.250  0.00  0.00    +0.009 C 
ATOM     11  C   UNL     1       2.006   0.222  -1.546  0.00  0.00    +0.001 C 
ATOM     12  C   UNL     1       2.891  -0.636  -2.457  0.00  0.00    +0.000 C 
ATOM     13  C   UNL     1       4.355  -0.236  -2.262  0.00  0.00    +0.000 C 
ATOM     14  C   UNL     1       5.023  -1.195  -1.275  0.00  0.00    +0.000 C 
ATOM     15  C   UNL     1       5.469  -0.425  -0.031  0.00  0.00    +0.000 C 
ATOM     16  C   UNL     1       5.109  -1.224   1.223  0.00  0.00    +0.000 C 
ATOM     17  C   UNL     1       4.330  -0.336   2.194  0.00  0.00    +0.000 C 
ATOM     18  C   UNL     1       2.907  -0.875   2.356  0.00  0.00    +0.006 C 
ATOM     19  C   UNL     1       1.905   0.168   1.851  0.00  0.00    +0.053 C 
ATOM     20  C   UNL     1       0.721  -0.531   1.239  0.00  0.00    +0.042 C 
ATOM     21  N   UNL     1       0.281  -1.611   1.780  0.00  0.00    -0.167 NA
ENDBRANCH   7  21
ENDBRANCH   1   7
BRANCH   5  22
ATOM     22  C   UNL     1      -1.018  -5.491   6.212  0.00  0.00    +0.120 C 
BRANCH  22  23
ATOM     23  C   UNL     1      -0.206  -5.993   7.378  0.00  0.00    +0.219 C 
ATOM     24  O   UNL     1       0.949  -6.325   7.215  0.00  0.00    -0.275 OA
ATOM     25  N   UNL     1      -0.763  -6.072   8.603  0.00  0.00    -0.285 N 
ATOM     26  H   UNL     1      -1.665  -5.744   8.748  0.00  0.00    +0.155 HD
BRANCH  25  27
ATOM     27  C   UNL     1      -0.042  -6.628   9.665  0.00  0.00    +0.037 A 
ATOM     28  C   UNL     1      -0.697  -7.375  10.636  0.00  0.00    +0.023 A 
ATOM     29  C   UNL     1       0.016  -7.924  11.684  0.00  0.00    +0.005 A 
ATOM     30  C   UNL     1       1.381  -7.731  11.771  0.00  0.00    +0.046 A 
ATOM     31  C   UNL     1       2.041  -6.985  10.804  0.00  0.00    +0.122 A 
ATOM     32  C   UNL     1       1.331  -6.439   9.747  0.00  0.00    +0.069 A 
BRANCH  31  33
ATOM     33  O   UNL     1       3.384  -6.796  10.891  0.00  0.00    -0.495 OA
ATOM     34  C   UNL     1       4.053  -7.394  12.004  0.00  0.00    +0.277 C 
ENDBRANCH  31  33
ENDBRANCH  25  27
ENDBRANCH  22  23
ENDBRANCH   5  22
TORSDOF 6
