REMARK  Name = ZINC50121735
REMARK  3 active torsions:
REMARK  status: ('A' for Active; 'I' for Inactive)
REMARK    1  A    between atoms: C_1  and  C_2
REMARK    2  A    between atoms: C_2  and  N_3
REMARK    3  A    between atoms: C_6  and  C_9
REMARK                            x       y       z     vdW  Elec       q    Type
REMARK                         _______ _______ _______ _____ _____    ______ ____
ROOT
ATOM      1  N   UNL     1       0.688  -0.476  -1.203  0.00  0.00    -0.282 N 
ATOM      2  C   UNL     1       2.029  -0.719  -1.296  0.00  0.00    +0.160 C 
ATOM      3  N   UNL     1       2.394  -1.128  -2.460  0.00  0.00    -0.366 N 
ATOM      4  C   UNL     1       1.200  -1.195  -3.318  0.00  0.00    +0.172 C 
ATOM      5  C   UNL     1       0.073  -0.747  -2.407  0.00  0.00    +0.100 C 
ATOM      6  N   UNL     1      -1.182  -0.640  -2.696  0.00  0.00    -0.388 N 
ATOM      7  H   UNL     1      -1.811  -0.337  -2.022  0.00  0.00    +0.157 HD
ATOM      8  H   UNL     1      -1.496  -0.862  -3.586  0.00  0.00    +0.157 HD
ATOM      9  H   UNL     1       3.299  -1.352  -2.727  0.00  0.00    +0.161 HD
ENDROOT
BRANCH   4  10
ATOM     10  C   UNL     1       0.965  -2.607  -3.787  0.00  0.00    -0.013 A 
ATOM     11  C   UNL     1       0.530  -2.842  -5.078  0.00  0.00    +0.055 A 
ATOM     12  C   UNL     1       0.312  -4.141  -5.513  0.00  0.00    +0.164 A 
ATOM     13  C   UNL     1       0.535  -5.206  -4.649  0.00  0.00    +0.176 A 
ATOM     14  C   UNL     1       0.971  -4.964  -3.354  0.00  0.00    +0.063 A 
ATOM     15  C   UNL     1       1.189  -3.666  -2.928  0.00  0.00    +0.025 A 
ATOM     16 BR   UNL     1       1.271  -6.409  -2.172  0.00  0.00    -0.046 Br
ATOM     17  O   UNL     1       0.336  -6.489  -5.058  0.00  0.00    -0.484 OA
ATOM     18  C   UNL     1      -0.455  -6.672  -6.237  0.00  0.00    +0.270 C 
ATOM     19  C   UNL     1       0.034  -5.681  -7.303  0.00  0.00    +0.270 C 
ATOM     20  O   UNL     1      -0.120  -4.355  -6.786  0.00  0.00    -0.485 OA
ENDBRANCH   4  10
BRANCH   1  22
ATOM     21  C   UNL     1      -0.019   1.526   0.010  0.00  0.00    +0.025 C 
ATOM     22  C   UNL     1       0.002  -0.004   0.002  0.00  0.00    +0.109 C 
ENDBRANCH   1  22
TORSDOF 2
