REMARK  Name = ZINC13180572
REMARK  10 active torsions:
REMARK  status: ('A' for Active; 'I' for Inactive)
REMARK    1  A    between atoms: C_1  and  C_2
REMARK    2  A    between atoms: C_5  and  C_8
REMARK    3  A    between atoms: C_8  and  C_10
REMARK    4  A    between atoms: C_8  and  N_13
REMARK    5  A    between atoms: C_10  and  C_11
REMARK    6  A    between atoms: C_14  and  C_16
REMARK    7  A    between atoms: N_19  and  S_22
REMARK    8  A    between atoms: S_22  and  C_25
REMARK    9  A    between atoms: C_28  and  C_32
REMARK   10  A    between atoms: C_29  and  C_31
REMARK                            x       y       z     vdW  Elec       q    Type
REMARK                         _______ _______ _______ _____ _____    ______ ____
ROOT
ATOM      1  C   UNL     1      -5.227   0.984   2.649  0.00  0.00    +0.077 C 
ATOM      2  C   UNL     1      -4.552   1.702   3.820  0.00  0.00    +0.030 C 
ATOM      3  C   UNL     1      -5.622   2.168   4.813  0.00  0.00    +0.110 C 
ATOM      4  N   UNL     1      -6.440   1.012   5.205  0.00  0.00    -0.177 NA
ATOM      5  C   UNL     1      -7.061   0.197   4.152  0.00  0.00    +0.110 C 
ATOM      6  C   UNL     1      -5.976  -0.247   3.167  0.00  0.00    +0.030 C 
ENDROOT
BRANCH   1   8
ATOM      7  N   UNL     1      -3.394   1.474   1.063  0.00  0.00    -0.308 N 
ATOM      8  C   UNL     1      -4.181   0.553   1.654  0.00  0.00    +0.217 C 
ATOM      9  O   UNL     1      -4.047  -0.622   1.385  0.00  0.00    -0.275 OA
ATOM     10  H   UNL     1      -3.548   2.418   1.224  0.00  0.00    +0.149 HD
BRANCH   7  11
ATOM     11  C   UNL     1      -2.307   1.049   0.177  0.00  0.00    +0.114 C 
BRANCH  11  16
ATOM     12  C   UNL     1       1.939   4.965   0.311  0.00  0.00    +0.044 C 
ATOM     13  C   UNL     1       0.832   3.944   0.279  0.00  0.00    -0.050 A 
ATOM     14  C   UNL     1       1.136   2.596   0.250  0.00  0.00    +0.004 A 
ATOM     15  C   UNL     1       0.120   1.659   0.221  0.00  0.00    +0.006 A 
ATOM     16  C   UNL     1      -1.200   2.070   0.215  0.00  0.00    -0.027 A 
ATOM     17  C   UNL     1      -1.504   3.418   0.249  0.00  0.00    +0.006 A 
ATOM     18  C   UNL     1      -0.488   4.355   0.278  0.00  0.00    +0.004 A 
ENDBRANCH  11  16
BRANCH  11  19
ATOM     19  C   UNL     1      -2.835   0.922  -1.253  0.00  0.00    +0.152 C 
BRANCH  19  20
ATOM     20  C   UNL     1      -1.765   0.327  -2.132  0.00  0.00    +0.358 C 
ATOM     21  O   UNL     1      -0.736  -0.075  -1.643  0.00  0.00    -0.246 OA
ATOM     22  O   UNL     1      -1.956   0.243  -3.458  0.00  0.00    -0.246 OA
ENDBRANCH  19  20
ENDBRANCH  11  19
ENDBRANCH   7  11
ENDBRANCH   1   8
BRANCH   4  23
ATOM     23  S   UNL     1      -6.657   0.635   6.803  0.00  0.00    +0.061 S 
ATOM     24  O   UNL     1      -6.448   1.834   7.535  0.00  0.00    -0.153 OA
ATOM     25  O   UNL     1      -7.866  -0.107   6.884  0.00  0.00    -0.153 OA
BRANCH  23  26
ATOM     26  C   UNL     1      -5.359  -0.467   7.259  0.00  0.00    +0.106 A 
ATOM     27  C   UNL     1      -5.534  -1.832   7.130  0.00  0.00    +0.029 A 
ATOM     28  C   UNL     1      -4.515  -2.696   7.484  0.00  0.00    +0.005 A 
ATOM     29  C   UNL     1      -3.324  -2.195   7.976  0.00  0.00    -0.047 A 
ATOM     30  C   UNL     1      -3.151  -0.830   8.110  0.00  0.00    -0.046 A 
ATOM     31  C   UNL     1      -4.169   0.034   7.751  0.00  0.00    +0.032 A 
ATOM     32  C   UNL     1      -1.853  -0.284   8.646  0.00  0.00    +0.044 C 
ATOM     33  C   UNL     1      -2.214  -3.136   8.366  0.00  0.00    +0.044 C 
ENDBRANCH  23  26
ENDBRANCH   4  23
TORSDOF 7
