REMARK  Name = ZINC58161400
REMARK  8 active torsions:
REMARK  status: ('A' for Active; 'I' for Inactive)
REMARK    1  A    between atoms: C_1  and  C_2
REMARK    2  A    between atoms: C_2  and  C_4
REMARK    3  A    between atoms: C_2  and  N_18
REMARK    4  A    between atoms: C_9  and  N_10
REMARK    5  A    between atoms: N_13  and  C_16
REMARK    6  A    between atoms: C_19  and  C_21
REMARK    7  A    between atoms: C_24  and  N_27
REMARK    8  A    between atoms: C_28  and  C_30
REMARK                            x       y       z     vdW  Elec       q    Type
REMARK                         _______ _______ _______ _____ _____    ______ ____
ROOT
ATOM      1  N   UNL     1      -1.163  -0.636  -0.099  0.00  0.00    -0.305 N 
ATOM      2  C   UNL     1      -1.811  -0.820  -1.266  0.00  0.00    +0.245 C 
ATOM      3  O   UNL     1      -1.270  -0.527  -2.314  0.00  0.00    -0.270 OA
ATOM      4  H   UNL     1      -1.595  -0.869   0.738  0.00  0.00    +0.150 HD
ENDROOT
BRANCH   2   5
ATOM      5  C   UNL     1      -3.178  -1.376  -1.271  0.00  0.00    +0.037 A 
ATOM      6  C   UNL     1      -3.804  -1.707  -0.066  0.00  0.00    +0.015 A 
ATOM      7  C   UNL     1      -5.079  -2.225  -0.074  0.00  0.00    +0.024 A 
ATOM      8  C   UNL     1      -5.745  -2.419  -1.280  0.00  0.00    +0.034 A 
ATOM      9  C   UNL     1      -5.125  -2.091  -2.482  0.00  0.00    +0.024 A 
ATOM     10  C   UNL     1      -3.852  -1.567  -2.480  0.00  0.00    +0.015 A 
BRANCH   8  11
ATOM     11  N   UNL     1      -7.037  -2.944  -1.284  0.00  0.00    -0.282 N 
ATOM     12  C   UNL     1      -7.898  -2.622  -0.300  0.00  0.00    +0.248 C 
ATOM     13  O   UNL     1      -7.526  -1.940   0.635  0.00  0.00    -0.270 OA
ATOM     14  H   UNL     1      -7.315  -3.541  -1.997  0.00  0.00    +0.155 HD
BRANCH  12  15
ATOM     15  C   UNL     1      -9.297  -3.097  -0.357  0.00  0.00    +0.037 A 
ATOM     16  C   UNL     1      -9.726  -3.885  -1.426  0.00  0.00    +0.013 A 
ATOM     17  C   UNL     1     -11.033  -4.325  -1.473  0.00  0.00    +0.001 A 
ATOM     18  C   UNL     1     -11.917  -3.987  -0.464  0.00  0.00    +0.000 A 
ATOM     19  C   UNL     1     -11.498  -3.207   0.599  0.00  0.00    +0.001 A 
ATOM     20  C   UNL     1     -10.192  -2.765   0.662  0.00  0.00    +0.013 A 
ENDBRANCH  12  15
ENDBRANCH   8  11
ENDBRANCH   2   5
BRANCH   1  22
ATOM     21  C   UNL     1       0.124   1.442  -0.015  0.00  0.00    +0.033 C 
ATOM     22  C   UNL     1       0.194  -0.084  -0.094  0.00  0.00    +0.102 C 
BRANCH  22  23
ATOM     23  C   UNL     1       0.948  -0.614   1.099  0.00  0.00    -0.004 A 
ATOM     24  C   UNL     1       0.264  -0.975   2.244  0.00  0.00    +0.045 A 
ATOM     25  C   UNL     1       0.956  -1.463   3.339  0.00  0.00    +0.124 A 
ATOM     26  C   UNL     1       2.334  -1.589   3.291  0.00  0.00    +0.040 A 
ATOM     27  C   UNL     1       3.022  -1.228   2.148  0.00  0.00    +0.026 A 
ATOM     28  C   UNL     1       2.329  -0.745   1.046  0.00  0.00    +0.035 A 
ATOM     29  F   UNL     1       0.286  -1.816   4.458  0.00  0.00    -0.205 F 
BRANCH  28  30
ATOM     30  N   UNL     1       3.022  -0.385  -0.114  0.00  0.00    -0.333 N 
ATOM     31  C   UNL     1       3.531   0.983  -0.297  0.00  0.00    +0.086 C 
ATOM     32  C   UNL     1       5.008   0.902  -0.698  0.00  0.00    -0.060 C 
ATOM     33  N   UNL     1       5.148   0.040  -1.878  0.00  0.00    +0.380 N 
ATOM     34  C   UNL     1       4.754  -1.334  -1.544  0.00  0.00    -0.060 C 
ATOM     35  C   UNL     1       3.269  -1.366  -1.183  0.00  0.00    +0.086 C 
ATOM     36  C   UNL     1       6.546   0.051  -2.328  0.00  0.00    -0.096 C 
ATOM     37  H   UNL     1       4.557   0.388  -2.619  0.00  0.00    -0.082 HD
ENDBRANCH  28  30
ENDBRANCH  22  23
ENDBRANCH   1  22
TORSDOF 6
