REMARK  Name = ZINC58323585
REMARK  10 active torsions:
REMARK  status: ('A' for Active; 'I' for Inactive)
REMARK    1  A    between atoms: C_1  and  C_2
REMARK    2  A    between atoms: C_5  and  C_25
REMARK    3  A    between atoms: C_7  and  N_8
REMARK    4  A    between atoms: N_8  and  C_9
REMARK    5  A    between atoms: C_9  and  C_10
REMARK    6  A    between atoms: N_12  and  C_13
REMARK    7  A    between atoms: C_18  and  C_19
REMARK    8  A    between atoms: N_21  and  C_22
REMARK    9  A    between atoms: C_29  and  C_36
REMARK   10  A    between atoms: C_32  and  C_35
REMARK                            x       y       z     vdW  Elec       q    Type
REMARK                         _______ _______ _______ _____ _____    ______ ____
ROOT
ATOM      1  N   UNL     1       0.419  -0.172   2.387  0.00  0.00    -0.335 N 
ATOM      2  H   UNL     1       0.351   0.794   2.443  0.00  0.00    +0.147 HD
ENDROOT
BRANCH   1   9
ATOM      3  C   UNL     1      -0.129   1.430   0.105  0.00  0.00    +0.045 C 
ATOM      4  C   UNL     1      -0.023  -0.071   0.017  0.00  0.00    -0.030 A 
ATOM      5  C   UNL     1      -0.189  -0.703  -1.202  0.00  0.00    +0.006 A 
ATOM      6  C   UNL     1      -0.093  -2.076  -1.291  0.00  0.00    +0.013 A 
ATOM      7  C   UNL     1       0.172  -2.833  -0.148  0.00  0.00    +0.039 A 
ATOM      8  C   UNL     1       0.340  -2.196   1.081  0.00  0.00    +0.036 A 
ATOM      9  C   UNL     1       0.247  -0.815   1.159  0.00  0.00    +0.031 A 
BRANCH   7  10
ATOM     10  C   UNL     1       0.275  -4.305  -0.241  0.00  0.00    +0.247 C 
ATOM     11  O   UNL     1      -0.092  -5.000   0.686  0.00  0.00    -0.270 OA
ATOM     12  N   UNL     1       0.776  -4.877  -1.354  0.00  0.00    -0.297 N 
ATOM     13  C   UNL     1       1.335  -4.051  -2.433  0.00  0.00    +0.111 C 
ATOM     14  C   UNL     1       2.753  -4.542  -2.744  0.00  0.00    +0.004 C 
ATOM     15  C   UNL     1       2.714  -6.040  -3.055  0.00  0.00    +0.009 C 
ATOM     16  C   UNL     1       2.196  -6.802  -1.833  0.00  0.00    +0.004 C 
ATOM     17  C   UNL     1       0.778  -6.338  -1.509  0.00  0.00    +0.111 C 
ATOM     18  C   UNL     1       3.107  -6.526  -0.635  0.00  0.00    +0.009 C 
ATOM     19  C   UNL     1       3.302  -3.783  -3.954  0.00  0.00    +0.009 C 
ENDBRANCH   7  10
ENDBRANCH   1   9
BRANCH   1  20
ATOM     20  C   UNL     1       0.704  -0.956   3.591  0.00  0.00    +0.198 C 
BRANCH  20  21
ATOM     21  C   UNL     1       0.845  -0.030   4.772  0.00  0.00    +0.234 C 
ATOM     22  O   UNL     1       0.720   1.167   4.622  0.00  0.00    -0.274 OA
ATOM     23  N   UNL     1       1.110  -0.532   5.995  0.00  0.00    -0.284 N 
ATOM     24  H   UNL     1       1.279  -1.481   6.103  0.00  0.00    +0.155 HD
BRANCH  23  25
ATOM     25  C   UNL     1       1.141   0.311   7.103  0.00  0.00    +0.046 A 
ATOM     26  C   UNL     1       1.497   1.645   6.954  0.00  0.00    +0.024 A 
ATOM     27  C   UNL     1       1.527   2.479   8.053  0.00  0.00    +0.002 A 
ATOM     28  C   UNL     1       1.202   1.995   9.310  0.00  0.00    +0.001 A 
ATOM     29  C   UNL     1       0.846   0.674   9.476  0.00  0.00    +0.015 A 
ATOM     30  C   UNL     1       0.806  -0.181   8.373  0.00  0.00    +0.058 A 
BRANCH  30  31
ATOM     31  C   UNL     1       0.419  -1.594   8.542  0.00  0.00    +0.246 C 
ATOM     32  O   UNL     1       0.270  -2.305   7.567  0.00  0.00    -0.270 OA
ATOM     33  N   UNL     1       0.230  -2.097   9.778  0.00  0.00    -0.308 N 
ATOM     34  H   UNL     1       0.348  -1.530  10.556  0.00  0.00    +0.149 HD
BRANCH  33  35
ATOM     35  C   UNL     1      -0.154  -3.501   9.947  0.00  0.00    +0.073 C 
ATOM     36  C   UNL     1      -1.254  -3.815  10.964  0.00  0.00    +0.024 C 
ATOM     37  C   UNL     1       0.201  -4.176  11.273  0.00  0.00    +0.024 C 
ENDBRANCH  33  35
ENDBRANCH  30  31
ENDBRANCH  23  25
ENDBRANCH  20  21
ENDBRANCH   1  20
TORSDOF 7
