REMARK  Name = ZINC15675417
REMARK  8 active torsions:
REMARK  status: ('A' for Active; 'I' for Inactive)
REMARK    1  A    between atoms: C_1  and  C_2
REMARK    2  A    between atoms: C_2  and  C_3
REMARK    3  A    between atoms: C_2  and  C_4
REMARK    4  A    between atoms: C_7  and  N_10
REMARK    5  A    between atoms: C_15  and  O_34
REMARK    6  A    between atoms: C_17  and  O_33
REMARK    7  A    between atoms: C_20  and  C_25
REMARK    8  A    between atoms: N_27  and  C_28
REMARK                            x       y       z     vdW  Elec       q    Type
REMARK                         _______ _______ _______ _____ _____    ______ ____
ROOT
ATOM      1  N   UNL     1      -3.306  -0.236   8.923  0.00  0.00    -0.294 N 
ATOM      2  C   UNL     1      -2.296   0.312   8.164  0.00  0.00    +0.154 C 
ATOM      3  N   UNL     1      -1.015   0.175   8.347  0.00  0.00    -0.256 NA
ATOM      4  C   UNL     1      -0.073   0.837   7.487  0.00  0.00    +0.153 C 
ATOM      5  C   UNL     1       1.209   0.102   7.244  0.00  0.00    +0.168 C 
ATOM      6  C   UNL     1       1.251  -0.577   5.878  0.00  0.00    +0.146 C 
ATOM      7  C   UNL     1       0.990   0.488   4.806  0.00  0.00    +0.048 C 
ATOM      8  C   UNL     1      -0.439   0.990   4.960  0.00  0.00    +0.093 C 
ATOM      9  C   UNL     1      -0.696   1.592   6.328  0.00  0.00    +0.093 C 
ATOM     10  S   UNL     1      -2.478   1.353   6.728  0.00  0.00    -0.084 S 
ATOM     11  H   UNL     1      -4.231  -0.134   8.647  0.00  0.00    +0.154 HD
ENDROOT
BRANCH   1  15
ATOM     12  C   UNL     1      -2.392  -2.330  12.406  0.00  0.00    -0.045 A 
ATOM     13  C   UNL     1      -1.563  -1.310  11.976  0.00  0.00    +0.006 A 
ATOM     14  C   UNL     1      -1.863  -0.614  10.822  0.00  0.00    +0.023 A 
ATOM     15  C   UNL     1      -2.999  -0.939  10.092  0.00  0.00    +0.033 A 
ATOM     16  C   UNL     1      -3.832  -1.961  10.529  0.00  0.00    +0.023 A 
ATOM     17  C   UNL     1      -3.523  -2.658  11.681  0.00  0.00    +0.006 A 
BRANCH  12  19
ATOM     18  C   UNL     1      -3.203  -2.929  14.671  0.00  0.00    +0.012 C 
ATOM     19  C   UNL     1      -2.061  -3.088  13.666  0.00  0.00    +0.013 C 
ATOM     20  C   UNL     1      -1.875  -4.570  13.335  0.00  0.00    +0.012 C 
ENDBRANCH  12  19
ENDBRANCH   1  15
BRANCH   8  21
ATOM     21  C   UNL     1      -0.705   2.036   3.908  0.00  0.00    +0.218 C 
ATOM     22  O   UNL     1      -1.012   3.162   4.237  0.00  0.00    -0.275 OA
ATOM     23  N   UNL     1      -0.600   1.720   2.602  0.00  0.00    -0.312 N 
ATOM     24  H   UNL     1      -0.354   0.820   2.339  0.00  0.00    +0.149 HD
BRANCH  23  25
ATOM     25  C   UNL     1      -0.858   2.737   1.580  0.00  0.00    +0.073 C 
ATOM     26  C   UNL     1      -0.113   2.396   0.266  0.00  0.00    +0.022 C 
ATOM     27  C   UNL     1      -0.914   3.131  -0.829  0.00  0.00    +0.002 C 
ATOM     28  C   UNL     1      -2.334   3.334  -0.273  0.00  0.00    +0.002 C 
ATOM     29  C   UNL     1      -2.347   2.715   1.140  0.00  0.00    +0.022 C 
ENDBRANCH  23  25
ENDBRANCH   8  21
BRANCH   6  30
ATOM     30  O   UNL     1       2.538  -1.164   5.671  0.00  0.00    -0.389 OA
ATOM     31  H   UNL     1       2.639  -1.596   4.812  0.00  0.00    +0.210 HD
ENDBRANCH   6  30
BRANCH   5  32
ATOM     32  O   UNL     1       1.370  -0.891   8.258  0.00  0.00    -0.387 OA
ATOM     33  H   UNL     1       2.203  -1.380   8.201  0.00  0.00    +0.210 HD
ENDBRANCH   5  32
TORSDOF 6
