REMARK  Name = ZINC37929844
REMARK  3 active torsions:
REMARK  status: ('A' for Active; 'I' for Inactive)
REMARK    1  A    between atoms: C_3  and  N_23
REMARK    2  A    between atoms: C_4  and  S_8
REMARK    3  A    between atoms: S_8  and  N_11
REMARK                            x       y       z     vdW  Elec       q    Type
REMARK                         _______ _______ _______ _____ _____    ______ ____
ROOT
ATOM      1  S   UNL     1       3.913  -1.109  -0.098  0.00  0.00    +0.063 S 
ATOM      2  O   UNL     1       4.766  -0.592   0.914  0.00  0.00    -0.153 OA
ATOM      3  O   UNL     1       3.554  -2.482  -0.164  0.00  0.00    -0.153 OA
ENDROOT
BRANCH   1   4
ATOM      4  N   UNL     1       4.618  -0.733  -1.549  0.00  0.00    -0.176 NA
ATOM      5  C   UNL     1       4.206  -1.418  -2.782  0.00  0.00    +0.110 C 
ATOM      6  C   UNL     1       5.449  -2.003  -3.458  0.00  0.00    +0.021 C 
ATOM      7  C   UNL     1       6.480  -0.893  -3.675  0.00  0.00    -0.005 C 
ATOM      8  C   UNL     1       7.713  -1.478  -4.369  0.00  0.00    +0.004 C 
ATOM      9  C   UNL     1       8.306  -2.588  -3.499  0.00  0.00    +0.000 C 
ATOM     10  C   UNL     1       8.712  -2.012  -2.141  0.00  0.00    +0.000 C 
ATOM     11  C   UNL     1       7.483  -1.419  -1.449  0.00  0.00    +0.005 C 
ATOM     12  C   UNL     1       6.888  -0.304  -2.322  0.00  0.00    +0.008 C 
ATOM     13  C   UNL     1       5.663   0.296  -1.629  0.00  0.00    +0.113 C 
ENDBRANCH   1   4
BRANCH   1  17
ATOM     14  C   UNL     1       0.039   1.232   0.154  0.00  0.00    +0.040 A 
ATOM     15  C   UNL     1       1.247   1.901   0.154  0.00  0.00    +0.027 A 
ATOM     16  C   UNL     1       2.436   1.187   0.077  0.00  0.00    +0.051 A 
ATOM     17  C   UNL     1       2.407  -0.199   0.000  0.00  0.00    +0.129 A 
ATOM     18  C   UNL     1       1.196  -0.865   0.000  0.00  0.00    +0.068 A 
ATOM     19  C   UNL     1       0.013  -0.150   0.077  0.00  0.00    +0.125 A 
ATOM     20  F   UNL     1      -1.170  -0.803   0.077  0.00  0.00    -0.205 F 
BRANCH  16  21
ATOM     21  N   UNL     1       3.660   1.863   0.077  0.00  0.00    -0.356 N 
ATOM     22  H   UNL     1       3.679   2.832   0.042  0.00  0.00    +0.142 HD
ATOM     23  H   UNL     1       4.490   1.363   0.112  0.00  0.00    +0.142 HD
ENDBRANCH  16  21
ENDBRANCH   1  17
TORSDOF 3
