REMARK  Name = ZINC19865765
REMARK  4 active torsions:
REMARK  status: ('A' for Active; 'I' for Inactive)
REMARK    1  A    between atoms: C_1  and  C_2
REMARK    2  A    between atoms: N_11  and  C_12
REMARK    3  A    between atoms: C_15  and  C_18
REMARK    4  A    between atoms: N_19  and  O_20
REMARK                            x       y       z     vdW  Elec       q    Type
REMARK                         _______ _______ _______ _____ _____    ______ ____
ROOT
ATOM      1  C   UNL     1       2.860  -0.037  -0.025  0.00  0.00    +0.034 A 
ATOM      2  C   UNL     1       3.547  -0.581   1.056  0.00  0.00    +0.024 A 
ATOM      3  C   UNL     1       3.899  -1.913   1.051  0.00  0.00    +0.013 A 
ATOM      4  C   UNL     1       3.574  -2.715  -0.044  0.00  0.00    +0.018 A 
ATOM      5  C   UNL     1       2.889  -2.166  -1.130  0.00  0.00    +0.013 A 
ATOM      6  C   UNL     1       2.535  -0.835  -1.118  0.00  0.00    +0.024 A 
ENDROOT
BRANCH   1  16
ATOM      7  C   UNL     1       4.269   2.386  -1.343  0.00  0.00    +0.029 C 
ATOM      8  C   UNL     1       3.444   2.430  -0.055  0.00  0.00    +0.080 C 
ATOM      9  C   UNL     1       2.569   3.694  -0.025  0.00  0.00    +0.059 C 
ATOM     10  C   UNL     1       1.151   3.173   0.033  0.00  0.00    -0.024 A 
ATOM     11  C   UNL     1      -0.058   3.840   0.079  0.00  0.00    +0.005 A 
ATOM     12  C   UNL     1      -1.242   3.129   0.127  0.00  0.00    +0.000 A 
ATOM     13  C   UNL     1      -1.215   1.746   0.123  0.00  0.00    +0.002 A 
ATOM     14  C   UNL     1      -0.011   1.076   0.084  0.00  0.00    +0.024 A 
ATOM     15  C   UNL     1       1.190   1.788   0.035  0.00  0.00    +0.037 A 
ATOM     16  N   UNL     1       2.501   1.310  -0.015  0.00  0.00    -0.297 N 
ENDBRANCH   1  16
BRANCH   4  17
ATOM     17  C   UNL     1       3.954  -4.144  -0.054  0.00  0.00    +0.162 C 
ATOM     18  N   UNL     1       3.651  -4.891  -1.076  0.00  0.00    -0.072 NA
ATOM     19  N   UNL     1       4.634  -4.687   1.023  0.00  0.00    -0.340 N 
ATOM     20  H   UNL     1       4.917  -5.750   1.016  0.00  0.00    +0.144 HD
ATOM     21  H   UNL     1       4.890  -4.056   1.886  0.00  0.00    +0.144 HD
BRANCH  18  22
ATOM     22  O   UNL     1       4.015  -6.259  -1.086  0.00  0.00    -0.408 OA
ATOM     23  H   UNL     1       3.758  -6.891  -1.949  0.00  0.00    +0.328 HD
ENDBRANCH  18  22
ENDBRANCH   4  17
TORSDOF 3
