REMARK  Name = ZINC40400550
REMARK  10 active torsions:
REMARK  status: ('A' for Active; 'I' for Inactive)
REMARK    1  A    between atoms: C_1  and  C_2
REMARK    2  A    between atoms: C_2  and  O_3
REMARK    3  A    between atoms: O_3  and  C_4
REMARK    4  A    between atoms: C_4  and  C_6
REMARK    5  A    between atoms: C_7  and  C_34
REMARK    6  A    between atoms: C_11  and  C_13
REMARK    7  A    between atoms: C_20  and  C_23
REMARK    8  A    between atoms: C_24  and  N_26
REMARK    9  A    between atoms: N_26  and  C_27
REMARK   10  A    between atoms: C_27  and  C_28
REMARK                            x       y       z     vdW  Elec       q    Type
REMARK                         _______ _______ _______ _____ _____    ______ ____
ROOT
ATOM      1  C   UNL     1      -2.761  -2.355  -0.122  0.00  0.00    +0.082 C 
ATOM      2  C   UNL     1      -3.041  -3.685  -0.370  0.00  0.00    +0.053 C 
ATOM      3  N   UNL     1      -4.276  -4.144  -0.250  0.00  0.00    -0.230 NA
ATOM      4  C   UNL     1      -5.316  -3.419   0.103  0.00  0.00    +0.166 C 
ATOM      5  N   UNL     1      -5.253  -2.084   0.393  0.00  0.00    -0.267 N 
ATOM      6  C   UNL     1      -3.907  -1.459   0.294  0.00  0.00    +0.150 C 
ATOM      7  C   UNL     1      -6.434  -1.463   0.748  0.00  0.00    +0.048 C 
ATOM      8  C   UNL     1      -7.554  -2.218   0.781  0.00  0.00    +0.072 C 
ATOM      9  S   UNL     1      -6.934  -3.819   0.307  0.00  0.00    -0.060 S 
ATOM     10  C   UNL     1      -1.932  -4.618  -0.782  0.00  0.00    +0.066 C 
ENDROOT
BRANCH   6  11
ATOM     11  C   UNL     1      -3.996  -0.329  -0.698  0.00  0.00    -0.019 A 
ATOM     12  C   UNL     1      -4.486  -0.563  -1.970  0.00  0.00    +0.006 A 
ATOM     13  C   UNL     1      -4.569   0.473  -2.881  0.00  0.00    +0.003 A 
ATOM     14  C   UNL     1      -4.161   1.744  -2.522  0.00  0.00    +0.038 A 
ATOM     15  C   UNL     1      -3.671   1.980  -1.249  0.00  0.00    +0.124 A 
ATOM     16  C   UNL     1      -3.594   0.942  -0.335  0.00  0.00    +0.044 A 
ATOM     17  F   UNL     1      -3.272   3.222  -0.898  0.00  0.00    -0.205 F 
ENDBRANCH   6  11
BRANCH   7  18
ATOM     18  C   UNL     1      -6.471  -0.031   1.078  0.00  0.00    +0.091 C 
ATOM     19  C   UNL     1      -7.652   0.580   1.294  0.00  0.00    +0.239 C 
ATOM     20  O   UNL     1      -8.796  -0.146   1.319  0.00  0.00    -0.271 OA
BRANCH  19  21
ATOM     21  N   UNL     1      -7.696   1.950   1.492  0.00  0.00    -0.306 N 
ATOM     22  H   UNL     1      -6.889   2.479   1.401  0.00  0.00    +0.149 HD
BRANCH  21  23
ATOM     23  C   UNL     1      -8.963   2.599   1.838  0.00  0.00    +0.160 C 
BRANCH  23  24
ATOM     24  C   UNL     1      -8.768   4.092   1.879  0.00  0.00    +0.058 A 
ATOM     25  C   UNL     1      -9.068   4.851   0.763  0.00  0.00    +0.025 A 
ATOM     26  C   UNL     1      -8.885   6.224   0.811  0.00  0.00    +0.003 A 
ATOM     27  C   UNL     1      -8.404   6.786   1.984  0.00  0.00    +0.020 A 
ATOM     28  C   UNL     1      -8.127   5.963   3.060  0.00  0.00    +0.111 A 
ATOM     29  N   UNL     1      -8.318   4.661   2.980  0.00  0.00    -0.258 NA
ENDBRANCH  23  24
ENDBRANCH  21  23
ENDBRANCH  19  21
ENDBRANCH   7  18
BRANCH   1  30
ATOM     30  C   UNL     1      -1.460  -1.854  -0.245  0.00  0.00    +0.339 C 
ATOM     31  O   UNL     1      -0.530  -2.616  -0.448  0.00  0.00    -0.245 OA
BRANCH  30  32
ATOM     32  O   UNL     1      -1.234  -0.525  -0.140  0.00  0.00    -0.462 OA
BRANCH  32  34
ATOM     33  C   UNL     1       0.176   1.437  -0.129  0.00  0.00    +0.048 C 
ATOM     34  C   UNL     1       0.118  -0.084  -0.277  0.00  0.00    +0.229 C 
ENDBRANCH  32  34
ENDBRANCH  30  32
ENDBRANCH   1  30
TORSDOF 8
