REMARK  Name = ZINC24123455
REMARK  5 active torsions:
REMARK  status: ('A' for Active; 'I' for Inactive)
REMARK    1  A    between atoms: C_6  and  S_7
REMARK    2  A    between atoms: S_7  and  N_10
REMARK    3  A    between atoms: C_13  and  C_16
REMARK    4  A    between atoms: N_18  and  N_19
REMARK    5  A    between atoms: C_20  and  C_22
REMARK                            x       y       z     vdW  Elec       q    Type
REMARK                         _______ _______ _______ _____ _____    ______ ____
ROOT
ATOM      1  N   UNL     1       6.930  -7.156   0.979  0.00  0.00    -0.177 NA
ATOM      2  C   UNL     1       7.517  -6.405  -0.139  0.00  0.00    +0.110 C 
ATOM      3  C   UNL     1       6.999  -4.964  -0.091  0.00  0.00    +0.030 C 
ATOM      4  C   UNL     1       5.469  -4.976  -0.077  0.00  0.00    +0.079 C 
ATOM      5  C   UNL     1       4.975  -5.709   1.173  0.00  0.00    +0.030 C 
ATOM      6  C   UNL     1       5.469  -7.158   1.139  0.00  0.00    +0.110 C 
ENDROOT
BRANCH   4   7
ATOM      7  C   UNL     1       4.956  -3.560  -0.064  0.00  0.00    +0.232 C 
ATOM      8  O   UNL     1       5.737  -2.632  -0.067  0.00  0.00    -0.274 OA
ATOM      9  N   UNL     1       3.629  -3.324  -0.050  0.00  0.00    -0.234 N 
ATOM     10  H   UNL     1       2.921  -4.165  -0.048  0.00  0.00    +0.173 HD
BRANCH   9  11
ATOM     11  N   UNL     1       3.152  -2.006  -0.039  0.00  0.00    -0.229 N 
ATOM     12  C   UNL     1       1.825  -1.770  -0.025  0.00  0.00    +0.276 C 
ATOM     13  O   UNL     1       1.041  -2.701  -0.022  0.00  0.00    -0.267 OA
ATOM     14  H   UNL     1       3.860  -1.165  -0.041  0.00  0.00    +0.173 HD
BRANCH  12  15
ATOM     15  C   UNL     1       1.325  -0.391  -0.013  0.00  0.00    +0.104 A 
ATOM     16  C   UNL     1       0.002  -0.004   0.002  0.00  0.00    +0.047 A 
ATOM     17  C   UNL     1      -0.017   1.395   0.010  0.00  0.00    +0.036 A 
ATOM     18  C   UNL     1       1.267   1.827  -0.000  0.00  0.00    +0.098 A 
ATOM     19  N   UNL     1       2.092   0.752  -0.014  0.00  0.00    -0.356 N 
ATOM     20  H   UNL     1       3.190   0.677  -0.025  0.00  0.00    +0.166 HD
ATOM     21 BR   UNL     1      -1.560   2.487   0.023  0.00  0.00    -0.049 Br
ENDBRANCH  12  15
ENDBRANCH   9  11
ENDBRANCH   4   7
BRANCH   1  22
ATOM     22  S   UNL     1       7.896  -7.983   2.040  0.00  0.00    +0.061 S 
ATOM     23  O   UNL     1       7.091  -9.005   2.611  0.00  0.00    -0.153 OA
ATOM     24  O   UNL     1       9.107  -8.263   1.352  0.00  0.00    -0.153 OA
BRANCH  22  30
ATOM     25  C   UNL     1       7.495  -6.795   4.465  0.00  0.00    +0.029 A 
ATOM     26  C   UNL     1       7.817  -5.925   5.488  0.00  0.00    +0.006 A 
ATOM     27  C   UNL     1       8.948  -5.131   5.398  0.00  0.00    -0.044 A 
ATOM     28  C   UNL     1       9.757  -5.210   4.280  0.00  0.00    -0.042 A 
ATOM     29  C   UNL     1       9.436  -6.087   3.257  0.00  0.00    +0.032 A 
ATOM     30  C   UNL     1       8.304  -6.874   3.347  0.00  0.00    +0.106 A 
ATOM     31  C   UNL     1      10.919  -4.250   4.420  0.00  0.00    +0.036 C 
ATOM     32  C   UNL     1      10.974  -3.900   5.922  0.00  0.00    +0.009 C 
ATOM     33  C   UNL     1       9.511  -4.113   6.366  0.00  0.00    +0.036 C 
ENDBRANCH  22  30
ENDBRANCH   1  22
TORSDOF 5
