REMARK  Name = ZINC35564647
REMARK  11 active torsions:
REMARK  status: ('A' for Active; 'I' for Inactive)
REMARK    1  A    between atoms: C_1  and  C_2
REMARK    2  A    between atoms: C_2  and  C_3
REMARK    3  A    between atoms: C_2  and  C_4
REMARK    4  A    between atoms: C_9  and  N_10
REMARK    5  A    between atoms: C_11  and  C_17
REMARK    6  A    between atoms: C_20  and  N_23
REMARK    7  A    between atoms: N_23  and  S_24
REMARK    8  A    between atoms: S_24  and  C_27
REMARK    9  A    between atoms: C_27  and  C_28
REMARK   10  A    between atoms: C_33  and  C_34
REMARK   11  A    between atoms: C_33  and  C_35
REMARK                            x       y       z     vdW  Elec       q    Type
REMARK                         _______ _______ _______ _____ _____    ______ ____
ROOT
ATOM      1  C   UNL     1      -1.015  -3.913  -2.333  0.00  0.00    -0.017 A 
ATOM      2  C   UNL     1      -2.353  -3.884  -2.685  0.00  0.00    +0.008 A 
ATOM      3  C   UNL     1      -3.178  -4.942  -2.357  0.00  0.00    +0.025 A 
ATOM      4  C   UNL     1      -2.663  -6.037  -1.675  0.00  0.00    +0.048 A 
ATOM      5  C   UNL     1      -1.319  -6.063  -1.324  0.00  0.00    +0.025 A 
ATOM      6  C   UNL     1      -0.498  -5.004  -1.659  0.00  0.00    +0.008 A 
ENDROOT
BRANCH   1   8
ATOM      7  N   UNL     1      -0.632  -1.493  -2.130  0.00  0.00    -0.254 N 
ATOM      8  C   UNL     1      -0.118  -2.757  -2.692  0.00  0.00    +0.170 C 
ATOM      9  S   UNL     1      -0.185  -2.401  -4.501  0.00  0.00    -0.124 S 
ATOM     10  C   UNL     1      -0.245  -0.563  -4.349  0.00  0.00    +0.167 C 
ATOM     11  C   UNL     1      -0.706  -0.420  -2.907  0.00  0.00    +0.231 C 
ATOM     12  O   UNL     1      -1.122   0.636  -2.482  0.00  0.00    -0.274 OA
BRANCH   7  18
ATOM     13  C   UNL     1      -0.124  -1.127   0.203  0.00  0.00    -0.023 A 
ATOM     14  C   UNL     1      -0.533  -1.058   1.520  0.00  0.00    +0.006 A 
ATOM     15  C   UNL     1      -1.855  -1.295   1.848  0.00  0.00    +0.000 A 
ATOM     16  C   UNL     1      -2.772  -1.601   0.859  0.00  0.00    +0.002 A 
ATOM     17  C   UNL     1      -2.369  -1.671  -0.461  0.00  0.00    +0.024 A 
ATOM     18  C   UNL     1      -1.042  -1.429  -0.794  0.00  0.00    +0.041 A 
BRANCH  13  20
ATOM     19  C   UNL     1       1.693   0.561   0.245  0.00  0.00    +0.012 C 
ATOM     20  C   UNL     1       1.318  -0.868  -0.154  0.00  0.00    +0.015 C 
ATOM     21  C   UNL     1       2.213  -1.858   0.593  0.00  0.00    +0.012 C 
ENDBRANCH  13  20
ENDBRANCH   7  18
ENDBRANCH   1   8
BRANCH   4  22
ATOM     22  N   UNL     1      -3.494  -7.109  -1.342  0.00  0.00    -0.221 N 
ATOM     23  H   UNL     1      -3.780  -7.234  -0.424  0.00  0.00    +0.173 HD
BRANCH  22  24
ATOM     24  S   UNL     1      -3.992  -8.166  -2.515  0.00  0.00    +0.044 S 
ATOM     25  O   UNL     1      -4.859  -9.069  -1.845  0.00  0.00    -0.155 OA
ATOM     26  O   UNL     1      -4.476  -7.340  -3.566  0.00  0.00    -0.155 OA
BRANCH  24  27
ATOM     27  C   UNL     1      -2.482  -9.023  -3.041  0.00  0.00    +0.203 C 
BRANCH  27  28
ATOM     28  C   UNL     1      -2.777  -9.856  -4.290  0.00  0.00    +0.055 C 
ATOM     29  C   UNL     1      -3.231  -9.055  -5.549  0.00  0.00    +0.017 C 
ATOM     30  C   UNL     1      -2.958 -10.008  -6.736  0.00  0.00    +0.005 C 
ATOM     31  C   UNL     1      -2.373 -11.295  -6.076  0.00  0.00    +0.003 C 
ATOM     32  C   UNL     1      -1.570 -10.667  -4.881  0.00  0.00    -0.018 C 
ATOM     33  C   UNL     1      -0.443  -9.752  -5.363  0.00  0.00    +0.012 C 
ATOM     34  C   UNL     1      -1.062 -11.732  -3.908  0.00  0.00    +0.012 C 
ATOM     35  C   UNL     1      -3.584 -11.926  -5.322  0.00  0.00    +0.079 C 
ATOM     36  C   UNL     1      -3.819 -10.970  -4.121  0.00  0.00    +0.142 C 
ATOM     37  O   UNL     1      -4.655 -11.066  -3.255  0.00  0.00    -0.297 OA
ENDBRANCH  27  28
ENDBRANCH  24  27
ENDBRANCH  22  24
ENDBRANCH   4  22
TORSDOF 7
