REMARK  Name = ZINC13396141
REMARK  5 active torsions:
REMARK  status: ('A' for Active; 'I' for Inactive)
REMARK    1  A    between atoms: C_3  and  S_19
REMARK    2  A    between atoms: C_6  and  N_7
REMARK    3  A    between atoms: C_8  and  C_10
REMARK    4  A    between atoms: S_19  and  N_22
REMARK    5  A    between atoms: C_26  and  C_29
REMARK                            x       y       z     vdW  Elec       q    Type
REMARK                         _______ _______ _______ _____ _____    ______ ____
ROOT
ATOM      1  C   UNL     1      -2.672   1.486   3.019  0.00  0.00    +0.025 A 
ATOM      2  C   UNL     1      -1.952   1.110   1.901  0.00  0.00    +0.030 A 
ATOM      3  C   UNL     1      -0.912   1.901   1.449  0.00  0.00    +0.106 A 
ATOM      4  C   UNL     1      -0.585   3.067   2.116  0.00  0.00    +0.030 A 
ATOM      5  C   UNL     1      -1.304   3.451   3.231  0.00  0.00    +0.025 A 
ATOM      6  C   UNL     1      -2.349   2.659   3.688  0.00  0.00    +0.034 A 
ENDROOT
BRANCH   6   7
ATOM      7  N   UNL     1      -3.076   3.043   4.820  0.00  0.00    -0.281 N 
ATOM      8  C   UNL     1      -3.280   4.350   5.079  0.00  0.00    +0.249 C 
ATOM      9  O   UNL     1      -2.916   5.192   4.280  0.00  0.00    -0.270 OA
ATOM     10  H   UNL     1      -3.434   2.368   5.418  0.00  0.00    +0.155 HD
BRANCH   8  11
ATOM     11  C   UNL     1      -3.943   4.758   6.327  0.00  0.00    +0.047 A 
ATOM     12  C   UNL     1      -4.364   3.823   7.247  0.00  0.00    +0.058 A 
ATOM     13  S   UNL     1      -5.061   4.790   8.505  0.00  0.00    -0.101 S 
ATOM     14  C   UNL     1      -4.792   6.395   7.810  0.00  0.00    -0.006 A 
ATOM     15  C   UNL     1      -4.170   6.158   6.632  0.00  0.00    -0.025 A 
ATOM     16  C   UNL     1      -3.769   7.304   5.712  0.00  0.00    +0.037 C 
ATOM     17  C   UNL     1      -4.555   8.555   6.111  0.00  0.00    +0.005 C 
ATOM     18  C   UNL     1      -4.396   8.814   7.612  0.00  0.00    +0.005 C 
ATOM     19  C   UNL     1      -5.158   7.728   8.385  0.00  0.00    +0.043 C 
ENDBRANCH   8  11
ENDBRANCH   6   7
BRANCH   3  20
ATOM     20  S   UNL     1       0.004   1.418   0.023  0.00  0.00    +0.061 S 
ATOM     21  O   UNL     1      -0.142   0.009  -0.095  0.00  0.00    -0.153 OA
ATOM     22  O   UNL     1       1.275   2.046   0.125  0.00  0.00    -0.153 OA
BRANCH  20  23
ATOM     23  N   UNL     1      -0.750   2.084  -1.292  0.00  0.00    -0.176 NA
ATOM     24  C   UNL     1      -1.805   1.349  -2.002  0.00  0.00    +0.109 C 
ATOM     25  C   UNL     1      -3.052   2.242  -2.084  0.00  0.00    +0.018 C 
ATOM     26  C   UNL     1      -2.675   3.578  -2.728  0.00  0.00    +0.017 C 
ATOM     27  C   UNL     1      -1.631   4.287  -1.863  0.00  0.00    +0.118 C 
ATOM     28  C   UNL     1      -0.371   3.419  -1.775  0.00  0.00    +0.124 C 
BRANCH  27  29
ATOM     29  C   UNL     1      -1.283   5.616  -2.482  0.00  0.00    +0.360 C 
ATOM     30  O   UNL     1      -0.146   5.847  -2.818  0.00  0.00    -0.246 OA
ATOM     31  O   UNL     1      -2.237   6.544  -2.659  0.00  0.00    -0.246 OA
ENDBRANCH  27  29
ENDBRANCH  20  23
ENDBRANCH   3  20
TORSDOF 5
