REMARK  Name = ZINC37593613
REMARK  8 active torsions:
REMARK  status: ('A' for Active; 'I' for Inactive)
REMARK    1  A    between atoms: C_1  and  C_2
REMARK    2  A    between atoms: C_9  and  N_15
REMARK    3  A    between atoms: C_10  and  C_11
REMARK    4  A    between atoms: N_13  and  C_14
REMARK    5  A    between atoms: C_16  and  C_18
REMARK    6  A    between atoms: C_21  and  S_24
REMARK    7  A    between atoms: S_24  and  N_27
REMARK    8  A    between atoms: C_31  and  C_34
REMARK                            x       y       z     vdW  Elec       q    Type
REMARK                         _______ _______ _______ _____ _____    ______ ____
ROOT
ATOM      1  N   UNL     1       0.697  -5.846   2.433  0.00  0.00    -0.275 N 
ATOM      2  C   UNL     1       1.679  -6.095   3.322  0.00  0.00    +0.249 C 
ATOM      3  O   UNL     1       2.386  -5.188   3.715  0.00  0.00    -0.270 OA
ATOM      4  H   UNL     1       0.133  -6.570   2.119  0.00  0.00    +0.156 HD
ENDROOT
BRANCH   1  12
ATOM      5  C   UNL     1      -0.019   1.526   0.010  0.00  0.00    +0.008 C 
ATOM      6  C   UNL     1       0.002  -0.004   0.002  0.00  0.00    -0.009 C 
ATOM      7  C   UNL     1      -1.434  -0.537   0.019  0.00  0.00    +0.008 C 
ATOM      8  C   UNL     1      -1.433  -2.045  -0.237  0.00  0.00    +0.037 C 
ATOM      9  C   UNL     1      -0.464  -2.704   0.734  0.00  0.00    -0.023 A 
ATOM     10  C   UNL     1       0.485  -1.986   1.374  0.00  0.00    -0.004 A 
ATOM     11  S   UNL     1       1.344  -3.167   2.372  0.00  0.00    -0.077 S 
ATOM     12  C   UNL     1       0.493  -4.557   1.968  0.00  0.00    +0.085 A 
ATOM     13  C   UNL     1      -0.459  -4.119   1.060  0.00  0.00    +0.069 A 
ATOM     14  C   UNL     1       0.739  -0.515   1.248  0.00  0.00    +0.046 C 
BRANCH  13  15
ATOM     15  C   UNL     1      -1.421  -5.045   0.456  0.00  0.00    +0.246 C 
ATOM     16  O   UNL     1      -1.149  -5.610  -0.588  0.00  0.00    -0.270 OA
ATOM     17  N   UNL     1      -2.607  -5.272   1.055  0.00  0.00    -0.314 N 
ATOM     18  C   UNL     1      -3.569  -6.197   0.451  0.00  0.00    +0.128 C 
ATOM     19  H   UNL     1      -2.824  -4.821   1.887  0.00  0.00    +0.149 HD
ENDBRANCH  13  15
ENDBRANCH   1  12
BRANCH   2  20
ATOM     20  C   UNL     1       1.897  -7.470   3.818  0.00  0.00    +0.037 A 
ATOM     21  C   UNL     1       1.090  -8.515   3.363  0.00  0.00    +0.015 A 
ATOM     22  C   UNL     1       1.298  -9.796   3.830  0.00  0.00    +0.029 A 
ATOM     23  C   UNL     1       2.304 -10.046   4.747  0.00  0.00    +0.106 A 
ATOM     24  C   UNL     1       3.107  -9.015   5.202  0.00  0.00    +0.029 A 
ATOM     25  C   UNL     1       2.913  -7.730   4.739  0.00  0.00    +0.015 A 
BRANCH  23  26
ATOM     26  S   UNL     1       2.563 -11.686   5.339  0.00  0.00    +0.061 S 
ATOM     27  O   UNL     1       3.208 -11.566   6.599  0.00  0.00    -0.153 OA
ATOM     28  O   UNL     1       1.332 -12.376   5.176  0.00  0.00    -0.153 OA
BRANCH  26  29
ATOM     29  N   UNL     1       3.649 -12.409   4.319  0.00  0.00    -0.176 NA
ATOM     30  C   UNL     1       3.187 -13.142   3.132  0.00  0.00    +0.109 C 
ATOM     31  C   UNL     1       3.910 -12.589   1.899  0.00  0.00    +0.017 C 
ATOM     32  C   UNL     1       5.422 -12.651   2.128  0.00  0.00    +0.006 C 
ATOM     33  C   UNL     1       5.793 -11.786   3.334  0.00  0.00    +0.002 C 
ATOM     34  C   UNL     1       5.092 -12.324   4.580  0.00  0.00    +0.112 C 
ATOM     35  C   UNL     1       7.308 -11.822   3.542  0.00  0.00    +0.009 C 
ENDBRANCH  26  29
ENDBRANCH  23  26
ENDBRANCH   2  20
TORSDOF 5
