REMARK  Name = ZINC65021468
REMARK  5 active torsions:
REMARK  status: ('A' for Active; 'I' for Inactive)
REMARK    1  A    between atoms: C_1  and  C_2
REMARK    2  A    between atoms: C_5  and  N_9
REMARK    3  A    between atoms: N_9  and  S_10
REMARK    4  A    between atoms: S_10  and  C_13
REMARK    5  A    between atoms: C_22  and  C_25
REMARK                            x       y       z     vdW  Elec       q    Type
REMARK                         _______ _______ _______ _____ _____    ______ ____
ROOT
ATOM      1  C   UNL     1       0.099  -6.722   1.003  0.00  0.00    +0.112 A 
ATOM      2  C   UNL     1      -1.093  -7.405   0.847  0.00  0.00    +0.030 A 
ATOM      3  C   UNL     1      -1.079  -8.751   0.527  0.00  0.00    +0.018 A 
ATOM      4  C   UNL     1       0.129  -9.409   0.367  0.00  0.00    +0.030 A 
ATOM      5  C   UNL     1       1.335  -8.729   0.530  0.00  0.00    +0.049 A 
ATOM      6  C   UNL     1       1.306  -7.373   0.841  0.00  0.00    +0.053 A 
ATOM      7  N   UNL     1       2.564  -9.369   0.399  0.00  0.00    -0.283 N 
ATOM      8  C   UNL     1       2.782 -10.680   0.412  0.00  0.00    +0.240 C 
ATOM      9  O   UNL     1       3.901 -11.081   0.173  0.00  0.00    -0.274 OA
ATOM     10  C   UNL     1       1.706 -11.692   0.709  0.00  0.00    +0.223 C 
ATOM     11  S   UNL     1       0.155 -11.124  -0.052  0.00  0.00    -0.101 S 
ATOM     12  H   UNL     1       3.342  -8.800   0.285  0.00  0.00    +0.155 HD
ENDROOT
BRANCH  10  13
ATOM     13  C   UNL     1       1.528 -11.818   2.200  0.00  0.00    +0.238 C 
ATOM     14  O   UNL     1       1.657 -10.844   2.911  0.00  0.00    -0.274 OA
ATOM     15  N   UNL     1       1.224 -13.013   2.744  0.00  0.00    -0.300 N 
ATOM     16  C   UNL     1       1.046 -14.271   2.003  0.00  0.00    +0.108 C 
ATOM     17  C   UNL     1       0.685 -15.361   3.034  0.00  0.00    +0.020 C 
ATOM     18  C   UNL     1       0.125 -14.542   4.226  0.00  0.00    +0.020 C 
ATOM     19  C   UNL     1       1.022 -13.277   4.180  0.00  0.00    +0.108 C 
ENDBRANCH  10  13
BRANCH   1  20
ATOM     20  S   UNL     1       0.078  -5.006   1.405  0.00  0.00    +0.092 S 
ATOM     21  O   UNL     1       1.323  -4.720   2.028  0.00  0.00    -0.148 OA
ATOM     22  O   UNL     1      -1.168  -4.754   2.041  0.00  0.00    -0.148 OA
BRANCH  20  23
ATOM     23  N   UNL     1       0.059  -4.169  -0.023  0.00  0.00    -0.098 NA
BRANCH  23  28
ATOM     24  C   UNL     1      -0.018   1.503   0.010  0.00  0.00    +0.047 C 
ATOM     25  C   UNL     1       0.002  -0.004   0.002  0.00  0.00    -0.015 A 
ATOM     26  C   UNL     1       0.006  -0.688  -1.200  0.00  0.00    +0.008 A 
ATOM     27  C   UNL     1       0.025  -2.068  -1.211  0.00  0.00    +0.027 A 
ATOM     28  C   UNL     1       0.041  -2.772  -0.014  0.00  0.00    +0.077 A 
ATOM     29  C   UNL     1       0.037  -2.085   1.193  0.00  0.00    +0.065 A 
ATOM     30  C   UNL     1       0.023  -0.702   1.198  0.00  0.00    +0.128 A 
ATOM     31  F   UNL     1       0.024  -0.031   2.371  0.00  0.00    -0.205 F 
ENDBRANCH  23  28
ENDBRANCH  20  23
ENDBRANCH   1  20
TORSDOF 4
