REMARK  Name = ZINC15768464
REMARK  7 active torsions:
REMARK  status: ('A' for Active; 'I' for Inactive)
REMARK    1  A    between atoms: C_3  and  C_31
REMARK    2  A    between atoms: C_5  and  N_7
REMARK    3  A    between atoms: C_8  and  C_10
REMARK    4  A    between atoms: C_10  and  N_21
REMARK    5  A    between atoms: C_11  and  C_12
REMARK    6  A    between atoms: C_15  and  N_18
REMARK    7  A    between atoms: C_22  and  C_24
REMARK                            x       y       z     vdW  Elec       q    Type
REMARK                         _______ _______ _______ _____ _____    ______ ____
ROOT
ATOM      1  C   UNL     1      -2.487   1.255   0.808  0.00  0.00    +0.097 C 
ATOM      2  C   UNL     1      -2.459  -0.033   0.395  0.00  0.00    +0.036 C 
ENDROOT
BRANCH   2   3
ATOM      3  C   UNL     1      -1.239  -0.584  -0.214  0.00  0.00    -0.023 A 
ATOM      4  C   UNL     1      -0.444   0.216  -1.042  0.00  0.00    +0.010 A 
ATOM      5  C   UNL     1       0.701  -0.306  -1.606  0.00  0.00    +0.033 A 
ATOM      6  C   UNL     1       1.058  -1.621  -1.363  0.00  0.00    +0.126 A 
ATOM      7  C   UNL     1       0.274  -2.420  -0.550  0.00  0.00    +0.033 A 
ATOM      8  C   UNL     1      -0.871  -1.912   0.025  0.00  0.00    +0.010 A 
BRANCH   6   9
ATOM      9  N   UNL     1       2.286  -2.175  -1.977  0.00  0.00    +0.056 N 
ATOM     10  O   UNL     1       2.603  -3.332  -1.766  0.00  0.00    -0.126 OA
ATOM     11  O   UNL     1       2.978  -1.474  -2.693  0.00  0.00    -0.126 OA
ENDBRANCH   6   9
ENDBRANCH   2   3
BRANCH   1  13
ATOM     12  N   UNL     1      -0.296   2.034   1.552  0.00  0.00    -0.280 N 
ATOM     13  C   UNL     1      -1.297   2.103   0.652  0.00  0.00    +0.262 C 
ATOM     14  O   UNL     1      -1.215   2.868  -0.291  0.00  0.00    -0.268 OA
ATOM     15  H   UNL     1      -0.333   1.380   2.268  0.00  0.00    +0.155 HD
BRANCH  12  20
ATOM     16  C   UNL     1       2.317   4.177   0.095  0.00  0.00    +0.003 A 
ATOM     17  C   UNL     1       2.966   4.619   1.230  0.00  0.00    +0.015 A 
ATOM     18  C   UNL     1       2.533   4.202   2.490  0.00  0.00    +0.065 A 
ATOM     19  C   UNL     1       1.442   3.338   2.596  0.00  0.00    +0.038 A 
ATOM     20  C   UNL     1       0.797   2.900   1.451  0.00  0.00    +0.034 A 
ATOM     21  C   UNL     1       1.240   3.317   0.201  0.00  0.00    +0.023 A 
BRANCH  18  22
ATOM     22  C   UNL     1       3.227   4.673   3.706  0.00  0.00    +0.387 C 
ATOM     23  O   UNL     1       2.849   4.308   4.801  0.00  0.00    -0.241 OA
ATOM     24  O   UNL     1       4.280   5.506   3.600  0.00  0.00    -0.241 OA
ENDBRANCH  18  22
ENDBRANCH  12  20
ENDBRANCH   1  13
BRANCH   1  25
ATOM     25  N   UNL     1      -3.648   1.779   1.385  0.00  0.00    -0.277 N 
ATOM     26  C   UNL     1      -3.638   3.019   1.912  0.00  0.00    +0.248 C 
ATOM     27  O   UNL     1      -2.656   3.725   1.786  0.00  0.00    -0.270 OA
ATOM     28  H   UNL     1      -4.460   1.250   1.406  0.00  0.00    +0.155 HD
BRANCH  26  29
ATOM     29  C   UNL     1      -4.820   3.522   2.642  0.00  0.00    +0.037 A 
ATOM     30  C   UNL     1      -5.951   2.716   2.783  0.00  0.00    +0.014 A 
ATOM     31  C   UNL     1      -7.049   3.188   3.471  0.00  0.00    +0.016 A 
ATOM     32  C   UNL     1      -7.036   4.463   4.011  0.00  0.00    +0.018 A 
ATOM     33  C   UNL     1      -5.919   5.269   3.870  0.00  0.00    +0.016 A 
ATOM     34  C   UNL     1      -4.812   4.806   3.189  0.00  0.00    +0.014 A 
ATOM     35 BR   UNL     1      -8.549   5.105   4.947  0.00  0.00    -0.050 Br
ENDBRANCH  26  29
ENDBRANCH   1  25
TORSDOF 7
