REMARK  Name = ZINC17302280
REMARK  6 active torsions:
REMARK  status: ('A' for Active; 'I' for Inactive)
REMARK    1  A    between atoms: C_1  and  C_2
REMARK    2  A    between atoms: N_4  and  C_5
REMARK    3  A    between atoms: C_8  and  N_11
REMARK    4  A    between atoms: C_12  and  C_14
REMARK    5  A    between atoms: N_17  and  S_20
REMARK    6  A    between atoms: S_20  and  C_23
REMARK                            x       y       z     vdW  Elec       q    Type
REMARK                         _______ _______ _______ _____ _____    ______ ____
ROOT
ATOM      1  N   UNL     1       4.373   0.087  -2.336  0.00  0.00    -0.285 N 
ATOM      2  C   UNL     1       3.065  -0.239  -2.302  0.00  0.00    +0.220 C 
ATOM      3  O   UNL     1       2.585  -0.913  -3.189  0.00  0.00    -0.275 OA
ATOM      4  H   UNL     1       4.741   0.686  -1.668  0.00  0.00    +0.155 HD
ENDROOT
BRANCH   1   8
ATOM      5  C   UNL     1       6.836  -1.484  -5.312  0.00  0.00    +0.033 A 
ATOM      6  C   UNL     1       7.069  -0.206  -4.819  0.00  0.00    +0.025 A 
ATOM      7  C   UNL     1       6.254   0.314  -3.834  0.00  0.00    +0.025 A 
ATOM      8  C   UNL     1       5.200  -0.441  -3.336  0.00  0.00    +0.034 A 
ATOM      9  C   UNL     1       4.970  -1.720  -3.824  0.00  0.00    +0.025 A 
ATOM     10  C   UNL     1       5.782  -2.238  -4.812  0.00  0.00    +0.025 A 
BRANCH   5  14
ATOM     11  C   UNL     1       8.009  -3.292  -8.399  0.00  0.00    +0.109 C 
ATOM     12  C   UNL     1       7.142  -2.809  -7.265  0.00  0.00    +0.214 C 
ATOM     13  O   UNL     1       5.976  -3.139  -7.209  0.00  0.00    -0.276 OA
ATOM     14  N   UNL     1       7.663  -2.011  -6.312  0.00  0.00    -0.286 N 
ATOM     15  H   UNL     1       8.610  -1.801  -6.319  0.00  0.00    +0.155 HD
ENDBRANCH   5  14
ENDBRANCH   1   8
BRANCH   2  16
ATOM     16  C   UNL     1       2.200   0.235  -1.163  0.00  0.00    +0.078 C 
ATOM     17  C   UNL     1       0.769  -0.269  -1.366  0.00  0.00    +0.030 C 
ATOM     18  C   UNL     1      -0.100   0.186  -0.189  0.00  0.00    +0.110 C 
ATOM     19  N   UNL     1       0.013   1.645  -0.053  0.00  0.00    -0.176 NA
ATOM     20  C   UNL     1       1.351   2.243   0.057  0.00  0.00    +0.110 C 
ATOM     21  C   UNL     1       2.203   1.765  -1.123  0.00  0.00    +0.030 C 
BRANCH  19  22
ATOM     22  S   UNL     1      -1.341   2.597  -0.032  0.00  0.00    +0.067 S 
ATOM     23  O   UNL     1      -0.934   3.892  -0.452  0.00  0.00    -0.152 OA
ATOM     24  O   UNL     1      -2.362   1.867  -0.699  0.00  0.00    -0.152 OA
BRANCH  22  25
ATOM     25  C   UNL     1      -1.847   2.748   1.649  0.00  0.00    +0.144 A 
ATOM     26  C   UNL     1      -1.488   3.677   2.568  0.00  0.00    +0.037 A 
ATOM     27  C   UNL     1      -2.016   3.598   3.843  0.00  0.00    +0.025 A 
ATOM     28  C   UNL     1      -2.877   2.592   4.136  0.00  0.00    +0.057 A 
ATOM     29  S   UNL     1      -2.970   1.720   2.581  0.00  0.00    -0.062 S 
ATOM     30 BR   UNL     1      -3.759   2.217   5.767  0.00  0.00    -0.043 Br
ENDBRANCH  22  25
ENDBRANCH  19  22
ENDBRANCH   2  16
TORSDOF 5
