REMARK  Name = ZINC21242387
REMARK  6 active torsions:
REMARK  status: ('A' for Active; 'I' for Inactive)
REMARK    1  A    between atoms: C_3  and  O_26
REMARK    2  A    between atoms: C_6  and  N_7
REMARK    3  A    between atoms: C_8  and  C_10
REMARK    4  A    between atoms: C_10  and  S_11
REMARK    5  A    between atoms: S_11  and  C_12
REMARK    6  A    between atoms: O_26  and  C_27
REMARK                            x       y       z     vdW  Elec       q    Type
REMARK                         _______ _______ _______ _____ _____    ______ ____
ROOT
ATOM      1  S   UNL     1      -0.963  -0.120  -0.082  0.00  0.00    -0.077 S 
ENDROOT
BRANCH   1   2
ATOM      2  C   UNL     1       0.540   0.799  -0.097  0.00  0.00    +0.191 A 
ATOM      3  N   UNL     1       1.700   0.153  -0.123  0.00  0.00    -0.207 NA
ATOM      4  C   UNL     1       2.859   0.788  -0.135  0.00  0.00    +0.129 A 
ATOM      5  C   UNL     1       2.872   2.211  -0.119  0.00  0.00    +0.051 A 
ATOM      6  C   UNL     1       4.024   3.116  -0.127  0.00  0.00    -0.025 A 
ATOM      7  C   UNL     1       3.763   4.439  -0.110  0.00  0.00    -0.004 A 
ATOM      8  S   UNL     1       1.995   4.561  -0.082  0.00  0.00    -0.073 S 
ATOM      9  C   UNL     1       1.607   2.830  -0.092  0.00  0.00    +0.115 A 
ATOM     10  N   UNL     1       0.492   2.125  -0.082  0.00  0.00    -0.214 NA
ATOM     11  C   UNL     1       4.757   5.560  -0.113  0.00  0.00    +0.043 C 
ATOM     12  C   UNL     1       6.137   4.986   0.238  0.00  0.00    +0.005 C 
ATOM     13  C   UNL     1       6.380   3.738  -0.616  0.00  0.00    +0.005 C 
ATOM     14  C   UNL     1       5.462   2.606  -0.154  0.00  0.00    +0.037 C 
ATOM     15  N   UNL     1       4.046   0.078  -0.162  0.00  0.00    -0.343 N 
ATOM     16  H   UNL     1       5.007   0.613  -0.172  0.00  0.00    +0.144 HD
ATOM     17  H   UNL     1       4.029  -1.022  -0.174  0.00  0.00    +0.144 HD
ENDBRANCH   1   2
BRANCH   1  18
ATOM     18  C   UNL     1      -0.300  -1.805  -0.111  0.00  0.00    +0.173 C 
BRANCH  18  20
ATOM     19  N   UNL     1      -1.183  -4.115  -0.122  0.00  0.00    -0.285 N 
ATOM     20  C   UNL     1      -1.439  -2.792  -0.103  0.00  0.00    +0.227 C 
ATOM     21  O   UNL     1      -2.585  -2.396  -0.080  0.00  0.00    -0.275 OA
ATOM     22  H   UNL     1      -0.147  -4.476  -0.052  0.00  0.00    +0.155 HD
BRANCH  19  28
ATOM     23  C   UNL     1      -2.165  -6.255   0.422  0.00  0.00    +0.027 A 
ATOM     24  C   UNL     1      -3.208  -7.155   0.318  0.00  0.00    +0.047 A 
ATOM     25  C   UNL     1      -4.322  -6.841  -0.446  0.00  0.00    +0.127 A 
ATOM     26  C   UNL     1      -4.394  -5.621  -1.101  0.00  0.00    +0.047 A 
ATOM     27  C   UNL     1      -3.354  -4.718  -0.994  0.00  0.00    +0.027 A 
ATOM     28  C   UNL     1      -2.238  -5.031  -0.230  0.00  0.00    +0.034 A 
BRANCH  25  29
ATOM     29  O   UNL     1      -5.346  -7.730  -0.551  0.00  0.00    -0.434 OA
BRANCH  29  30
ATOM     30  C   UNL     1      -5.205  -8.967   0.150  0.00  0.00    +0.541 C 
ATOM     31  F   UNL     1      -4.072  -9.642  -0.316  0.00  0.00    -0.166 F 
ATOM     32  F   UNL     1      -5.067  -8.714   1.519  0.00  0.00    -0.166 F 
ENDBRANCH  29  30
ENDBRANCH  25  29
ENDBRANCH  19  28
ENDBRANCH  18  20
ENDBRANCH   1  18
TORSDOF 6
