REMARK  Name = ZINC00648179
REMARK  4 active torsions:
REMARK  status: ('A' for Active; 'I' for Inactive)
REMARK    1  A    between atoms: C_6  and  C_7
REMARK    2  A    between atoms: C_10  and  C_28
REMARK    3  A    between atoms: C_15  and  C_17
REMARK    4  A    between atoms: N_19  and  C_20
REMARK                            x       y       z     vdW  Elec       q    Type
REMARK                         _______ _______ _______ _____ _____    ______ ____
ROOT
ATOM      1  C   UNL     1      -1.268  -0.762   0.003  0.00  0.00    +0.104 C 
ATOM      2  C   UNL     1      -1.559  -1.250   1.427  0.00  0.00    +0.063 C 
ATOM      3  C   UNL     1      -0.389  -2.099   1.937  0.00  0.00    +0.215 C 
ATOM      4  N   UNL     1      -0.062  -3.111   0.928  0.00  0.00    -0.238 N 
ATOM      5  C   UNL     1      -0.433  -3.020  -0.384  0.00  0.00    +0.119 A 
ATOM      6  C   UNL     1       0.026  -4.113  -1.026  0.00  0.00    +0.078 A 
ATOM      7  C   UNL     1       0.708  -4.909  -0.079  0.00  0.00    +0.149 A 
ATOM      8  N   UNL     1       0.650  -4.298   1.091  0.00  0.00    -0.164 NA
ATOM      9  N   UNL     1      -1.164  -1.935  -0.887  0.00  0.00    -0.322 N 
ATOM     10  H   UNL     1      -1.578  -1.953  -1.764  0.00  0.00    +0.148 HD
ENDROOT
BRANCH   1  16
ATOM     11  C   UNL     1       0.018   1.385  -0.011  0.00  0.00    +0.006 A 
ATOM     12  C   UNL     1       1.209   2.087  -0.027  0.00  0.00    +0.015 A 
ATOM     13  C   UNL     1       2.413   1.406  -0.045  0.00  0.00    +0.018 A 
ATOM     14  C   UNL     1       2.425   0.023  -0.048  0.00  0.00    +0.015 A 
ATOM     15  C   UNL     1       1.234  -0.678  -0.032  0.00  0.00    +0.006 A 
ATOM     16  C   UNL     1       0.031   0.003  -0.014  0.00  0.00    -0.027 A 
ATOM     17 BR   UNL     1       4.042   2.366  -0.068  0.00  0.00    -0.050 Br
ENDBRANCH   1  16
BRANCH   7  18
ATOM     18  C   UNL     1       1.372  -6.201  -0.350  0.00  0.00    +0.268 C 
ATOM     19  O   UNL     1       1.360  -6.666  -1.473  0.00  0.00    -0.268 OA
ATOM     20  N   UNL     1       1.991  -6.863   0.647  0.00  0.00    -0.280 N 
ATOM     21  H   UNL     1       2.059  -6.461   1.527  0.00  0.00    +0.155 HD
BRANCH  20  22
ATOM     22  C   UNL     1       2.535  -8.130   0.413  0.00  0.00    +0.034 A 
ATOM     23  C   UNL     1       2.501  -9.097   1.409  0.00  0.00    +0.025 A 
ATOM     24  C   UNL     1       3.039 -10.347   1.176  0.00  0.00    +0.022 A 
ATOM     25  C   UNL     1       3.613 -10.637  -0.050  0.00  0.00    +0.041 A 
ATOM     26  C   UNL     1       3.649  -9.675  -1.044  0.00  0.00    +0.022 A 
ATOM     27  C   UNL     1       3.106  -8.426  -0.818  0.00  0.00    +0.025 A 
ATOM     28 CL   UNL     1       4.289 -12.209  -0.340  0.00  0.00    -0.084 Cl
ENDBRANCH  20  22
ENDBRANCH   7  18
BRANCH   3  29
ATOM     29  C   UNL     1      -0.787  -2.787   3.245  0.00  0.00    +0.412 C 
ATOM     30  F   UNL     1      -1.897  -3.610   3.020  0.00  0.00    -0.168 F 
ATOM     31  F   UNL     1       0.281  -3.562   3.708  0.00  0.00    -0.168 F 
ATOM     32  F   UNL     1      -1.111  -1.819   4.201  0.00  0.00    -0.168 F 
ENDBRANCH   3  29
TORSDOF 4
