REMARK  Name = ZINC31675196
REMARK  7 active torsions:
REMARK  status: ('A' for Active; 'I' for Inactive)
REMARK    1  A    between atoms: C_1  and  S_2
REMARK    2  A    between atoms: S_2  and  C_5
REMARK    3  A    between atoms: C_9  and  C_11
REMARK    4  A    between atoms: N_13  and  N_14
REMARK    5  A    between atoms: C_15  and  C_17
REMARK    6  A    between atoms: C_19  and  C_28
REMARK    7  A    between atoms: N_21  and  C_22
REMARK                            x       y       z     vdW  Elec       q    Type
REMARK                         _______ _______ _______ _____ _____    ______ ____
ROOT
ATOM      1  N   UNL     1       2.743   0.261  -0.778  0.00  0.00    -0.229 N 
ATOM      2  C   UNL     1       2.416   1.560  -0.628  0.00  0.00    +0.279 C 
ATOM      3  O   UNL     1       3.258   2.422  -0.794  0.00  0.00    -0.267 OA
ATOM      4  H   UNL     1       1.964  -0.513  -0.715  0.00  0.00    +0.173 HD
ENDROOT
BRANCH   2   5
ATOM      5  C   UNL     1       1.041   1.935  -0.264  0.00  0.00    +0.131 A 
ATOM      6  C   UNL     1      -0.045   1.088  -0.151  0.00  0.00    +0.063 A 
ATOM      7  C   UNL     1      -1.125   1.915   0.211  0.00  0.00    +0.094 A 
ATOM      8  N   UNL     1      -0.669   3.147   0.304  0.00  0.00    -0.166 NA
ATOM      9  N   UNL     1       0.585   3.192   0.031  0.00  0.00    -0.227 N 
BRANCH   7  10
ATOM     10  C   UNL     1      -2.523   1.478   0.447  0.00  0.00    +0.002 A 
ATOM     11  C   UNL     1      -2.868   0.135   0.310  0.00  0.00    +0.011 A 
ATOM     12  C   UNL     1      -4.168  -0.268   0.536  0.00  0.00    +0.020 A 
ATOM     13  C   UNL     1      -5.132   0.662   0.889  0.00  0.00    +0.041 A 
ATOM     14  C   UNL     1      -4.795   1.998   1.021  0.00  0.00    +0.020 A 
ATOM     15  C   UNL     1      -3.496   2.410   0.802  0.00  0.00    +0.011 A 
ATOM     16 CL   UNL     1      -6.768   0.150   1.165  0.00  0.00    -0.084 Cl
ENDBRANCH   7  10
BRANCH   9  17
ATOM     17  C   UNL     1       1.369   4.352   0.035  0.00  0.00    +0.066 A 
ATOM     18  C   UNL     1       2.620   4.345   0.638  0.00  0.00    +0.028 A 
ATOM     19  C   UNL     1       3.392   5.490   0.636  0.00  0.00    +0.002 A 
ATOM     20  C   UNL     1       2.917   6.645   0.043  0.00  0.00    +0.000 A 
ATOM     21  C   UNL     1       1.669   6.657  -0.554  0.00  0.00    +0.002 A 
ATOM     22  C   UNL     1       0.894   5.514  -0.560  0.00  0.00    +0.028 A 
ENDBRANCH   9  17
ENDBRANCH   2   5
BRANCH   1  25
ATOM     23  C   UNL     1       4.402  -1.402  -1.165  0.00  0.00    +0.260 C 
ATOM     24  O   UNL     1       3.541  -2.258  -1.095  0.00  0.00    -0.269 OA
ATOM     25  N   UNL     1       4.075  -0.103  -1.015  0.00  0.00    -0.230 N 
ATOM     26  H   UNL     1       4.854   0.671  -1.078  0.00  0.00    +0.173 HD
BRANCH  23  31
ATOM     27  C   UNL     1       7.463  -3.483  -1.804  0.00  0.00    +0.089 A 
ATOM     28  C   UNL     1       8.440  -2.507  -1.883  0.00  0.00    +0.027 A 
ATOM     29  C   UNL     1       8.108  -1.173  -1.730  0.00  0.00    +0.003 A 
ATOM     30  C   UNL     1       6.798  -0.807  -1.501  0.00  0.00    +0.013 A 
ATOM     31  C   UNL     1       5.808  -1.787  -1.415  0.00  0.00    +0.040 A 
ATOM     32  C   UNL     1       6.150  -3.131  -1.570  0.00  0.00    +0.040 A 
BRANCH  27  34
ATOM     33  C   UNL     1       7.740  -5.497  -3.780  0.00  0.00    +0.200 C 
ATOM     34  S   UNL     1       7.896  -5.179  -2.001  0.00  0.00    -0.006 S 
ATOM     35  O   UNL     1       9.260  -5.253  -1.608  0.00  0.00    -0.170 OA
ATOM     36  O   UNL     1       6.898  -5.894  -1.286  0.00  0.00    -0.170 OA
ENDBRANCH  27  34
ENDBRANCH  23  31
ENDBRANCH   1  25
TORSDOF 6
