REMARK  Name = ZINC33598414
REMARK  7 active torsions:
REMARK  status: ('A' for Active; 'I' for Inactive)
REMARK    1  A    between atoms: C_1  and  C_2
REMARK    2  A    between atoms: C_7  and  N_8
REMARK    3  A    between atoms: C_13  and  C_31
REMARK    4  A    between atoms: C_16  and  C_21
REMARK    5  A    between atoms: C_16  and  C_28
REMARK    6  A    between atoms: C_21  and  C_22
REMARK    7  A    between atoms: C_35  and  C_37
REMARK                            x       y       z     vdW  Elec       q    Type
REMARK                         _______ _______ _______ _____ _____    ______ ____
ROOT
ATOM      1  N   UNL     1       4.471   4.657  -0.243  0.00  0.00    -0.210 N 
ATOM      2  C   UNL     1       3.763   5.114  -1.328  0.00  0.00    +0.229 C 
ATOM      3  O   UNL     1       4.175   5.786  -2.248  0.00  0.00    -0.275 OA
ATOM      4  C   UNL     1       2.421   4.619  -1.133  0.00  0.00    +0.077 C 
ATOM      5  C   UNL     1       1.208   4.321  -1.918  0.00  0.00    -0.027 C 
ATOM      6  N   UNL     1       0.375   3.541  -0.938  0.00  0.00    +0.395 N 
ATOM      7  C   UNL     1       1.300   2.950   0.077  0.00  0.00    +0.048 C 
ATOM      8  C   UNL     1       2.700   3.228  -0.442  0.00  0.00    +0.086 C 
ATOM      9  C   UNL     1       3.798   3.696   0.459  0.00  0.00    +0.229 C 
ATOM     10  O   UNL     1       4.041   3.305   1.581  0.00  0.00    -0.275 OA
ATOM     11  H   UNL     1      -0.346   4.215  -0.452  0.00  0.00    -0.083 HD
ATOM     12  H   UNL     1      -0.167   2.745  -1.470  0.00  0.00    -0.083 HD
ENDROOT
BRANCH   1  19
ATOM     13  C   UNL     1       4.651   6.891   1.512  0.00  0.00    +0.045 C 
ATOM     14  C   UNL     1       5.878   6.212   0.959  0.00  0.00    -0.029 A 
ATOM     15  C   UNL     1       7.135   6.668   1.304  0.00  0.00    +0.005 A 
ATOM     16  C   UNL     1       8.261   6.050   0.792  0.00  0.00    +0.000 A 
ATOM     17  C   UNL     1       8.133   4.970  -0.062  0.00  0.00    +0.002 A 
ATOM     18  C   UNL     1       6.878   4.506  -0.407  0.00  0.00    +0.024 A 
ATOM     19  C   UNL     1       5.746   5.125   0.105  0.00  0.00    +0.047 A 
ENDBRANCH   1  19
BRANCH   5  20
ATOM     20  C   UNL     1       0.510   5.592  -2.329  0.00  0.00    -0.060 A 
ATOM     21  C   UNL     1      -0.304   6.255  -1.429  0.00  0.00    +0.002 A 
ATOM     22  C   UNL     1      -0.941   7.423  -1.805  0.00  0.00    +0.001 A 
ATOM     23  C   UNL     1      -0.771   7.923  -3.083  0.00  0.00    +0.012 A 
ATOM     24  C   UNL     1       0.039   7.257  -3.983  0.00  0.00    +0.055 A 
ATOM     25  C   UNL     1       0.679   6.091  -3.606  0.00  0.00    +0.014 A 
BRANCH  24  26
ATOM     26  C   UNL     1       0.224   7.802  -5.376  0.00  0.00    +0.417 C 
ATOM     27  F   UNL     1      -0.756   7.268  -6.220  0.00  0.00    -0.166 F 
ATOM     28  F   UNL     1       0.108   9.196  -5.351  0.00  0.00    -0.166 F 
ATOM     29  F   UNL     1       1.492   7.449  -5.850  0.00  0.00    -0.166 F 
ENDBRANCH  24  26
ENDBRANCH   5  20
BRANCH   7  30
ATOM     30  C   UNL     1       1.071   1.465   0.190  0.00  0.00    +0.346 C 
ATOM     31  O   UNL     1       2.009   0.718   0.331  0.00  0.00    -0.248 OA
ATOM     32  O   UNL     1      -0.177   0.973   0.133  0.00  0.00    -0.248 OA
ENDBRANCH   7  30
BRANCH   7  33
ATOM     33  C   UNL     1       1.096   3.622   1.436  0.00  0.00    +0.003 C 
BRANCH  33  34
ATOM     34  C   UNL     1      -0.288   3.262   1.980  0.00  0.00    -0.012 C 
ATOM     35  C   UNL     1      -1.365   3.895   1.096  0.00  0.00    +0.003 C 
ATOM     36  C   UNL     1      -2.748   3.535   1.639  0.00  0.00    +0.000 C 
ATOM     37  C   UNL     1      -2.888   4.062   3.069  0.00  0.00    +0.000 C 
ATOM     38  C   UNL     1      -1.812   3.429   3.953  0.00  0.00    +0.000 C 
ATOM     39  C   UNL     1      -0.428   3.789   3.409  0.00  0.00    +0.003 C 
ENDBRANCH  33  34
ENDBRANCH   7  33
TORSDOF 6
