REMARK  Name = ZINC13250948
REMARK  12 active torsions:
REMARK  status: ('A' for Active; 'I' for Inactive)
REMARK    1  A    between atoms: C_1  and  C_2
REMARK    2  A    between atoms: C_2  and  C_3
REMARK    3  A    between atoms: C_3  and  C_5
REMARK    4  A    between atoms: C_3  and  N_6
REMARK    5  A    between atoms: N_6  and  C_7
REMARK    6  A    between atoms: N_6  and  S_21
REMARK    7  A    between atoms: C_7  and  C_8
REMARK    8  A    between atoms: N_10  and  C_11
REMARK    9  A    between atoms: C_16  and  C_17
REMARK   10  A    between atoms: S_21  and  C_24
REMARK   11  A    between atoms: C_27  and  C_30
REMARK   12  A    between atoms: C_31  and  C_32
REMARK                            x       y       z     vdW  Elec       q    Type
REMARK                         _______ _______ _______ _____ _____    ______ ____
ROOT
ATOM      1  N   UNL     1       3.002   4.245  -1.775  0.00  0.00    -0.165 NA
ENDROOT
BRANCH   1   2
ATOM      2  S   UNL     1       2.833   4.405  -0.136  0.00  0.00    +0.062 S 
ATOM      3  O   UNL     1       2.577   5.780   0.114  0.00  0.00    -0.153 OA
ATOM      4  O   UNL     1       3.925   3.714   0.454  0.00  0.00    -0.153 OA
BRANCH   2   5
ATOM      5  C   UNL     1       1.375   3.529   0.325  0.00  0.00    +0.106 A 
ATOM      6  C   UNL     1       1.436   2.167   0.562  0.00  0.00    +0.029 A 
ATOM      7  C   UNL     1       0.300   1.475   0.923  0.00  0.00    +0.010 A 
ATOM      8  C   UNL     1      -0.918   2.152   1.044  0.00  0.00    -0.025 A 
ATOM      9  C   UNL     1      -0.971   3.529   0.807  0.00  0.00    +0.010 A 
ATOM     10  C   UNL     1       0.175   4.207   0.448  0.00  0.00    +0.029 A 
BRANCH   8  11
ATOM     11  C   UNL     1      -2.137   1.419   1.422  0.00  0.00    +0.015 C 
ATOM     12  C   UNL     1      -3.310   2.076   1.538  0.00  0.00    +0.096 C 
BRANCH  12  13
ATOM     13  C   UNL     1      -4.521   1.348   1.914  0.00  0.00    +0.380 C 
ATOM     14  O   UNL     1      -4.472   0.151   2.122  0.00  0.00    -0.241 OA
ATOM     15  O   UNL     1      -5.694   2.004   2.029  0.00  0.00    -0.241 OA
ENDBRANCH  12  13
ENDBRANCH   8  11
ENDBRANCH   2   5
ENDBRANCH   1   2
BRANCH   1  16
ATOM     16  C   UNL     1       2.511   5.298  -2.668  0.00  0.00    +0.077 C 
ATOM     17  C   UNL     1       1.041   5.586  -2.356  0.00  0.00    +0.026 C 
BRANCH  16  19
ATOM     18  C   UNL     1       4.789   6.306  -2.861  0.00  0.00    +0.005 C 
ATOM     19  C   UNL     1       3.336   6.569  -2.460  0.00  0.00    +0.017 C 
ENDBRANCH  16  19
ENDBRANCH   1  16
BRANCH   1  20
ATOM     20  C   UNL     1       3.643   3.052  -2.333  0.00  0.00    +0.205 C 
BRANCH  20  21
ATOM     21  C   UNL     1       2.588   2.043  -2.707  0.00  0.00    +0.233 C 
ATOM     22  O   UNL     1       1.414   2.332  -2.616  0.00  0.00    -0.274 OA
ATOM     23  N   UNL     1       2.949   0.820  -3.143  0.00  0.00    -0.284 N 
ATOM     24  H   UNL     1       3.885   0.565  -3.151  0.00  0.00    +0.155 HD
BRANCH  23  25
ATOM     25  C   UNL     1       1.974  -0.081  -3.586  0.00  0.00    +0.045 A 
ATOM     26  C   UNL     1       0.836   0.386  -4.230  0.00  0.00    +0.024 A 
ATOM     27  C   UNL     1      -0.122  -0.507  -4.669  0.00  0.00    +0.002 A 
ATOM     28  C   UNL     1       0.047  -1.863  -4.459  0.00  0.00    +0.001 A 
ATOM     29  C   UNL     1       1.176  -2.331  -3.813  0.00  0.00    +0.014 A 
ATOM     30  C   UNL     1       2.140  -1.444  -3.376  0.00  0.00    +0.076 A 
BRANCH  30  31
ATOM     31  C   UNL     1       3.371  -1.954  -2.671  0.00  0.00    +0.419 C 
ATOM     32  F   UNL     1       3.311  -3.349  -2.580  0.00  0.00    -0.166 F 
ATOM     33  F   UNL     1       4.510  -1.582  -3.394  0.00  0.00    -0.166 F 
ATOM     34  F   UNL     1       3.434  -1.404  -1.386  0.00  0.00    -0.166 F 
ENDBRANCH  30  31
ENDBRANCH  23  25
ENDBRANCH  20  21
ENDBRANCH   1  20
TORSDOF 10
