REMARK  Name = ZINC03840683
REMARK  16 active torsions:
REMARK  status: ('A' for Active; 'I' for Inactive)
REMARK    1  A    between atoms: C_1  and  C_2
REMARK    2  A    between atoms: C_7  and  C_9
REMARK    3  A    between atoms: C_9  and  S_10
REMARK    4  A    between atoms: S_10  and  C_13
REMARK    5  A    between atoms: C_13  and  C_14
REMARK    6  A    between atoms: C_13  and  C_15
REMARK    7  A    between atoms: C_13  and  C_16
REMARK    8  A    between atoms: C_18  and  C_38
REMARK    9  A    between atoms: C_21  and  O_37
REMARK   10  A    between atoms: C_23  and  C_27
REMARK   11  A    between atoms: C_27  and  C_29
REMARK   12  A    between atoms: C_27  and  C_30
REMARK   13  A    between atoms: N_32  and  C_33
REMARK   14  A    between atoms: C_33  and  C_34
REMARK   15  A    between atoms: C_34  and  O_35
REMARK   16  A    between atoms: O_35  and  C_36
REMARK                            x       y       z     vdW  Elec       q    Type
REMARK                         _______ _______ _______ _____ _____    ______ ____
ROOT
ATOM      1  C   UNL     1      -1.450   3.104   0.395  0.00  0.00    +0.014 C 
ATOM      2  C   UNL     1      -0.100   3.648   0.868  0.00  0.00    +0.042 C 
ATOM      3  C   UNL     1      -0.222   5.139   1.140  0.00  0.00    +0.055 A 
ATOM      4  C   UNL     1       0.773   5.985   0.762  0.00  0.00    +0.014 A 
ATOM      5  S   UNL     1       0.163   7.562   1.294  0.00  0.00    -0.075 S 
ATOM      6  C   UNL     1      -1.337   6.992   1.964  0.00  0.00    +0.100 A 
ATOM      7  N   UNL     1      -1.265   5.702   1.742  0.00  0.00    -0.247 NA
ATOM      8  C   UNL     1       2.045   5.641   0.071  0.00  0.00    +0.051 C 
ATOM      9  C   UNL     1       2.262   4.117   0.149  0.00  0.00    -0.022 C 
ATOM     10  C   UNL     1       0.956   3.409  -0.219  0.00  0.00    +0.033 C 
ATOM     11  C   UNL     1       1.185   1.897  -0.312  0.00  0.00    +0.123 C 
ATOM     12  C   UNL     1       2.265   1.589  -1.347  0.00  0.00    +0.029 C 
ATOM     13  C   UNL     1       3.573   2.254  -0.908  0.00  0.00    +0.007 C 
ATOM     14  C   UNL     1       3.359   3.765  -0.861  0.00  0.00    +0.008 C 
ATOM     15  C   UNL     1       2.691   3.722   1.564  0.00  0.00    +0.012 C 
ENDROOT
BRANCH  12  16
ATOM     16  C   UNL     1       2.469   0.075  -1.440  0.00  0.00    +0.077 C 
ATOM     17  C   UNL     1       3.037  -0.445  -0.118  0.00  0.00    +0.017 C 
BRANCH  16  18
ATOM     18  C   UNL     1       3.433  -0.234  -2.556  0.00  0.00    +0.216 C 
ATOM     19  O   UNL     1       3.836   0.657  -3.274  0.00  0.00    -0.276 OA
ATOM     20  N   UNL     1       3.849  -1.500  -2.757  0.00  0.00    -0.313 N 
ATOM     21  H   UNL     1       3.527  -2.213  -2.183  0.00  0.00    +0.149 HD
BRANCH  20  22
ATOM     22  C   UNL     1       4.786  -1.800  -3.842  0.00  0.00    +0.132 C 
BRANCH  22  23
ATOM     23  C   UNL     1       5.092  -3.299  -3.852  0.00  0.00    +0.178 C 
BRANCH  23  24
ATOM     24  O   UNL     1       3.903  -4.027  -4.167  0.00  0.00    -0.381 OA
ATOM     25  C   UNL     1       4.081  -5.444  -4.202  0.00  0.00    +0.194 C 
ENDBRANCH  23  24
ENDBRANCH  22  23
ENDBRANCH  20  22
ENDBRANCH  16  18
ENDBRANCH  12  16
BRANCH  11  26
ATOM     26  O   UNL     1      -0.034   1.257  -0.695  0.00  0.00    -0.391 OA
ATOM     27  H   UNL     1       0.047   0.301  -0.821  0.00  0.00    +0.210 HD
ENDBRANCH  11  26
BRANCH   6  28
ATOM     28  C   UNL     1      -2.438   7.778   2.629  0.00  0.00    +0.229 C 
BRANCH  28  29
ATOM     29  S   UNL     1      -2.118   7.876   4.412  0.00  0.00    -0.020 S 
ATOM     30  O   UNL     1      -2.204   6.567   4.957  0.00  0.00    -0.173 OA
ATOM     31  O   UNL     1      -0.933   8.633   4.615  0.00  0.00    -0.173 OA
BRANCH  29  32
ATOM     32  C   UNL     1      -3.528   8.844   5.019  0.00  0.00    +0.080 C 
ATOM     33  C   UNL     1      -4.830   8.109   4.691  0.00  0.00    +0.035 C 
ATOM     34  C   UNL     1      -3.410   9.021   6.534  0.00  0.00    +0.035 C 
ATOM     35  C   UNL     1      -3.533  10.216   4.343  0.00  0.00    +0.035 C 
ENDBRANCH  29  32
ENDBRANCH  28  29
ENDBRANCH   6  28
TORSDOF 9
