REMARK  Name = ZINC42649485
REMARK  2 active torsions:
REMARK  status: ('A' for Active; 'I' for Inactive)
REMARK    1  A    between atoms: C_9  and  N_11
REMARK    2  A    between atoms: C_12  and  C_14
REMARK                            x       y       z     vdW  Elec       q    Type
REMARK                         _______ _______ _______ _____ _____    ______ ____
ROOT
ATOM      1  N   UNL     1       1.214  -2.089  -0.022  0.00  0.00    -0.284 N 
ATOM      2  C   UNL     1       0.058  -2.773   0.087  0.00  0.00    +0.221 C 
ATOM      3  O   UNL     1      -1.000  -2.179   0.101  0.00  0.00    -0.275 OA
ATOM      4  H   UNL     1       2.053  -2.567  -0.113  0.00  0.00    +0.155 HD
ENDROOT
BRANCH   1  13
ATOM      5  C   UNL     1       0.153   1.378   0.638  0.00  0.00    +0.003 A 
ATOM      6  C   UNL     1       1.154   2.098   0.053  0.00  0.00    +0.011 A 
ATOM      7  C   UNL     1       2.214   1.435  -0.581  0.00  0.00    +0.021 A 
ATOM      8  C   UNL     1       3.373   1.879  -1.263  0.00  0.00    +0.142 A 
ATOM      9  N   UNL     1       4.043   0.839  -1.668  0.00  0.00    -0.181 NA
ATOM     10  N   UNL     1       3.376  -0.331  -1.284  0.00  0.00    -0.275 N 
ATOM     11  H   UNL     1       3.668  -1.238  -1.465  0.00  0.00    +0.189 HD
ATOM     12  C   UNL     1       2.238   0.029  -0.608  0.00  0.00    +0.087 A 
ATOM     13  C   UNL     1       1.204  -0.690  -0.003  0.00  0.00    +0.059 A 
ATOM     14  C   UNL     1       0.170  -0.010   0.616  0.00  0.00    +0.025 A 
ENDBRANCH   1  13
BRANCH   2  15
ATOM     15  C   UNL     1       0.078  -4.276   0.192  0.00  0.00    +0.081 C 
ATOM     16  C   UNL     1       0.740  -4.866  -1.055  0.00  0.00    +0.002 C 
ATOM     17  C   UNL     1       0.761  -6.392  -0.949  0.00  0.00    +0.008 C 
ATOM     18  C   UNL     1      -0.672  -6.915  -0.837  0.00  0.00    -0.010 C 
ATOM     19  C   UNL     1      -1.464  -6.501  -2.079  0.00  0.00    +0.007 C 
ATOM     20  C   UNL     1      -1.485  -4.975  -2.185  0.00  0.00    -0.010 C 
ATOM     21  C   UNL     1      -0.052  -4.452  -2.297  0.00  0.00    +0.008 C 
ATOM     22  C   UNL     1      -2.147  -4.386  -0.938  0.00  0.00    +0.008 C 
ATOM     23  C   UNL     1      -1.355  -4.800   0.304  0.00  0.00    +0.002 C 
ATOM     24  C   UNL     1      -1.334  -6.326   0.410  0.00  0.00    +0.008 C 
ENDBRANCH   2  15
TORSDOF 2
