REMARK  Name = ZINC30825978
REMARK  8 active torsions:
REMARK  status: ('A' for Active; 'I' for Inactive)
REMARK    1  A    between atoms: C_1  and  C_2
REMARK    2  A    between atoms: C_5  and  C_8
REMARK    3  A    between atoms: N_13  and  C_16
REMARK    4  A    between atoms: C_17  and  N_23
REMARK    5  A    between atoms: N_23  and  C_24
REMARK    6  A    between atoms: C_24  and  N_26
REMARK    7  A    between atoms: C_27  and  C_29
REMARK    8  A    between atoms: C_33  and  C_35
REMARK                            x       y       z     vdW  Elec       q    Type
REMARK                         _______ _______ _______ _____ _____    ______ ____
ROOT
ATOM      1  C   UNL     1       3.842   0.619   1.894  0.00  0.00    +0.070 A 
ATOM      2  C   UNL     1       4.702   1.352   1.076  0.00  0.00    +0.055 A 
ATOM      3  C   UNL     1       6.072   1.160   1.169  0.00  0.00    +0.025 A 
ATOM      4  C   UNL     1       6.582   0.244   2.070  0.00  0.00    +0.003 A 
ATOM      5  C   UNL     1       5.731  -0.484   2.880  0.00  0.00    +0.022 A 
ATOM      6  C   UNL     1       4.363  -0.294   2.799  0.00  0.00    +0.064 A 
ATOM      7 CL   UNL     1       3.298  -1.205   3.824  0.00  0.00    -0.082 Cl
ENDROOT
BRANCH   1  13
ATOM      8  C   UNL     1      -1.389   0.115   2.956  0.00  0.00    +0.247 C 
ATOM      9  O   UNL     1      -1.959  -0.874   2.538  0.00  0.00    -0.270 OA
ATOM     10  N   UNL     1      -0.261   0.547   2.358  0.00  0.00    -0.295 N 
ATOM     11  C   UNL     1       0.293  -0.160   1.193  0.00  0.00    +0.127 C 
ATOM     12  C   UNL     1       1.776  -0.445   1.457  0.00  0.00    +0.124 C 
ATOM     13  N   UNL     1       2.458   0.809   1.806  0.00  0.00    -0.324 N 
ATOM     14  C   UNL     1       1.924   1.377   3.050  0.00  0.00    +0.124 C 
ATOM     15  C   UNL     1       0.447   1.737   2.852  0.00  0.00    +0.127 C 
BRANCH   8  20
ATOM     16  C   UNL     1      -3.504   2.951   7.495  0.00  0.00    +0.044 C 
ATOM     17  C   UNL     1      -2.950   2.208   6.306  0.00  0.00    -0.050 A 
ATOM     18  C   UNL     1      -3.149   0.844   6.193  0.00  0.00    +0.004 A 
ATOM     19  C   UNL     1      -2.644   0.158   5.108  0.00  0.00    +0.013 A 
ATOM     20  C   UNL     1      -1.933   0.844   4.122  0.00  0.00    +0.037 A 
ATOM     21  C   UNL     1      -1.732   2.220   4.245  0.00  0.00    +0.013 A 
ATOM     22  C   UNL     1      -2.246   2.894   5.333  0.00  0.00    +0.004 A 
ENDBRANCH   8  20
ENDBRANCH   1  13
BRANCH   2  23
ATOM     23  N   UNL     1       4.182   2.280   0.163  0.00  0.00    -0.295 N 
ATOM     24  H   UNL     1       3.261   2.049  -0.392  0.00  0.00    +0.154 HD
BRANCH  23  25
ATOM     25  C   UNL     1       4.812   3.455  -0.035  0.00  0.00    +0.141 C 
ATOM     26  S   UNL     1       6.196   3.852   0.892  0.00  0.00    -0.018 S 
BRANCH  25  27
ATOM     27  N   UNL     1       4.351   4.318  -0.962  0.00  0.00    -0.264 N 
ATOM     28  C   UNL     1       4.981   5.494  -1.160  0.00  0.00    +0.250 C 
ATOM     29  O   UNL     1       5.963   5.775  -0.502  0.00  0.00    -0.270 OA
ATOM     30  H   UNL     1       3.462   4.063  -1.557  0.00  0.00    +0.157 HD
BRANCH  28  31
ATOM     31  C   UNL     1       4.476   6.440  -2.176  0.00  0.00    +0.037 A 
ATOM     32  C   UNL     1       3.351   6.117  -2.938  0.00  0.00    +0.013 A 
ATOM     33  C   UNL     1       2.882   7.007  -3.882  0.00  0.00    +0.001 A 
ATOM     34  C   UNL     1       3.531   8.213  -4.082  0.00  0.00    +0.003 A 
ATOM     35  C   UNL     1       4.649   8.537  -3.335  0.00  0.00    -0.050 A 
ATOM     36  C   UNL     1       5.125   7.658  -2.384  0.00  0.00    +0.016 A 
ATOM     37  C   UNL     1       5.349   9.852  -3.561  0.00  0.00    +0.044 C 
ENDBRANCH  28  31
ENDBRANCH  25  27
ENDBRANCH  23  25
ENDBRANCH   2  23
TORSDOF 6
