REMARK  Name = ZINC39636366
REMARK  9 active torsions:
REMARK  status: ('A' for Active; 'I' for Inactive)
REMARK    1  A    between atoms: C_1  and  O_2
REMARK    2  A    between atoms: O_2  and  C_3
REMARK    3  A    between atoms: C_8  and  C_9
REMARK    4  A    between atoms: C_9  and  C_10
REMARK    5  A    between atoms: C_10  and  N_11
REMARK    6  A    between atoms: C_12  and  C_14
REMARK    7  A    between atoms: C_25  and  C_27
REMARK    8  A    between atoms: C_32  and  S_33
REMARK    9  A    between atoms: S_33  and  C_34
REMARK                            x       y       z     vdW  Elec       q    Type
REMARK                         _______ _______ _______ _____ _____    ______ ____
ROOT
ATOM      1  C   UNL     1      -3.953  -4.970   1.817  0.00  0.00    +0.100 C 
ATOM      2  C   UNL     1      -3.741  -4.303   3.195  0.00  0.00    +0.121 C 
ATOM      3  N   UNL     1      -4.982  -3.527   3.429  0.00  0.00    -0.296 N 
ATOM      4  C   UNL     1      -6.065  -4.400   2.917  0.00  0.00    +0.115 C 
ATOM      5  C   UNL     1      -5.479  -5.035   1.640  0.00  0.00    -0.004 C 
ATOM      6  C   UNL     1      -5.935  -6.486   1.515  0.00  0.00    -0.010 C 
ATOM      7  C   UNL     1      -7.448  -6.522   1.281  0.00  0.00    -0.082 C 
ATOM      8  N   UNL     1      -7.774  -5.778   0.058  0.00  0.00    +0.379 N 
ATOM      9  C   UNL     1      -7.418  -4.364   0.223  0.00  0.00    -0.082 C 
ATOM     10  C   UNL     1      -5.903  -4.236   0.411  0.00  0.00    -0.010 C 
ATOM     11  C   UNL     1      -5.099  -2.304   3.984  0.00  0.00    +0.249 C 
ATOM     12  O   UNL     1      -4.103  -1.668   4.270  0.00  0.00    -0.270 OA
ATOM     13  H   UNL     1      -7.259  -6.166  -0.717  0.00  0.00    -0.086 HD
ATOM     14  H   UNL     1      -8.763  -5.855  -0.127  0.00  0.00    -0.086 HD
ENDROOT
BRANCH  11  15
ATOM     15  C   UNL     1      -6.435  -1.738   4.244  0.00  0.00    +0.069 A 
ATOM     16  C   UNL     1      -7.496  -2.564   4.633  0.00  0.00    +0.017 A 
ATOM     17  C   UNL     1      -8.730  -1.983   4.865  0.00  0.00    +0.020 A 
ATOM     18  C   UNL     1      -8.880  -0.616   4.710  0.00  0.00    +0.112 A 
ATOM     19  N   UNL     1      -7.869   0.145   4.343  0.00  0.00    -0.248 NA
ATOM     20  C   UNL     1      -6.665  -0.357   4.112  0.00  0.00    +0.114 A 
BRANCH  20  21
ATOM     21  S   UNL     1      -5.347   0.709   3.631  0.00  0.00    -0.069 S 
BRANCH  21  22
ATOM     22  C   UNL     1      -6.117   2.284   3.454  0.00  0.00    +0.014 A 
ATOM     23  C   UNL     1      -6.098   3.191   4.507  0.00  0.00    +0.015 A 
ATOM     24  C   UNL     1      -6.701   4.425   4.364  0.00  0.00    +0.001 A 
ATOM     25  C   UNL     1      -7.325   4.758   3.176  0.00  0.00    +0.000 A 
ATOM     26  C   UNL     1      -7.346   3.858   2.126  0.00  0.00    +0.001 A 
ATOM     27  C   UNL     1      -6.739   2.625   2.260  0.00  0.00    +0.015 A 
ENDBRANCH  21  22
ENDBRANCH  20  21
ENDBRANCH  11  15
BRANCH   1  29
ATOM     28  N   UNL     1      -2.849  -4.723  -0.383  0.00  0.00    -0.315 N 
ATOM     29  C   UNL     1      -3.334  -4.133   0.728  0.00  0.00    +0.218 C 
ATOM     30  O   UNL     1      -3.272  -2.928   0.850  0.00  0.00    -0.275 OA
ATOM     31  H   UNL     1      -2.898  -5.686  -0.481  0.00  0.00    +0.149 HD
BRANCH  28  32
ATOM     32  C   UNL     1      -2.247  -3.909  -1.442  0.00  0.00    +0.109 C 
BRANCH  32  33
ATOM     33  C   UNL     1      -1.780  -4.817  -2.580  0.00  0.00    +0.057 C 
BRANCH  33  39
ATOM     34  C   UNL     1       0.175  -3.616  -3.591  0.00  0.00    +0.123 A 
ATOM     35  C   UNL     1       0.744  -2.849  -4.598  0.00  0.00    +0.046 A 
ATOM     36  C   UNL     1      -0.023  -2.446  -5.674  0.00  0.00    +0.004 A 
ATOM     37  C   UNL     1      -1.356  -2.806  -5.747  0.00  0.00    +0.000 A 
ATOM     38  C   UNL     1      -1.925  -3.569  -4.745  0.00  0.00    +0.007 A 
ATOM     39  C   UNL     1      -1.161  -3.980  -3.670  0.00  0.00    -0.004 A 
BRANCH  34  41
ATOM     40  C   UNL     1       2.296  -3.603  -2.516  0.00  0.00    +0.277 C 
ATOM     41  O   UNL     1       0.928  -4.014  -2.531  0.00  0.00    -0.495 OA
ENDBRANCH  34  41
ENDBRANCH  33  39
ENDBRANCH  32  33
ENDBRANCH  28  32
ENDBRANCH   1  29
TORSDOF 8
