REMARK  Name = ZINC44729768
REMARK  7 active torsions:
REMARK  status: ('A' for Active; 'I' for Inactive)
REMARK    1  A    between atoms: C_1  and  C_2
REMARK    2  A    between atoms: C_4  and  C_8
REMARK    3  A    between atoms: C_5  and  C_7
REMARK    4  A    between atoms: C_8  and  C_10
REMARK    5  A    between atoms: C_8  and  N_11
REMARK    6  A    between atoms: N_11  and  C_12
REMARK    7  A    between atoms: C_17  and  N_18
REMARK                            x       y       z     vdW  Elec       q    Type
REMARK                         _______ _______ _______ _____ _____    ______ ____
ROOT
ATOM      1  C   UNL     1      -3.571  -4.082   1.051  0.00  0.00    +0.050 A 
ATOM      2  C   UNL     1      -3.069  -5.366   1.176  0.00  0.00    +0.048 A 
ATOM      3  C   UNL     1      -3.846  -6.369   1.752  0.00  0.00    +0.039 A 
ATOM      4  C   UNL     1      -5.125  -6.061   2.198  0.00  0.00    -0.016 A 
ATOM      5  C   UNL     1      -5.630  -4.784   2.077  0.00  0.00    +0.030 A 
ATOM      6  C   UNL     1      -4.855  -3.784   1.508  0.00  0.00    +0.046 A 
ATOM      7  C   UNL     1      -5.699  -7.340   2.762  0.00  0.00    +0.133 C 
ATOM      8  C   UNL     1      -4.594  -8.357   2.570  0.00  0.00    +0.222 C 
ATOM      9  O   UNL     1      -4.630  -9.527   2.884  0.00  0.00    -0.275 OA
ATOM     10  N   UNL     1      -3.567  -7.719   1.984  0.00  0.00    -0.285 N 
ATOM     11  H   UNL     1      -2.728  -8.145   1.750  0.00  0.00    +0.155 HD
ENDROOT
BRANCH   6  12
ATOM     12  N   UNL     1      -5.361  -2.482   1.388  0.00  0.00    -0.357 N 
ATOM     13  H   UNL     1      -4.818  -1.785   0.986  0.00  0.00    +0.142 HD
ATOM     14  H   UNL     1      -6.254  -2.277   1.706  0.00  0.00    +0.142 HD
ENDBRANCH   6  12
BRANCH   1  15
ATOM     15  N   UNL     1      -2.786  -3.079   0.471  0.00  0.00    -0.336 N 
ATOM     16  H   UNL     1      -3.135  -2.178   0.387  0.00  0.00    +0.147 HD
BRANCH  15  17
ATOM     17  C   UNL     1      -1.437  -3.390  -0.009  0.00  0.00    +0.101 C 
ATOM     18  C   UNL     1      -1.518  -3.946  -1.432  0.00  0.00    +0.033 C 
BRANCH  17  22
ATOM     19  C   UNL     1      -0.018   1.503   0.010  0.00  0.00    +0.086 C 
ATOM     20  C   UNL     1       0.002  -0.004   0.002  0.00  0.00    +0.103 A 
ATOM     21  C   UNL     1      -1.078  -0.805   0.003  0.00  0.00    +0.050 A 
ATOM     22  C   UNL     1      -0.601  -2.136  -0.007  0.00  0.00    +0.013 A 
ATOM     23  C   UNL     1       0.742  -2.069  -0.013  0.00  0.00    +0.107 A 
ATOM     24  O   UNL     1       1.102  -0.775  -0.013  0.00  0.00    -0.465 OA
ATOM     25  C   UNL     1       1.684  -3.245  -0.023  0.00  0.00    +0.086 C 
ENDBRANCH  17  22
ENDBRANCH  15  17
ENDBRANCH   1  15
TORSDOF 4
