REMARK  Name = ZINC40377042
REMARK  8 active torsions:
REMARK  status: ('A' for Active; 'I' for Inactive)
REMARK    1  A    between atoms: C_1  and  C_2
REMARK    2  A    between atoms: C_7  and  S_8
REMARK    3  A    between atoms: S_8  and  N_11
REMARK    4  A    between atoms: N_11  and  C_12
REMARK    5  A    between atoms: C_12  and  C_13
REMARK    6  A    between atoms: C_12  and  C_14
REMARK    7  A    between atoms: C_12  and  C_15
REMARK    8  A    between atoms: N_16  and  O_17
REMARK                            x       y       z     vdW  Elec       q    Type
REMARK                         _______ _______ _______ _____ _____    ______ ____
ROOT
ATOM      1  N   UNL     1       1.711   1.429   3.240  0.00  0.00    -0.177 NA
ATOM      2  H   UNL     1       2.433   1.332   3.880  0.00  0.00    +0.149 HD
ENDROOT
BRANCH   1   3
ATOM      3  S   UNL     1       0.421   0.392   3.283  0.00  0.00    +0.059 S 
ATOM      4  O   UNL     1       0.669  -0.521   4.343  0.00  0.00    -0.153 OA
ATOM      5  O   UNL     1       0.198  -0.035   1.946  0.00  0.00    -0.153 OA
BRANCH   3  12
ATOM      6  C   UNL     1       0.136   1.818   5.934  0.00  0.00    +0.046 C 
ATOM      7  C   UNL     1      -1.030   1.953   4.989  0.00  0.00    -0.021 A 
ATOM      8  C   UNL     1      -2.135   2.697   5.356  0.00  0.00    +0.043 A 
ATOM      9  C   UNL     1      -3.205   2.821   4.487  0.00  0.00    +0.124 A 
ATOM     10  C   UNL     1      -3.168   2.198   3.250  0.00  0.00    +0.040 A 
ATOM     11  C   UNL     1      -2.062   1.454   2.886  0.00  0.00    +0.031 A 
ATOM     12  C   UNL     1      -0.991   1.336   3.752  0.00  0.00    +0.108 A 
ATOM     13  F   UNL     1      -4.286   3.549   4.844  0.00  0.00    -0.205 F 
ENDBRANCH   3  12
ENDBRANCH   1   3
BRANCH   1  14
ATOM     14  C   UNL     1       1.761   2.494   2.235  0.00  0.00    +0.092 C 
ATOM     15  C   UNL     1       1.897   1.876   0.843  0.00  0.00    +0.037 C 
ATOM     16  C   UNL     1       0.474   3.320   2.303  0.00  0.00    +0.037 C 
BRANCH  14  17
ATOM     17  C   UNL     1       2.945   3.386   2.507  0.00  0.00    +0.153 C 
ATOM     18  N   UNL     1       3.819   3.599   1.580  0.00  0.00    -0.075 NA
ATOM     19  N   UNL     1       3.095   3.974   3.743  0.00  0.00    -0.342 N 
ATOM     20  H   UNL     1       2.438   3.814   4.439  0.00  0.00    +0.144 HD
ATOM     21  H   UNL     1       3.857   4.548   3.918  0.00  0.00    +0.144 HD
BRANCH  18  22
ATOM     22  O   UNL     1       4.932   4.437   1.835  0.00  0.00    -0.408 OA
ATOM     23  H   UNL     1       5.531   4.536   1.082  0.00  0.00    +0.328 HD
ENDBRANCH  18  22
ENDBRANCH  14  17
ENDBRANCH   1  14
TORSDOF 5
