REMARK  Name = ZINC60342966
REMARK  8 active torsions:
REMARK  status: ('A' for Active; 'I' for Inactive)
REMARK    1  A    between atoms: C_1  and  N_2
REMARK    2  A    between atoms: N_2  and  C_3
REMARK    3  A    between atoms: N_2  and  C_19
REMARK    4  A    between atoms: C_3  and  C_4
REMARK    5  A    between atoms: C_13  and  S_15
REMARK    6  A    between atoms: S_15  and  N_18
REMARK    7  A    between atoms: C_22  and  O_25
REMARK    8  A    between atoms: O_25  and  C_26
REMARK                            x       y       z     vdW  Elec       q    Type
REMARK                         _______ _______ _______ _____ _____    ______ ____
ROOT
ATOM      1  C   UNL     1       0.494  -0.973   1.828  0.00  0.00    +0.237 C 
ATOM      2  O   UNL     1      -0.623  -0.670   1.467  0.00  0.00    -0.274 OA
ATOM      3  N   UNL     1       0.671  -1.634   2.990  0.00  0.00    -0.270 N 
ATOM      4  C   UNL     1       1.968  -2.046   3.532  0.00  0.00    +0.118 C 
ATOM      5  C   UNL     1       1.644  -2.755   4.858  0.00  0.00    +0.056 C 
ATOM      6  C   UNL     1       0.138  -2.687   4.967  0.00  0.00    -0.023 A 
ATOM      7  C   UNL     1      -0.356  -2.021   3.856  0.00  0.00    +0.040 A 
ATOM      8  C   UNL     1      -1.733  -1.829   3.737  0.00  0.00    +0.026 A 
ATOM      9  C   UNL     1      -2.587  -2.294   4.715  0.00  0.00    +0.030 A 
ATOM     10  C   UNL     1      -2.084  -2.954   5.822  0.00  0.00    +0.105 A 
ATOM     11  C   UNL     1      -0.722  -3.155   5.942  0.00  0.00    +0.034 A 
ENDROOT
BRANCH  10  12
ATOM     12  S   UNL     1      -3.179  -3.546   7.069  0.00  0.00    +0.056 S 
ATOM     13  O   UNL     1      -2.416  -3.646   8.264  0.00  0.00    -0.153 OA
ATOM     14  O   UNL     1      -4.358  -2.758   6.983  0.00  0.00    -0.153 OA
BRANCH  12  15
ATOM     15  N   UNL     1      -3.609  -5.089   6.651  0.00  0.00    -0.204 NA
ATOM     16  H   UNL     1      -3.822  -5.737   7.341  0.00  0.00    +0.144 HD
ATOM     17  H   UNL     1      -3.648  -5.345   5.716  0.00  0.00    +0.144 HD
ENDBRANCH  12  15
ENDBRANCH  10  12
BRANCH   1  18
ATOM     18  C   UNL     1       1.685  -0.611   0.979  0.00  0.00    +0.201 C 
BRANCH  18  20
ATOM     19  C   UNL     1       1.106   1.556  -0.208  0.00  0.00    +0.130 C 
ATOM     20  N   UNL     1       1.231   0.097  -0.221  0.00  0.00    -0.324 N 
BRANCH  20  21
ATOM     21  C   UNL     1       0.918  -0.622  -1.381  0.00  0.00    +0.030 A 
ATOM     22  C   UNL     1       1.032  -2.006  -1.392  0.00  0.00    +0.027 A 
ATOM     23  C   UNL     1       0.722  -2.714  -2.536  0.00  0.00    +0.048 A 
ATOM     24  C   UNL     1       0.297  -2.044  -3.674  0.00  0.00    +0.129 A 
ATOM     25  C   UNL     1       0.184  -0.661  -3.663  0.00  0.00    +0.048 A 
ATOM     26  C   UNL     1       0.488   0.048  -2.518  0.00  0.00    +0.027 A 
BRANCH  24  27
ATOM     27  O   UNL     1      -0.008  -2.742  -4.800  0.00  0.00    -0.456 OA
BRANCH  27  28
ATOM     28  C   UNL     1       0.110  -4.095  -4.763  0.00  0.00    +0.128 A 
ATOM     29  C   UNL     1      -0.971  -4.877  -4.381  0.00  0.00    +0.046 A 
ATOM     30  C   UNL     1      -0.849  -6.252  -4.344  0.00  0.00    +0.004 A 
ATOM     31  C   UNL     1       0.350  -6.850  -4.688  0.00  0.00    +0.000 A 
ATOM     32  C   UNL     1       1.428  -6.074  -5.069  0.00  0.00    +0.004 A 
ATOM     33  C   UNL     1       1.310  -4.699  -5.113  0.00  0.00    +0.046 A 
ENDBRANCH  27  28
ENDBRANCH  24  27
ENDBRANCH  20  21
ENDBRANCH  18  20
ENDBRANCH   1  18
TORSDOF 7
