REMARK  Name = ZINC50702236
REMARK  5 active torsions:
REMARK  status: ('A' for Active; 'I' for Inactive)
REMARK    1  A    between atoms: C_1  and  C_2
REMARK    2  A    between atoms: C_2  and  C_4
REMARK    3  A    between atoms: C_2  and  N_9
REMARK    4  A    between atoms: C_10  and  C_12
REMARK    5  A    between atoms: C_17  and  N_18
REMARK                            x       y       z     vdW  Elec       q    Type
REMARK                         _______ _______ _______ _____ _____    ______ ____
ROOT
ATOM      1  N   UNL     1       0.724  -0.444   1.201  0.00  0.00    -0.304 N 
ATOM      2  C   UNL     1       0.058  -0.614   2.360  0.00  0.00    +0.248 C 
ATOM      3  O   UNL     1      -1.129  -0.357   2.422  0.00  0.00    -0.270 OA
ATOM      4  H   UNL     1       1.671  -0.649   1.151  0.00  0.00    +0.150 HD
ENDROOT
BRANCH   2   5
ATOM      5  C   UNL     1       0.767  -1.112   3.552  0.00  0.00    +0.077 A 
ATOM      6  C   UNL     1       2.101  -1.529   3.465  0.00  0.00    +0.033 A 
ATOM      7  C   UNL     1       2.722  -1.988   4.614  0.00  0.00    +0.037 A 
ATOM      8  C   UNL     1       2.016  -2.022   5.803  0.00  0.00    +0.128 A 
ATOM      9  N   UNL     1       0.760  -1.626   5.864  0.00  0.00    -0.239 NA
ATOM     10  C   UNL     1       0.119  -1.172   4.797  0.00  0.00    +0.128 A 
ATOM     11 BR   UNL     1       4.522  -2.564   4.557  0.00  0.00    -0.049 Br
BRANCH  10  12
ATOM     12  N   UNL     1      -1.196  -0.761   4.908  0.00  0.00    -0.343 N 
ATOM     13  H   UNL     1      -1.694  -0.508   4.115  0.00  0.00    +0.144 HD
ATOM     14  H   UNL     1      -1.622  -0.726   5.779  0.00  0.00    +0.144 HD
ENDBRANCH  10  12
ENDBRANCH   2   5
BRANCH   1  16
ATOM     15  C   UNL     1      -0.021   1.581   0.048  0.00  0.00    +0.033 C 
ATOM     16  C   UNL     1       0.019   0.051   0.016  0.00  0.00    +0.107 C 
BRANCH  16  17
ATOM     17  C   UNL     1       0.740  -0.407  -1.226  0.00  0.00    +0.010 A 
ATOM     18  C   UNL     1       0.223  -0.847  -2.399  0.00  0.00    +0.013 A 
ATOM     19  C   UNL     1       1.086  -1.219  -3.413  0.00  0.00    +0.008 A 
ATOM     20  C   UNL     1       2.422  -1.131  -3.205  0.00  0.00    +0.045 A 
ATOM     21  S   UNL     1       2.495  -0.502  -1.536  0.00  0.00    -0.100 S 
ENDBRANCH  16  17
ENDBRANCH   1  16
TORSDOF 4
