REMARK  Name = ZINC03451754
REMARK  9 active torsions:
REMARK  status: ('A' for Active; 'I' for Inactive)
REMARK    1  A    between atoms: C_1  and  C_2
REMARK    2  A    between atoms: C_5  and  C_8
REMARK    3  A    between atoms: N_10  and  N_11
REMARK    4  A    between atoms: C_12  and  C_14
REMARK    5  A    between atoms: C_18  and  S_20
REMARK    6  A    between atoms: S_20  and  N_23
REMARK    7  A    between atoms: N_23  and  C_24
REMARK    8  A    between atoms: N_23  and  C_25
REMARK    9  A    between atoms: C_28  and  C_31
REMARK                            x       y       z     vdW  Elec       q    Type
REMARK                         _______ _______ _______ _____ _____    ______ ____
ROOT
ATOM      1  C   UNL     1       4.512  -7.976  -2.336  0.00  0.00    +0.040 A 
ATOM      2  C   UNL     1       3.863  -9.122  -2.797  0.00  0.00    +0.013 A 
ATOM      3  C   UNL     1       4.331 -10.368  -2.437  0.00  0.00    +0.003 A 
ATOM      4  C   UNL     1       5.437 -10.484  -1.613  0.00  0.00    +0.029 A 
ATOM      5  C   UNL     1       6.082  -9.352  -1.148  0.00  0.00    +0.109 A 
ATOM      6  C   UNL     1       5.626  -8.099  -1.505  0.00  0.00    +0.042 A 
ENDROOT
BRANCH   1   8
ATOM      7  N   UNL     1       2.943  -6.521  -3.526  0.00  0.00    -0.230 N 
ATOM      8  C   UNL     1       4.019  -6.637  -2.723  0.00  0.00    +0.260 C 
ATOM      9  O   UNL     1       4.583  -5.640  -2.316  0.00  0.00    -0.269 OA
ATOM     10  H   UNL     1       2.493  -7.316  -3.851  0.00  0.00    +0.173 HD
BRANCH   7  13
ATOM     11  C   UNL     1       1.399  -5.136  -4.696  0.00  0.00    +0.260 C 
ATOM     12  O   UNL     1       0.835  -6.133  -5.103  0.00  0.00    -0.269 OA
ATOM     13  N   UNL     1       2.475  -5.252  -3.892  0.00  0.00    -0.230 N 
ATOM     14  H   UNL     1       2.926  -4.457  -3.567  0.00  0.00    +0.173 HD
BRANCH  11  19
ATOM     15  C   UNL     1      -0.522   0.076  -6.198  0.00  0.00    +0.044 C 
ATOM     16  C   UNL     1      -0.019  -1.289  -5.805  0.00  0.00    -0.050 A 
ATOM     17  C   UNL     1      -0.663  -2.421  -6.270  0.00  0.00    +0.004 A 
ATOM     18  C   UNL     1      -0.208  -3.674  -5.914  0.00  0.00    +0.013 A 
ATOM     19  C   UNL     1       0.906  -3.797  -5.082  0.00  0.00    +0.038 A 
ATOM     20  C   UNL     1       1.552  -2.651  -4.616  0.00  0.00    +0.013 A 
ATOM     21  C   UNL     1       1.086  -1.404  -4.980  0.00  0.00    +0.004 A 
ENDBRANCH  11  19
ENDBRANCH   7  13
ENDBRANCH   1   8
BRANCH   5  22
ATOM     22  S   UNL     1       7.488  -9.510  -0.098  0.00  0.00    +0.074 S 
ATOM     23  O   UNL     1       7.967 -10.838  -0.258  0.00  0.00    -0.150 OA
ATOM     24  O   UNL     1       8.304  -8.372  -0.338  0.00  0.00    -0.150 OA
BRANCH  22  25
ATOM     25  N   UNL     1       6.949  -9.385   1.463  0.00  0.00    -0.206 N 
ATOM     26  C   UNL     1       6.769  -8.065   2.073  0.00  0.00    +0.157 C 
BRANCH  25  27
ATOM     27  C   UNL     1       6.667 -10.539   2.199  0.00  0.00    +0.051 A 
ATOM     28  C   UNL     1       5.636 -11.382   1.803  0.00  0.00    +0.025 A 
ATOM     29  C   UNL     1       5.363 -12.524   2.530  0.00  0.00    +0.005 A 
ATOM     30  C   UNL     1       6.107 -12.823   3.656  0.00  0.00    -0.050 A 
ATOM     31  C   UNL     1       7.131 -11.983   4.056  0.00  0.00    +0.005 A 
ATOM     32  C   UNL     1       7.413 -10.842   3.331  0.00  0.00    +0.025 A 
ATOM     33  C   UNL     1       5.803 -14.067   4.450  0.00  0.00    +0.044 C 
ENDBRANCH  25  27
ENDBRANCH  22  25
ENDBRANCH   5  22
TORSDOF 6
