REMARK  Name = ZINC63237000
REMARK  4 active torsions:
REMARK  status: ('A' for Active; 'I' for Inactive)
REMARK    1  A    between atoms: C_5  and  C_7
REMARK    2  A    between atoms: C_11  and  C_23
REMARK    3  A    between atoms: C_27  and  N_29
REMARK    4  A    between atoms: C_30  and  C_32
REMARK                            x       y       z     vdW  Elec       q    Type
REMARK                         _______ _______ _______ _____ _____    ______ ____
ROOT
ATOM      1  C   UNL     1       1.197  -2.192   0.201  0.00  0.00    +0.063 C 
ATOM      2  C   UNL     1       0.374  -2.672  -1.009  0.00  0.00    +0.094 C 
ATOM      3  N   UNL     1      -1.053  -2.427  -0.781  0.00  0.00    -0.307 NA
ATOM      4  C   UNL     1      -1.607  -3.209   0.337  0.00  0.00    +0.111 C 
ATOM      5  C   UNL     1      -0.966  -2.711   1.634  0.00  0.00    +0.128 C 
ATOM      6  C   UNL     1       0.545  -2.793   1.421  0.00  0.00    -0.028 C 
ATOM      7  C   UNL     1       1.032  -3.466   2.454  0.00  0.00    -0.000 A 
ATOM      8  C   UNL     1       2.413  -3.762   2.870  0.00  0.00    +0.010 A 
ATOM      9  C   UNL     1       2.552  -4.518   3.991  0.00  0.00    +0.001 A 
ATOM     10  C   UNL     1       1.469  -5.003   4.731  0.00  0.00    +0.002 A 
ATOM     11  C   UNL     1       0.168  -4.770   4.429  0.00  0.00    +0.026 A 
ATOM     12  C   UNL     1      -0.106  -3.977   3.277  0.00  0.00    +0.043 A 
ATOM     13  N   UNL     1      -1.264  -3.566   2.780  0.00  0.00    -0.376 N 
ATOM     14  H   UNL     1      -1.236  -1.442  -0.659  0.00  0.00    +0.123 HD
ATOM     15  H   UNL     1      -2.149  -3.789   3.108  0.00  0.00    +0.160 HD
ENDROOT
BRANCH   1  20
ATOM     16  C   UNL     1      -0.058   1.347   0.593  0.00  0.00    +0.000 A 
ATOM     17  C   UNL     1       1.108   2.073   0.437  0.00  0.00    +0.001 A 
ATOM     18  C   UNL     1       2.303   1.420   0.204  0.00  0.00    +0.020 A 
ATOM     19  C   UNL     1       2.333   0.038   0.128  0.00  0.00    +0.045 A 
ATOM     20  C   UNL     1       1.166  -0.687   0.284  0.00  0.00    -0.021 A 
ATOM     21  C   UNL     1      -0.029  -0.033   0.517  0.00  0.00    +0.006 A 
ATOM     22 CL   UNL     1       3.834  -0.783  -0.166  0.00  0.00    -0.083 Cl
ENDBRANCH   1  20
BRANCH   4  23
ATOM     23  C   UNL     1      -1.291  -4.669   0.141  0.00  0.00    -0.026 A 
ATOM     24  C   UNL     1      -2.315  -5.575  -0.072  0.00  0.00    +0.005 A 
ATOM     25  C   UNL     1      -2.029  -6.915  -0.252  0.00  0.00    +0.002 A 
ATOM     26  C   UNL     1      -0.720  -7.355  -0.220  0.00  0.00    +0.023 A 
ATOM     27  C   UNL     1       0.310  -6.448  -0.006  0.00  0.00    +0.034 A 
ATOM     28  C   UNL     1       0.020  -5.101   0.168  0.00  0.00    +0.028 A 
BRANCH  27  29
ATOM     29  N   UNL     1       1.637  -6.890   0.027  0.00  0.00    -0.281 N 
ATOM     30  C   UNL     1       1.917  -8.151   0.411  0.00  0.00    +0.248 C 
ATOM     31  O   UNL     1       1.032  -8.869   0.834  0.00  0.00    -0.270 OA
ATOM     32  H   UNL     1       2.354  -6.288  -0.226  0.00  0.00    +0.155 HD
BRANCH  30  33
ATOM     33  C   UNL     1       3.301  -8.660   0.318  0.00  0.00    +0.037 A 
ATOM     34  C   UNL     1       4.321  -7.836  -0.162  0.00  0.00    +0.014 A 
ATOM     35  C   UNL     1       5.611  -8.317  -0.245  0.00  0.00    +0.021 A 
ATOM     36  C   UNL     1       5.895  -9.615   0.145  0.00  0.00    +0.041 A 
ATOM     37  C   UNL     1       4.888 -10.438   0.621  0.00  0.00    +0.021 A 
ATOM     38  C   UNL     1       3.596  -9.966   0.715  0.00  0.00    +0.014 A 
ATOM     39 CL   UNL     1       7.521 -10.213   0.037  0.00  0.00    -0.084 Cl
ENDBRANCH  30  33
ENDBRANCH  27  29
ENDBRANCH   4  23
TORSDOF 4
