REMARK  Name = ZINC13123912
REMARK  2 active torsions:
REMARK  status: ('A' for Active; 'I' for Inactive)
REMARK    1  A    between atoms: C_4  and  C_7
REMARK    2  A    between atoms: C_10  and  C_19
REMARK                            x       y       z     vdW  Elec       q    Type
REMARK                         _______ _______ _______ _____ _____    ______ ____
ROOT
ATOM      1  C   UNL     1       3.711  -0.707  -0.038  0.00  0.00    +0.106 C 
ATOM      2  C   UNL     1       4.048  -1.192   1.377  0.00  0.00    +0.059 C 
ATOM      3  C   UNL     1       2.915  -2.081   1.904  0.00  0.00    +0.149 C 
ATOM      4  N   UNL     1       2.589  -3.081   0.888  0.00  0.00    -0.223 N 
ATOM      5  C   UNL     1       2.920  -2.975  -0.421  0.00  0.00    +0.216 A 
ATOM      6  N   UNL     1       2.481  -4.039  -1.040  0.00  0.00    -0.180 NA
ATOM      7  C   UNL     1       1.863  -4.843  -0.162  0.00  0.00    +0.233 A 
ATOM      8  N   UNL     1       1.908  -4.291   1.030  0.00  0.00    -0.132 NA
ATOM      9  N   UNL     1       1.269  -6.069  -0.466  0.00  0.00    -0.326 N 
ATOM     10  N   UNL     1       3.612  -1.879  -0.929  0.00  0.00    -0.307 N 
ATOM     11  H   UNL     1       1.282  -6.402  -1.376  0.00  0.00    +0.145 HD
ATOM     12  H   UNL     1       0.842  -6.587   0.234  0.00  0.00    +0.145 HD
ATOM     13  H   UNL     1       4.006  -1.883  -1.815  0.00  0.00    +0.149 HD
ENDROOT
BRANCH   1  17
ATOM     14  C   UNL     1      -0.017   1.378   0.010  0.00  0.00    +0.000 A 
ATOM     15  C   UNL     1       1.171   2.086   0.002  0.00  0.00    +0.000 A 
ATOM     16  C   UNL     1       2.377   1.411  -0.013  0.00  0.00    +0.005 A 
ATOM     17  C   UNL     1       2.396   0.029  -0.020  0.00  0.00    -0.027 A 
ATOM     18  C   UNL     1       1.208  -0.679  -0.012  0.00  0.00    +0.005 A 
ATOM     19  C   UNL     1       0.002  -0.004   0.002  0.00  0.00    +0.000 A 
ENDBRANCH   1  17
BRANCH   3  20
ATOM     20  C   UNL     1       3.359  -2.768   3.169  0.00  0.00    +0.014 A 
ATOM     21  C   UNL     1       2.820  -2.702   4.411  0.00  0.00    +0.013 A 
ATOM     22  C   UNL     1       3.401  -3.428   5.434  0.00  0.00    +0.008 A 
ATOM     23  C   UNL     1       4.493  -4.185   5.165  0.00  0.00    +0.045 A 
ATOM     24  S   UNL     1       4.727  -3.888   3.420  0.00  0.00    -0.099 S 
ENDBRANCH   3  20
TORSDOF 2
