REMARK  Name = ZINC36218733
REMARK  8 active torsions:
REMARK  status: ('A' for Active; 'I' for Inactive)
REMARK    1  A    between atoms: C_1  and  C_2
REMARK    2  A    between atoms: C_6  and  C_8
REMARK    3  A    between atoms: N_10  and  C_11
REMARK    4  A    between atoms: C_15  and  C_17
REMARK    5  A    between atoms: C_19  and  C_32
REMARK    6  A    between atoms: N_21  and  C_25
REMARK    7  A    between atoms: C_25  and  C_26
REMARK    8  A    between atoms: N_34  and  C_35
REMARK                            x       y       z     vdW  Elec       q    Type
REMARK                         _______ _______ _______ _____ _____    ______ ____
ROOT
ATOM      1  C   UNL     1      -0.027  -8.393   4.995  0.00  0.00    +0.238 C 
ATOM      2  C   UNL     1       1.366  -8.904   5.433  0.00  0.00    +0.211 C 
ATOM      3  N   UNL     1       1.021 -10.064   6.278  0.00  0.00    -0.248 N 
ATOM      4  C   UNL     1      -0.292  -9.985   6.567  0.00  0.00    +0.405 C 
ATOM      5  O   UNL     1      -0.885 -10.814   7.228  0.00  0.00    -0.226 OA
ATOM      6  O   UNL     1      -0.875  -8.892   6.046  0.00  0.00    -0.440 OA
ENDROOT
BRANCH   1  11
ATOM      7  C   UNL     1      -0.013  -4.844   3.693  0.00  0.00    +0.034 A 
ATOM      8  C   UNL     1      -0.112  -4.119   4.873  0.00  0.00    +0.023 A 
ATOM      9  C   UNL     1      -0.183  -4.779   6.084  0.00  0.00    +0.002 A 
ATOM     10  C   UNL     1      -0.155  -6.162   6.122  0.00  0.00    +0.007 A 
ATOM     11  C   UNL     1      -0.057  -6.886   4.949  0.00  0.00    -0.003 A 
ATOM     12  C   UNL     1       0.007  -6.232   3.734  0.00  0.00    +0.030 A 
BRANCH   7  15
ATOM     13  C   UNL     1      -0.531  -4.708   1.375  0.00  0.00    +0.248 C 
ATOM     14  O   UNL     1      -1.053  -5.804   1.439  0.00  0.00    -0.270 OA
ATOM     15  N   UNL     1       0.058  -4.178   2.465  0.00  0.00    -0.281 N 
ATOM     16  H   UNL     1       0.533  -3.335   2.398  0.00  0.00    +0.155 HD
BRANCH  13  22
ATOM     17  C   UNL     1      -1.817  -4.386  -3.435  0.00  0.00    +0.044 C 
ATOM     18  C   UNL     1      -1.160  -3.797  -2.213  0.00  0.00    -0.050 A 
ATOM     19  C   UNL     1      -0.566  -2.550  -2.282  0.00  0.00    +0.003 A 
ATOM     20  C   UNL     1       0.039  -2.002  -1.165  0.00  0.00    +0.001 A 
ATOM     21  C   UNL     1       0.054  -2.698   0.026  0.00  0.00    +0.013 A 
ATOM     22  C   UNL     1      -0.544  -3.957   0.102  0.00  0.00    +0.037 A 
ATOM     23  C   UNL     1      -1.158  -4.501  -1.027  0.00  0.00    +0.016 A 
ENDBRANCH  13  22
ENDBRANCH   7  15
ENDBRANCH   1  11
BRANCH   2  24
ATOM     24  C   UNL     1       2.097  -7.854   6.229  0.00  0.00    +0.242 C 
ATOM     25  O   UNL     1       2.121  -7.918   7.440  0.00  0.00    -0.273 OA
ATOM     26  N   UNL     1       2.724  -6.843   5.596  0.00  0.00    -0.284 N 
ATOM     27  H   UNL     1       2.648  -6.752   4.633  0.00  0.00    +0.155 HD
BRANCH  26  28
ATOM     28  C   UNL     1       3.484  -5.923   6.327  0.00  0.00    +0.036 A 
ATOM     29  C   UNL     1       4.637  -5.380   5.775  0.00  0.00    +0.023 A 
ATOM     30  C   UNL     1       5.386  -4.472   6.498  0.00  0.00    +0.005 A 
ATOM     31  C   UNL     1       4.990  -4.103   7.771  0.00  0.00    +0.038 A 
ATOM     32  C   UNL     1       3.841  -4.643   8.324  0.00  0.00    +0.125 A 
ATOM     33  C   UNL     1       3.084  -5.548   7.602  0.00  0.00    +0.061 A 
ATOM     34  F   UNL     1       3.456  -4.281   9.568  0.00  0.00    -0.205 F 
ENDBRANCH  26  28
ENDBRANCH   2  24
BRANCH   3  35
ATOM     35  C   UNL     1       1.942 -11.114   6.722  0.00  0.00    +0.147 C 
BRANCH  35  36
ATOM     36  C   UNL     1       2.559 -10.716   8.038  0.00  0.00    -0.030 A 
ATOM     37  C   UNL     1       3.735  -9.990   8.058  0.00  0.00    +0.005 A 
ATOM     38  C   UNL     1       4.302  -9.625   9.265  0.00  0.00    +0.000 A 
ATOM     39  C   UNL     1       3.692  -9.987  10.452  0.00  0.00    +0.000 A 
ATOM     40  C   UNL     1       2.515 -10.712  10.432  0.00  0.00    +0.000 A 
ATOM     41  C   UNL     1       1.947 -11.073   9.224  0.00  0.00    +0.005 A 
ENDBRANCH  35  36
ENDBRANCH   3  35
TORSDOF 7
