REMARK  Name = ZINC16567619
REMARK  9 active torsions:
REMARK  status: ('A' for Active; 'I' for Inactive)
REMARK    1  A    between atoms: C_1  and  C_2
REMARK    2  A    between atoms: C_2  and  C_4
REMARK    3  A    between atoms: C_2  and  N_27
REMARK    4  A    between atoms: C_7  and  S_18
REMARK    5  A    between atoms: N_8  and  C_9
REMARK    6  A    between atoms: C_12  and  N_15
REMARK    7  A    between atoms: S_18  and  C_19
REMARK    8  A    between atoms: C_19  and  C_20
REMARK    9  A    between atoms: C_28  and  C_30
REMARK                            x       y       z     vdW  Elec       q    Type
REMARK                         _______ _______ _______ _____ _____    ______ ____
ROOT
ATOM      1  C   UNL     1       1.269  -6.685  -1.717  0.00  0.00    +0.159 A 
ATOM      2  N   UNL     1       1.276  -6.397  -0.446  0.00  0.00    -0.131 NA
ATOM      3  N   UNL     1       1.262  -5.123  -0.281  0.00  0.00    -0.122 NA
ATOM      4  C   UNL     1       1.244  -4.521  -1.448  0.00  0.00    +0.196 A 
ATOM      5  N   UNL     1       1.241  -5.500  -2.403  0.00  0.00    -0.273 N 
ENDROOT
BRANCH   5   6
ATOM      6  C   UNL     1       1.219  -5.326  -3.795  0.00  0.00    +0.050 A 
ATOM      7  C   UNL     1       0.127  -5.761  -4.532  0.00  0.00    +0.028 A 
ATOM      8  C   UNL     1       0.106  -5.584  -5.902  0.00  0.00    +0.035 A 
ATOM      9  C   UNL     1       1.176  -4.984  -6.540  0.00  0.00    +0.126 A 
ATOM     10  C   UNL     1       2.268  -4.554  -5.808  0.00  0.00    +0.035 A 
ATOM     11  C   UNL     1       2.292  -4.724  -4.437  0.00  0.00    +0.028 A 
BRANCH   9  12
ATOM     12  N   UNL     1       1.153  -4.801  -8.008  0.00  0.00    +0.056 N 
ATOM     13  O   UNL     1       2.095  -4.273  -8.571  0.00  0.00    -0.126 OA
ATOM     14  O   UNL     1       0.192  -5.179  -8.654  0.00  0.00    -0.126 OA
ENDBRANCH   9  12
ENDBRANCH   5   6
BRANCH   1  16
ATOM     15  C   UNL     1       2.682  -8.666  -2.195  0.00  0.00    +0.036 C 
ATOM     16  C   UNL     1       1.280  -8.066  -2.320  0.00  0.00    +0.139 C 
BRANCH  16  17
ATOM     17  N   UNL     1       0.321  -8.916  -1.612  0.00  0.00    -0.302 N 
ATOM     18  C   UNL     1      -0.221  -9.984  -2.232  0.00  0.00    +0.245 C 
ATOM     19  O   UNL     1       0.087 -10.240  -3.380  0.00  0.00    -0.270 OA
ATOM     20  H   UNL     1       0.075  -8.712  -0.696  0.00  0.00    +0.150 HD
BRANCH  18  21
ATOM     21  C   UNL     1      -1.189 -10.841  -1.517  0.00  0.00    +0.037 A 
ATOM     22  C   UNL     1      -1.540 -10.552  -0.197  0.00  0.00    +0.014 A 
ATOM     23  C   UNL     1      -2.449 -11.352   0.462  0.00  0.00    +0.021 A 
ATOM     24  C   UNL     1      -3.003 -12.449  -0.178  0.00  0.00    +0.041 A 
ATOM     25  C   UNL     1      -2.654 -12.744  -1.485  0.00  0.00    +0.021 A 
ATOM     26  C   UNL     1      -1.751 -11.947  -2.157  0.00  0.00    +0.014 A 
ATOM     27 CL   UNL     1      -4.141 -13.456   0.662  0.00  0.00    -0.084 Cl
ENDBRANCH  18  21
ENDBRANCH  16  17
ENDBRANCH   1  16
BRANCH   4  28
ATOM     28  S   UNL     1       1.219  -2.782  -1.729  0.00  0.00    -0.081 S 
BRANCH  28  29
ATOM     29  C   UNL     1       1.227  -2.186  -0.020  0.00  0.00    +0.112 C 
BRANCH  29  30
ATOM     30  C   UNL     1       1.208  -0.679  -0.013  0.00  0.00    -0.037 A 
ATOM     31  C   UNL     1       0.002  -0.004   0.002  0.00  0.00    +0.007 A 
ATOM     32  C   UNL     1      -0.017   1.378   0.010  0.00  0.00    +0.038 A 
ATOM     33  C   UNL     1       1.173   2.086   0.002  0.00  0.00    +0.123 A 
ATOM     34  C   UNL     1       2.381   1.408  -0.013  0.00  0.00    +0.038 A 
ATOM     35  C   UNL     1       2.397   0.026  -0.020  0.00  0.00    +0.007 A 
ATOM     36  F   UNL     1       1.156   3.437   0.009  0.00  0.00    -0.205 F 
ENDBRANCH  29  30
ENDBRANCH  28  29
ENDBRANCH   4  28
TORSDOF 8
