REMARK  Name = ZINC14461383
REMARK  9 active torsions:
REMARK  status: ('A' for Active; 'I' for Inactive)
REMARK    1  A    between atoms: C_1  and  C_2
REMARK    2  A    between atoms: C_2  and  N_3
REMARK    3  A    between atoms: N_3  and  C_4
REMARK    4  A    between atoms: N_3  and  C_6
REMARK    5  A    between atoms: C_4  and  C_5
REMARK    6  A    between atoms: C_9  and  C_12
REMARK    7  A    between atoms: C_23  and  S_28
REMARK    8  A    between atoms: S_28  and  N_31
REMARK    9  A    between atoms: N_31  and  C_32
REMARK                            x       y       z     vdW  Elec       q    Type
REMARK                         _______ _______ _______ _____ _____    ______ ____
ROOT
ATOM      1  C   UNL     1       1.973  -3.213  -4.414  0.00  0.00    +0.105 C 
ATOM      2  C   UNL     1       1.338  -3.948  -3.272  0.00  0.00    +0.029 C 
ATOM      3  C   UNL     1       2.160  -5.179  -2.840  0.00  0.00    +0.033 C 
ATOM      4  C   UNL     1       1.124  -6.119  -2.259  0.00  0.00    -0.030 C 
ATOM      5  C   UNL     1      -0.080  -5.780  -2.640  0.00  0.00    -0.023 C 
ATOM      6  C   UNL     1      -0.020  -4.583  -3.557  0.00  0.00    +0.049 C 
ATOM      7  C   UNL     1      -0.159  -5.073  -4.971  0.00  0.00    -0.018 A 
ATOM      8  C   UNL     1      -1.209  -5.930  -5.270  0.00  0.00    +0.034 A 
ATOM      9  C   UNL     1      -1.371  -6.416  -6.552  0.00  0.00    +0.109 A 
ATOM     10  C   UNL     1      -0.486  -6.051  -7.550  0.00  0.00    +0.030 A 
ATOM     11  C   UNL     1       0.558  -5.196  -7.262  0.00  0.00    +0.025 A 
ATOM     12  C   UNL     1       0.720  -4.701  -5.971  0.00  0.00    +0.031 A 
ATOM     13  N   UNL     1       1.740  -3.806  -5.714  0.00  0.00    -0.336 N 
ATOM     14  H   UNL     1       2.346  -3.590  -6.440  0.00  0.00    +0.147 HD
ENDROOT
BRANCH   1  18
ATOM     15  C   UNL     1       0.461   0.782  -4.462  0.00  0.00    +0.013 A 
ATOM     16  C   UNL     1       1.679   0.511  -3.866  0.00  0.00    +0.022 A 
ATOM     17  C   UNL     1       2.168  -0.782  -3.851  0.00  0.00    +0.007 A 
ATOM     18  C   UNL     1       1.439  -1.803  -4.431  0.00  0.00    -0.027 A 
ATOM     19  C   UNL     1       0.221  -1.532  -5.025  0.00  0.00    +0.007 A 
ATOM     20  C   UNL     1      -0.270  -0.240  -5.037  0.00  0.00    +0.022 A 
BRANCH  15  21
ATOM     21  N   UNL     1      -0.034   2.090  -4.478  0.00  0.00    -0.394 NA
ATOM     22  H   UNL     1      -0.928   2.105  -4.945  0.00  0.00    +0.126 HD
BRANCH  21  24
ATOM     23  C   UNL     1      -0.850   3.951  -3.112  0.00  0.00    +0.022 C 
ATOM     24  C   UNL     1      -0.193   2.570  -3.099  0.00  0.00    +0.081 C 
ENDBRANCH  21  24
BRANCH  21  25
ATOM     25  C   UNL     1       0.908   2.961  -5.194  0.00  0.00    +0.081 C 
ATOM     26  C   UNL     1       0.979   2.537  -6.662  0.00  0.00    +0.022 C 
ENDBRANCH  21  25
ENDBRANCH  15  21
ENDBRANCH   1  18
BRANCH   9  27
ATOM     27  S   UNL     1      -2.709  -7.503  -6.917  0.00  0.00    +0.072 S 
ATOM     28  O   UNL     1      -2.276  -8.336  -7.983  0.00  0.00    -0.150 OA
ATOM     29  O   UNL     1      -3.158  -8.026  -5.674  0.00  0.00    -0.150 OA
BRANCH  27  30
ATOM     30  N   UNL     1      -3.945  -6.575  -7.513  0.00  0.00    -0.216 N 
ATOM     31  H   UNL     1      -4.260  -6.713  -8.420  0.00  0.00    +0.174 HD
BRANCH  30  32
ATOM     32  C   UNL     1      -4.533  -5.596  -6.710  0.00  0.00    +0.048 A 
ATOM     33  C   UNL     1      -5.404  -5.961  -5.692  0.00  0.00    +0.024 A 
ATOM     34  C   UNL     1      -5.984  -4.989  -4.899  0.00  0.00    +0.002 A 
ATOM     35  C   UNL     1      -5.698  -3.654  -5.119  0.00  0.00    +0.000 A 
ATOM     36  C   UNL     1      -4.831  -3.287  -6.132  0.00  0.00    +0.002 A 
ATOM     37  C   UNL     1      -4.244  -4.254  -6.925  0.00  0.00    +0.024 A 
ENDBRANCH  30  32
ENDBRANCH  27  30
ENDBRANCH   9  27
TORSDOF 7
