REMARK  Name = ZINC54499135
REMARK  4 active torsions:
REMARK  status: ('A' for Active; 'I' for Inactive)
REMARK    1  A    between atoms: C_1  and  C_2
REMARK    2  A    between atoms: C_4  and  C_8
REMARK    3  A    between atoms: N_5  and  C_7
REMARK    4  A    between atoms: C_13  and  N_14
REMARK                            x       y       z     vdW  Elec       q    Type
REMARK                         _______ _______ _______ _____ _____    ______ ____
ROOT
ATOM      1  C   UNL     1       0.425  -3.153  -1.224  0.00  0.00    +0.041 A 
ATOM      2  C   UNL     1       0.465  -4.385  -0.571  0.00  0.00    +0.028 A 
ATOM      3  C   UNL     1       0.523  -5.552  -1.304  0.00  0.00    +0.019 A 
ATOM      4  C   UNL     1       0.542  -5.507  -2.689  0.00  0.00    +0.017 A 
ATOM      5  C   UNL     1       0.502  -4.294  -3.348  0.00  0.00    +0.024 A 
ATOM      6  C   UNL     1       0.438  -3.111  -2.625  0.00  0.00    +0.035 A 
ATOM      7 BR   UNL     1       0.578  -7.221  -0.416  0.00  0.00    -0.050 Br
ENDROOT
BRANCH   1  11
ATOM      8  C   UNL     1       1.412   1.474   0.350  0.00  0.00    +0.090 C 
ATOM      9  C   UNL     1       0.781   0.110   0.251  0.00  0.00    +0.149 A 
ATOM     10  N   UNL     1       1.108  -0.828  -0.634  0.00  0.00    -0.211 NA
ATOM     11  C   UNL     1       0.363  -1.899  -0.444  0.00  0.00    +0.160 A 
ATOM     12  N   UNL     1      -0.468  -1.646   0.594  0.00  0.00    -0.248 N 
ATOM     13  N   UNL     1      -0.171  -0.343   1.025  0.00  0.00    -0.155 NA
ATOM     14  C   UNL     1      -1.472  -2.551   1.157  0.00  0.00    +0.174 C 
ENDBRANCH   1  11
BRANCH   6  15
ATOM     15  N   UNL     1       0.392  -1.887  -3.289  0.00  0.00    -0.357 N 
ATOM     16  H   UNL     1       0.346  -1.061  -2.781  0.00  0.00    +0.142 HD
ATOM     17  H   UNL     1       0.407  -1.860  -4.258  0.00  0.00    +0.142 HD
ENDBRANCH   6  15
TORSDOF 2
