REMARK  Name = ZINC15268650
REMARK  10 active torsions:
REMARK  status: ('A' for Active; 'I' for Inactive)
REMARK    1  A    between atoms: C_1  and  C_2
REMARK    2  A    between atoms: C_4  and  C_32
REMARK    3  A    between atoms: C_5  and  C_31
REMARK    4  A    between atoms: C_6  and  S_9
REMARK    5  A    between atoms: C_7  and  C_8
REMARK    6  A    between atoms: S_9  and  N_12
REMARK    7  A    between atoms: C_15  and  C_18
REMARK    8  A    between atoms: N_20  and  C_21
REMARK    9  A    between atoms: C_24  and  N_27
REMARK   10  A    between atoms: C_28  and  C_30
REMARK                            x       y       z     vdW  Elec       q    Type
REMARK                         _______ _______ _______ _____ _____    ______ ____
ROOT
ATOM      1  N   UNL     1       0.355  12.538  -0.728  0.00  0.00    -0.177 NA
ATOM      2  C   UNL     1       1.425  12.634   0.274  0.00  0.00    +0.110 C 
ATOM      3  C   UNL     1       2.058  11.251   0.453  0.00  0.00    +0.030 C 
ATOM      4  C   UNL     1       0.967  10.235   0.796  0.00  0.00    +0.078 C 
ATOM      5  C   UNL     1      -0.041  10.159  -0.354  0.00  0.00    +0.030 C 
ATOM      6  C   UNL     1      -0.698  11.530  -0.543  0.00  0.00    +0.110 C 
ENDROOT
BRANCH   4   7
ATOM      7  C   UNL     1       1.590   8.880   1.006  0.00  0.00    +0.220 C 
ATOM      8  O   UNL     1       2.790   8.740   0.894  0.00  0.00    -0.275 OA
ATOM      9  N   UNL     1       0.815   7.822   1.320  0.00  0.00    -0.285 N 
ATOM     10  H   UNL     1      -0.135   7.946   1.473  0.00  0.00    +0.155 HD
BRANCH   9  11
ATOM     11  C   UNL     1       1.381   6.545   1.425  0.00  0.00    +0.034 A 
ATOM     12  C   UNL     1       0.660   5.431   1.019  0.00  0.00    +0.025 A 
ATOM     13  C   UNL     1       1.218   4.172   1.122  0.00  0.00    +0.025 A 
ATOM     14  C   UNL     1       2.501   4.021   1.632  0.00  0.00    +0.033 A 
ATOM     15  C   UNL     1       3.220   5.136   2.043  0.00  0.00    +0.025 A 
ATOM     16  C   UNL     1       2.664   6.394   1.935  0.00  0.00    +0.025 A 
BRANCH  14  17
ATOM     17  N   UNL     1       3.067   2.744   1.737  0.00  0.00    -0.286 N 
ATOM     18  C   UNL     1       4.399   2.585   1.605  0.00  0.00    +0.214 C 
ATOM     19  O   UNL     1       5.098   3.535   1.323  0.00  0.00    -0.276 OA
ATOM     20  C   UNL     1       5.018   1.224   1.800  0.00  0.00    +0.109 C 
ATOM     21  H   UNL     1       2.501   1.975   1.904  0.00  0.00    +0.155 HD
ENDBRANCH  14  17
ENDBRANCH   9  11
ENDBRANCH   4   7
BRANCH   1  22
ATOM     22  S   UNL     1       0.336  13.546  -2.042  0.00  0.00    +0.061 S 
ATOM     23  O   UNL     1      -1.028  13.716  -2.403  0.00  0.00    -0.153 OA
ATOM     24  O   UNL     1       1.182  14.643  -1.724  0.00  0.00    -0.153 OA
BRANCH  22  30
ATOM     25  C   UNL     1       0.101  10.913  -6.551  0.00  0.00    +0.044 C 
ATOM     26  C   UNL     1       0.940  11.484  -5.437  0.00  0.00    -0.045 A 
ATOM     27  C   UNL     1       2.314  11.331  -5.458  0.00  0.00    +0.007 A 
ATOM     28  C   UNL     1       3.084  11.855  -4.436  0.00  0.00    -0.045 A 
ATOM     29  C   UNL     1       2.479  12.531  -3.393  0.00  0.00    -0.021 A 
ATOM     30  C   UNL     1       1.106  12.684  -3.372  0.00  0.00    +0.112 A 
ATOM     31  C   UNL     1       0.336  12.156  -4.391  0.00  0.00    -0.021 A 
ATOM     32  C   UNL     1      -1.162  12.318  -4.365  0.00  0.00    +0.046 C 
ATOM     33  C   UNL     1       3.318  13.102  -2.278  0.00  0.00    +0.046 C 
ATOM     34  C   UNL     1       4.581  11.688  -4.459  0.00  0.00    +0.044 C 
ENDBRANCH  22  30
ENDBRANCH   1  22
TORSDOF 5
