REMARK  Name = ZINC09406857
REMARK  7 active torsions:
REMARK  status: ('A' for Active; 'I' for Inactive)
REMARK    1  A    between atoms: C_1  and  C_2
REMARK    2  A    between atoms: C_2  and  C_4
REMARK    3  A    between atoms: C_2  and  N_10
REMARK    4  A    between atoms: C_11  and  C_13
REMARK    5  A    between atoms: N_18  and  S_20
REMARK    6  A    between atoms: S_20  and  C_23
REMARK    7  A    between atoms: C_30  and  C_33
REMARK                            x       y       z     vdW  Elec       q    Type
REMARK                         _______ _______ _______ _____ _____    ______ ____
ROOT
ATOM      1  S   UNL     1      -1.932  -3.525   0.000  0.00  0.00    +0.061 S 
ATOM      2  O   UNL     1      -1.355  -4.707   0.539  0.00  0.00    -0.153 OA
ATOM      3  O   UNL     1      -3.084  -2.914   0.566  0.00  0.00    -0.153 OA
ENDROOT
BRANCH   1   4
ATOM      4  C   UNL     1      -0.664  -2.303  -0.005  0.00  0.00    +0.108 A 
ATOM      5  C   UNL     1       0.667  -2.694  -0.020  0.00  0.00    +0.030 A 
ATOM      6  C   UNL     1       1.673  -1.751  -0.024  0.00  0.00    +0.030 A 
ATOM      7  C   UNL     1       1.351  -0.401  -0.013  0.00  0.00    +0.067 A 
ATOM      8  C   UNL     1       0.002  -0.004   0.002  0.00  0.00    +0.091 A 
ATOM      9  C   UNL     1      -1.001  -0.979   0.006  0.00  0.00    +0.058 A 
ATOM     10  N   UNL     1      -0.016   1.351   0.009  0.00  0.00    -0.228 NA
ATOM     11  C   UNL     1       1.212   1.808   0.000  0.00  0.00    +0.139 A 
ATOM     12  N   UNL     1       2.095   0.763  -0.014  0.00  0.00    -0.338 N 
ATOM     13  H   UNL     1       3.093   0.829  -0.023  0.00  0.00    +0.167 HD
BRANCH  11  14
ATOM     14  C   UNL     1       1.587   3.239   0.004  0.00  0.00    +0.017 A 
ATOM     15  C   UNL     1       2.932   3.610  -0.002  0.00  0.00    +0.011 A 
ATOM     16  C   UNL     1       3.275   4.947  -0.005  0.00  0.00    +0.001 A 
ATOM     17  C   UNL     1       2.289   5.917   0.010  0.00  0.00    +0.000 A 
ATOM     18  C   UNL     1       0.954   5.555   0.021  0.00  0.00    +0.001 A 
ATOM     19  C   UNL     1       0.598   4.223   0.018  0.00  0.00    +0.011 A 
ENDBRANCH  11  14
ENDBRANCH   1   4
BRANCH   1  24
ATOM     20  C   UNL     1      -2.618  -5.880  -2.906  0.00  0.00    +0.091 C 
ATOM     21  C   UNL     1      -3.615  -5.092  -3.758  0.00  0.00    +0.015 C 
ATOM     22  C   UNL     1      -4.354  -4.081  -2.879  0.00  0.00    +0.018 C 
ATOM     23  C   UNL     1      -3.348  -3.100  -2.279  0.00  0.00    +0.109 C 
ATOM     24  N   UNL     1      -2.300  -3.856  -1.580  0.00  0.00    -0.176 NA
ATOM     25  C   UNL     1      -1.589  -4.916  -2.308  0.00  0.00    +0.122 C 
BRANCH  20  27
ATOM     26  N   UNL     1      -2.624  -7.853  -4.398  0.00  0.00    -0.308 N 
ATOM     27  C   UNL     1      -1.914  -6.898  -3.766  0.00  0.00    +0.218 C 
ATOM     28  O   UNL     1      -0.708  -6.857  -3.890  0.00  0.00    -0.275 OA
ATOM     29  H   UNL     1      -3.589  -7.886  -4.298  0.00  0.00    +0.149 HD
BRANCH  26  31
ATOM     30  C   UNL     1      -1.445  -9.995  -4.359  0.00  0.00    +0.033 C 
ATOM     31  C   UNL     1      -1.940  -8.842  -5.234  0.00  0.00    +0.100 C 
BRANCH  31  32
ATOM     32  C   UNL     1      -2.898  -9.373  -6.270  0.00  0.00    -0.027 A 
ATOM     33  C   UNL     1      -4.210  -9.637  -5.926  0.00  0.00    +0.005 A 
ATOM     34  C   UNL     1      -5.090 -10.120  -6.877  0.00  0.00    +0.000 A 
ATOM     35  C   UNL     1      -4.654 -10.347  -8.169  0.00  0.00    +0.000 A 
ATOM     36  C   UNL     1      -3.341 -10.088  -8.511  0.00  0.00    +0.000 A 
ATOM     37  C   UNL     1      -2.462  -9.601  -7.562  0.00  0.00    +0.005 A 
ENDBRANCH  31  32
ENDBRANCH  26  31
ENDBRANCH  20  27
ENDBRANCH   1  24
TORSDOF 6
