REMARK  Name = ZINC07386210
REMARK  5 active torsions:
REMARK  status: ('A' for Active; 'I' for Inactive)
REMARK    1  A    between atoms: C_3  and  C_10
REMARK    2  A    between atoms: C_5  and  N_7
REMARK    3  A    between atoms: N_12  and  N_13
REMARK    4  A    between atoms: N_13  and  S_14
REMARK    5  A    between atoms: S_14  and  C_17
REMARK                            x       y       z     vdW  Elec       q    Type
REMARK                         _______ _______ _______ _____ _____    ______ ____
ROOT
ATOM      1  N   UNL     1      -7.361   1.111   0.045  0.00  0.00    -0.108 NA
ATOM      2  H   UNL     1      -7.537   0.453  -0.646  0.00  0.00    +0.172 HD
ENDROOT
BRANCH   1   5
ATOM      3  C   UNL     1      -4.981   1.160   0.033  0.00  0.00    +0.259 C 
ATOM      4  O   UNL     1      -4.969  -0.055   0.026  0.00  0.00    -0.269 OA
ATOM      5  N   UNL     1      -6.155   1.823   0.043  0.00  0.00    -0.228 N 
ATOM      6  H   UNL     1      -6.164   2.793   0.048  0.00  0.00    +0.171 HD
BRANCH   3   9
ATOM      7  C   UNL     1      -2.526   4.003   0.037  0.00  0.00    +0.003 A 
ATOM      8  C   UNL     1      -3.718   3.308   0.039  0.00  0.00    +0.013 A 
ATOM      9  C   UNL     1      -3.708   1.912   0.030  0.00  0.00    +0.040 A 
ATOM     10  C   UNL     1      -2.490   1.229   0.021  0.00  0.00    +0.045 A 
ATOM     11  C   UNL     1      -1.306   1.936   0.019  0.00  0.00    +0.127 A 
ATOM     12  C   UNL     1      -1.323   3.320   0.032  0.00  0.00    +0.033 A 
BRANCH  11  13
ATOM     13  N   UNL     1      -0.014   1.214   0.009  0.00  0.00    +0.056 N 
ATOM     14  O   UNL     1       0.002  -0.004   0.002  0.00  0.00    -0.126 OA
ATOM     15  O   UNL     1       1.032   1.837   0.002  0.00  0.00    -0.126 OA
ENDBRANCH  11  13
ENDBRANCH   3   9
ENDBRANCH   1   5
BRANCH   1  16
ATOM     16  S   UNL     1      -8.486   1.391   1.227  0.00  0.00    +0.076 S 
ATOM     17  O   UNL     1      -9.638   0.636   0.879  0.00  0.00    -0.152 OA
ATOM     18  O   UNL     1      -7.817   1.231   2.470  0.00  0.00    -0.152 OA
BRANCH  16  19
ATOM     19  C   UNL     1      -8.945   3.089   1.117  0.00  0.00    +0.145 A 
ATOM     20  C   UNL     1     -10.236   3.434   0.762  0.00  0.00    +0.034 A 
ATOM     21  C   UNL     1     -10.599   4.765   0.680  0.00  0.00    +0.043 A 
ATOM     22  C   UNL     1      -9.668   5.756   0.942  0.00  0.00    +0.161 A 
ATOM     23  C   UNL     1      -8.372   5.412   1.292  0.00  0.00    +0.195 A 
ATOM     24  C   UNL     1      -8.011   4.076   1.379  0.00  0.00    +0.187 A 
ATOM     25  F   UNL     1      -6.748   3.739   1.721  0.00  0.00    -0.200 F 
ATOM     26  F   UNL     1      -7.462   6.377   1.548  0.00  0.00    -0.199 F 
ATOM     27  F   UNL     1     -10.023   7.056   0.856  0.00  0.00    -0.202 F 
ENDBRANCH  16  19
ENDBRANCH   1  16
TORSDOF 5
