REMARK  Name = ZINC28250035
REMARK  7 active torsions:
REMARK  status: ('A' for Active; 'I' for Inactive)
REMARK    1  A    between atoms: C_1  and  C_2
REMARK    2  A    between atoms: C_2  and  O_35
REMARK    3  A    between atoms: C_6  and  C_26
REMARK    4  A    between atoms: C_8  and  C_21
REMARK    5  A    between atoms: C_10  and  C_12
REMARK    6  A    between atoms: N_14  and  C_15
REMARK    7  A    between atoms: N_28  and  C_29
REMARK                            x       y       z     vdW  Elec       q    Type
REMARK                         _______ _______ _______ _____ _____    ______ ____
ROOT
ATOM      1  C   UNL     1       0.155  -0.778  -1.758  0.00  0.00    +0.042 C 
ATOM      2  C   UNL     1       0.792  -0.040  -0.579  0.00  0.00    +0.082 C 
ATOM      3  C   UNL     1      -0.307   0.481   0.352  0.00  0.00    +0.110 C 
ATOM      4  C   UNL     1      -1.112   1.525  -0.390  0.00  0.00    +0.149 C 
ATOM      5  O   UNL     1      -2.317   1.458  -0.441  0.00  0.00    -0.296 OA
ATOM      6  C   UNL     1      -0.369   2.656  -1.068  0.00  0.00    +0.150 C 
ATOM      7  C   UNL     1       0.733   2.056  -1.947  0.00  0.00    +0.059 C 
ATOM      8  C   UNL     1       1.617   1.139  -1.100  0.00  0.00    +0.116 C 
ENDROOT
BRANCH   7   9
ATOM      9  C   UNL     1       1.571   3.165  -2.529  0.00  0.00    -0.005 A 
ATOM     10  C   UNL     1       1.809   3.463  -3.830  0.00  0.00    +0.011 A 
ATOM     11  C   UNL     1       2.619   4.540  -4.133  0.00  0.00    +0.008 A 
ATOM     12  C   UNL     1       3.153   5.267  -3.121  0.00  0.00    +0.045 A 
ATOM     13  S   UNL     1       2.503   4.431  -1.684  0.00  0.00    -0.101 S 
ENDBRANCH   7   9
BRANCH   8  14
ATOM     14  C   UNL     1       2.754   0.620  -1.943  0.00  0.00    +0.224 C 
ATOM     15  O   UNL     1       2.847   0.952  -3.106  0.00  0.00    -0.275 OA
ATOM     16  N   UNL     1       3.667  -0.212  -1.405  0.00  0.00    -0.285 N 
ATOM     17  H   UNL     1       3.546  -0.567  -0.370  0.00  0.00    +0.155 HD
BRANCH  16  18
ATOM     18  C   UNL     1       4.769  -0.625  -2.161  0.00  0.00    +0.033 A 
ATOM     19  C   UNL     1       6.048  -0.549  -1.626  0.00  0.00    +0.023 A 
ATOM     20  C   UNL     1       7.133  -0.963  -2.373  0.00  0.00    +0.002 A 
ATOM     21  C   UNL     1       6.949  -1.442  -3.657  0.00  0.00    +0.000 A 
ATOM     22  C   UNL     1       5.677  -1.513  -4.195  0.00  0.00    +0.002 A 
ATOM     23  C   UNL     1       4.587  -1.106  -3.451  0.00  0.00    +0.023 A 
ENDBRANCH  16  18
ENDBRANCH   8  14
BRANCH   6  24
ATOM     24  C   UNL     1       0.248   3.552  -0.025  0.00  0.00    +0.228 C 
ATOM     25  O   UNL     1       1.014   3.092   0.794  0.00  0.00    -0.275 OA
ATOM     26  N   UNL     1      -0.053   4.866  -0.004  0.00  0.00    -0.285 N 
ATOM     27  H   UNL     1      -0.815   5.267  -0.687  0.00  0.00    +0.155 HD
BRANCH  26  28
ATOM     28  C   UNL     1       0.606   5.720   0.888  0.00  0.00    +0.033 A 
ATOM     29  C   UNL     1       0.941   5.273   2.160  0.00  0.00    +0.023 A 
ATOM     30  C   UNL     1       1.596   6.117   3.036  0.00  0.00    +0.002 A 
ATOM     31  C   UNL     1       1.908   7.408   2.652  0.00  0.00    +0.000 A 
ATOM     32  C   UNL     1       1.570   7.857   1.389  0.00  0.00    +0.002 A 
ATOM     33  C   UNL     1       0.920   7.017   0.506  0.00  0.00    +0.023 A 
ENDBRANCH  26  28
ENDBRANCH   6  24
BRANCH   2  34
ATOM     34  O   UNL     1       1.642  -0.935   0.141  0.00  0.00    -0.388 OA
ATOM     35  H   UNL     1       2.190  -0.581   1.027  0.00  0.00    +0.210 HD
ENDBRANCH   2  34
TORSDOF 6
