REMARK  Name = ZINC44736970
REMARK  6 active torsions:
REMARK  status: ('A' for Active; 'I' for Inactive)
REMARK    1  A    between atoms: C_1  and  C_2
REMARK    2  A    between atoms: C_9  and  C_11
REMARK    3  A    between atoms: C_11  and  C_13
REMARK    4  A    between atoms: C_11  and  N_14
REMARK    5  A    between atoms: C_15  and  C_17
REMARK    6  A    between atoms: C_28  and  C_30
REMARK                            x       y       z     vdW  Elec       q    Type
REMARK                         _______ _______ _______ _____ _____    ______ ____
ROOT
ATOM      1  C   UNL     1      -1.826  -9.079   0.413  0.00  0.00    +0.100 C 
ATOM      2  C   UNL     1      -0.530  -9.459  -0.338  0.00  0.00    +0.121 C 
ATOM      3  N   UNL     1      -0.008 -10.639   0.391  0.00  0.00    -0.296 N 
ATOM      4  C   UNL     1      -1.217 -11.429   0.726  0.00  0.00    +0.115 C 
ATOM      5  C   UNL     1      -2.276 -10.376   1.107  0.00  0.00    -0.004 C 
ATOM      6  C   UNL     1      -3.650 -10.799   0.597  0.00  0.00    -0.010 C 
ATOM      7  C   UNL     1      -4.100 -12.058   1.343  0.00  0.00    -0.082 C 
ATOM      8  N   UNL     1      -4.155 -11.781   2.784  0.00  0.00    +0.379 N 
ATOM      9  C   UNL     1      -2.811 -11.465   3.284  0.00  0.00    -0.082 C 
ATOM     10  C   UNL     1      -2.306 -10.182   2.620  0.00  0.00    -0.010 C 
ATOM     11  C   UNL     1       1.276 -10.928   0.682  0.00  0.00    +0.247 C 
ATOM     12  O   UNL     1       2.150 -10.116   0.448  0.00  0.00    -0.270 OA
ATOM     13  H   UNL     1      -4.768 -10.998   2.952  0.00  0.00    -0.086 HD
ATOM     14  H   UNL     1      -4.510 -12.593   3.268  0.00  0.00    -0.086 HD
ENDROOT
BRANCH  11  15
ATOM     15  C   UNL     1       1.620 -12.233   1.284  0.00  0.00    +0.038 A 
ATOM     16  C   UNL     1       0.746 -13.315   1.161  0.00  0.00    +0.014 A 
ATOM     17  C   UNL     1       1.073 -14.530   1.726  0.00  0.00    +0.022 A 
ATOM     18  C   UNL     1       2.265 -14.679   2.414  0.00  0.00    +0.059 A 
ATOM     19  C   UNL     1       3.138 -13.609   2.540  0.00  0.00    +0.060 A 
ATOM     20  C   UNL     1       2.824 -12.390   1.974  0.00  0.00    +0.034 A 
ATOM     21 CL   UNL     1       4.630 -13.805   3.405  0.00  0.00    -0.082 Cl
ATOM     22 CL   UNL     1       2.669 -16.211   3.123  0.00  0.00    -0.082 Cl
ENDBRANCH  11  15
BRANCH   1  24
ATOM     23  N   UNL     1      -2.540  -7.200   1.855  0.00  0.00    -0.305 N 
ATOM     24  C   UNL     1      -1.546  -8.007   1.434  0.00  0.00    +0.219 C 
ATOM     25  O   UNL     1      -0.425  -7.870   1.878  0.00  0.00    -0.275 OA
ATOM     26  H   UNL     1      -3.436  -7.309   1.500  0.00  0.00    +0.149 HD
BRANCH  23  27
ATOM     27  C   UNL     1      -2.268  -6.158   2.848  0.00  0.00    +0.136 C 
ATOM     28  C   UNL     1      -1.747  -4.904   2.142  0.00  0.00    +0.036 C 
BRANCH  27  37
ATOM     29  C   UNL     1      -7.718  -4.125   7.489  0.00  0.00    +0.044 C 
ATOM     30  C   UNL     1      -6.981  -4.642   6.281  0.00  0.00    -0.048 A 
ATOM     31  C   UNL     1      -7.695  -5.089   5.178  0.00  0.00    +0.005 A 
ATOM     32  C   UNL     1      -7.046  -5.562   4.073  0.00  0.00    +0.030 A 
ATOM     33  C   UNL     1      -5.649  -5.597   4.047  0.00  0.00    +0.089 A 
ATOM     34  C   UNL     1      -4.926  -5.145   5.164  0.00  0.00    +0.067 A 
ATOM     35  C   UNL     1      -5.603  -4.663   6.276  0.00  0.00    +0.031 A 
ATOM     36  N   UNL     1      -3.592  -5.302   4.843  0.00  0.00    -0.340 N 
ATOM     37  C   UNL     1      -3.537  -5.826   3.589  0.00  0.00    +0.128 A 
ATOM     38  N   UNL     1      -4.739  -5.999   3.123  0.00  0.00    -0.231 NA
ATOM     39  H   UNL     1      -2.835  -5.080   5.408  0.00  0.00    +0.167 HD
ENDBRANCH  27  37
ENDBRANCH  23  27
ENDBRANCH   1  24
TORSDOF 4
