REMARK  Name = ZINC36006700
REMARK  16 active torsions:
REMARK  status: ('A' for Active; 'I' for Inactive)
REMARK    1  A    between atoms: C_1  and  C_2
REMARK    2  A    between atoms: C_2  and  O_3
REMARK    3  A    between atoms: O_3  and  C_4
REMARK    4  A    between atoms: C_4  and  C_6
REMARK    5  A    between atoms: C_7  and  C_25
REMARK    6  A    between atoms: N_8  and  C_24
REMARK    7  A    between atoms: C_12  and  C_14
REMARK    8  A    between atoms: C_16  and  O_22
REMARK    9  A    between atoms: C_18  and  O_20
REMARK   10  A    between atoms: O_20  and  C_21
REMARK   11  A    between atoms: O_22  and  C_23
REMARK   12  A    between atoms: C_25  and  N_26
REMARK   13  A    between atoms: N_35  and  C_36
REMARK   14  A    between atoms: C_36  and  C_37
REMARK   15  A    between atoms: C_36  and  C_38
REMARK   16  A    between atoms: C_36  and  C_39
REMARK                            x       y       z     vdW  Elec       q    Type
REMARK                         _______ _______ _______ _____ _____    ______ ____
ROOT
ATOM      1  C   UNL     1       0.716  -2.687  -2.592  0.00  0.00    +0.076 C 
ATOM      2  C   UNL     1       1.390  -3.841  -2.786  0.00  0.00    +0.010 C 
ATOM      3  N   UNL     1       2.372  -3.933  -3.730  0.00  0.00    -0.264 N 
ATOM      4  C   UNL     1       2.740  -2.917  -4.520  0.00  0.00    +0.307 C 
ATOM      5  O   UNL     1       3.627  -3.096  -5.332  0.00  0.00    -0.252 OA
ATOM      6  N   UNL     1       2.159  -1.704  -4.445  0.00  0.00    -0.288 N 
ATOM      7  C   UNL     1       1.082  -1.502  -3.462  0.00  0.00    +0.144 C 
ATOM      8  C   UNL     1       3.063  -5.216  -3.885  0.00  0.00    +0.139 C 
ATOM      9  H   UNL     1       2.442  -0.981  -5.028  0.00  0.00    +0.151 HD
ENDROOT
BRANCH   7  10
ATOM     10  C   UNL     1      -0.156  -1.069  -4.204  0.00  0.00    -0.016 A 
ATOM     11  C   UNL     1      -0.561  -1.758  -5.331  0.00  0.00    +0.051 A 
ATOM     12  C   UNL     1      -1.701  -1.362  -6.016  0.00  0.00    +0.124 A 
ATOM     13  C   UNL     1      -2.433  -0.273  -5.569  0.00  0.00    +0.091 A 
ATOM     14  C   UNL     1      -2.025   0.416  -4.438  0.00  0.00    +0.124 A 
ATOM     15  C   UNL     1      -0.888   0.013  -3.753  0.00  0.00    +0.051 A 
BRANCH  14  16
ATOM     16  O   UNL     1      -2.741   1.484  -3.997  0.00  0.00    -0.495 OA
ATOM     17  C   UNL     1      -3.904   1.840  -4.748  0.00  0.00    +0.277 C 
ENDBRANCH  14  16
BRANCH  12  18
ATOM     18  O   UNL     1      -2.098  -2.040  -7.125  0.00  0.00    -0.495 OA
ATOM     19  C   UNL     1      -3.280  -1.576  -7.779  0.00  0.00    +0.277 C 
ENDBRANCH  12  18
ENDBRANCH   7  10
BRANCH   1  20
ATOM     20  C   UNL     1      -0.303  -2.590  -1.615  0.00  0.00    +0.339 C 
ATOM     21  O   UNL     1      -0.674  -3.586  -1.023  0.00  0.00    -0.245 OA
BRANCH  20  22
ATOM     22  O   UNL     1      -0.862  -1.393  -1.340  0.00  0.00    -0.462 OA
BRANCH  22  24
ATOM     23  C   UNL     1      -2.395   0.063  -0.169  0.00  0.00    +0.048 C 
ATOM     24  C   UNL     1      -1.885  -1.369  -0.342  0.00  0.00    +0.229 C 
ENDBRANCH  22  24
ENDBRANCH  20  22
ENDBRANCH   1  20
BRANCH   2  25
ATOM     25  C   UNL     1       1.053  -5.046  -1.946  0.00  0.00    -0.026 C 
BRANCH  25  26
ATOM     26  N   UNL     1      -0.114  -5.731  -2.518  0.00  0.00    +0.384 N 
ATOM     27  C   UNL     1      -0.569  -6.741  -1.565  0.00  0.00    -0.077 C 
ATOM     28  C   UNL     1      -2.060  -6.941  -1.722  0.00  0.00    +0.000 C 
ATOM     29  C   UNL     1      -2.321  -8.105  -2.695  0.00  0.00    +0.107 C 
ATOM     30  N   UNL     1      -1.372  -8.075  -3.826  0.00  0.00    -0.287 N 
ATOM     31  C   UNL     1      -0.994  -6.844  -4.488  0.00  0.00    +0.091 C 
ATOM     32  C   UNL     1       0.242  -6.230  -3.790  0.00  0.00    -0.059 C 
ATOM     33  C   UNL     1      -0.838  -9.235  -4.258  0.00  0.00    +0.303 C 
ATOM     34  O   UNL     1      -1.207 -10.290  -3.778  0.00  0.00    -0.253 OA
ATOM     35  N   UNL     1       0.104  -9.226  -5.221  0.00  0.00    -0.294 N 
ATOM     36  H   UNL     1       0.451  -8.383  -5.552  0.00  0.00    +0.151 HD
ATOM     37  H   UNL     1      -0.852  -5.053  -2.637  0.00  0.00    -0.081 HD
BRANCH  35  38
ATOM     38  C   UNL     1       0.605 -10.490  -5.768  0.00  0.00    +0.028 C 
ATOM     39  C   UNL     1      -0.554 -11.270  -6.391  0.00  0.00    +0.031 C 
ATOM     40  C   UNL     1       1.659 -10.201  -6.838  0.00  0.00    +0.031 C 
ATOM     41  C   UNL     1       1.232 -11.319  -4.645  0.00  0.00    +0.031 C 
ENDBRANCH  35  38
ENDBRANCH  25  26
ENDBRANCH   2  25
TORSDOF 9
