REMARK  Name = ZINC08741095
REMARK  8 active torsions:
REMARK  status: ('A' for Active; 'I' for Inactive)
REMARK    1  A    between atoms: C_6  and  C_11
REMARK    2  A    between atoms: C_14  and  C_16
REMARK    3  A    between atoms: C_16  and  C_34
REMARK    4  A    between atoms: C_17  and  N_18
REMARK    5  A    between atoms: N_18  and  C_19
REMARK    6  A    between atoms: C_22  and  S_25
REMARK    7  A    between atoms: S_25  and  N_28
REMARK    8  A    between atoms: N_28  and  C_29
REMARK                            x       y       z     vdW  Elec       q    Type
REMARK                         _______ _______ _______ _____ _____    ______ ____
ROOT
ATOM      1  C   UNL     1       8.648  -2.093  -0.070  0.00  0.00    +0.098 C 
ATOM      2  C   UNL     1       9.732  -2.916   0.005  0.00  0.00    +0.093 C 
ENDROOT
BRANCH   1   6
ATOM      3  C   UNL     1       5.627  -4.260   0.026  0.00  0.00    +0.079 A 
ATOM      4  C   UNL     1       4.678  -3.275   0.052  0.00  0.00    +0.075 A 
ATOM      5  S   UNL     1       5.711  -1.816   0.018  0.00  0.00    -0.074 S 
ATOM      6  C   UNL     1       7.286  -2.659  -0.028  0.00  0.00    +0.120 A 
ATOM      7  N   UNL     1       6.907  -3.928  -0.008  0.00  0.00    -0.238 NA
BRANCH   3  13
ATOM      8  C   UNL     1       5.000 -10.676   0.066  0.00  0.00    +0.001 A 
ATOM      9  C   UNL     1       6.355 -10.351   0.029  0.00  0.00    +0.001 A 
ATOM     10  C   UNL     1       6.763  -9.053   0.014  0.00  0.00    +0.008 A 
ATOM     11  C   UNL     1       5.807  -8.022   0.035  0.00  0.00    -0.017 A 
ATOM     12  C   UNL     1       6.194  -6.673   0.020  0.00  0.00    +0.018 A 
ATOM     13  C   UNL     1       5.225  -5.687   0.042  0.00  0.00    +0.001 A 
ATOM     14  C   UNL     1       3.862  -6.026   0.079  0.00  0.00    +0.010 A 
ATOM     15  C   UNL     1       3.468  -7.326   0.094  0.00  0.00    +0.009 A 
ATOM     16  C   UNL     1       4.429  -8.352   0.072  0.00  0.00    -0.018 A 
ATOM     17  C   UNL     1       4.046  -9.704   0.087  0.00  0.00    +0.008 A 
ENDBRANCH   3  13
ENDBRANCH   1   6
BRANCH   2  18
ATOM     18  N   UNL     1       9.562  -4.272  -0.005  0.00  0.00    -0.319 N 
ATOM     19  H   UNL     1       8.679  -4.649  -0.148  0.00  0.00    +0.152 HD
BRANCH  18  20
ATOM     20  C   UNL     1      10.659  -5.115   0.189  0.00  0.00    +0.031 A 
ATOM     21  C   UNL     1      11.922  -4.577   0.399  0.00  0.00    +0.025 A 
ATOM     22  C   UNL     1      13.004  -5.413   0.591  0.00  0.00    +0.031 A 
ATOM     23  C   UNL     1      12.831  -6.785   0.573  0.00  0.00    +0.111 A 
ATOM     24  C   UNL     1      11.575  -7.324   0.364  0.00  0.00    +0.031 A 
ATOM     25  C   UNL     1      10.487  -6.494   0.178  0.00  0.00    +0.025 A 
BRANCH  23  26
ATOM     26  S   UNL     1      14.214  -7.848   0.818  0.00  0.00    +0.093 S 
ATOM     27  O   UNL     1      13.883  -9.091   0.213  0.00  0.00    -0.148 OA
ATOM     28  O   UNL     1      15.368  -7.105   0.449  0.00  0.00    -0.148 OA
BRANCH  26  29
ATOM     29  N   UNL     1      14.334  -8.130   2.445  0.00  0.00    -0.070 NA
BRANCH  29  30
ATOM     30  C   UNL     1      15.344  -8.943   2.935  0.00  0.00    +0.201 A 
ATOM     31  N   UNL     1      16.291  -9.565   2.266  0.00  0.00    -0.231 NA
ATOM     32  C   UNL     1      17.188 -10.310   2.887  0.00  0.00    +0.120 A 
ATOM     33  C   UNL     1      17.086 -10.402   4.234  0.00  0.00    +0.068 A 
ATOM     34  S   UNL     1      15.661  -9.370   4.532  0.00  0.00    -0.058 S 
ENDBRANCH  29  30
ENDBRANCH  26  29
ENDBRANCH  23  26
ENDBRANCH  18  20
ENDBRANCH   2  18
BRANCH   1  35
ATOM     35  C   UNL     1       8.831  -0.678  -0.192  0.00  0.00    +0.103 C 
ATOM     36  N   UNL     1       8.977   0.445  -0.288  0.00  0.00    -0.191 NA
ENDBRANCH   1  35
TORSDOF 8
