REMARK  Name = ZINC08991889
REMARK  4 active torsions:
REMARK  status: ('A' for Active; 'I' for Inactive)
REMARK    1  A    between atoms: C_6  and  N_7
REMARK    2  A    between atoms: C_8  and  C_10
REMARK    3  A    between atoms: C_10  and  S_11
REMARK    4  A    between atoms: S_11  and  C_12
REMARK                            x       y       z     vdW  Elec       q    Type
REMARK                         _______ _______ _______ _____ _____    ______ ____
ROOT
ATOM      1  N   UNL     1      -1.202  -0.721   0.010  0.00  0.00    -0.285 N 
ATOM      2  C   UNL     1      -2.374  -0.068   0.127  0.00  0.00    +0.227 C 
ATOM      3  O   UNL     1      -2.395   1.145   0.134  0.00  0.00    -0.275 OA
ATOM      4  H   UNL     1      -1.191  -1.688  -0.072  0.00  0.00    +0.155 HD
ENDROOT
BRANCH   1  10
ATOM      5  C   UNL     1       0.122   1.154   0.763  0.00  0.00    +0.027 A 
ATOM      6  C   UNL     1       1.309   1.862   0.762  0.00  0.00    +0.051 A 
ATOM      7  C   UNL     1       2.383   1.417   0.008  0.00  0.00    +0.166 A 
ATOM      8  C   UNL     1       2.266   0.255  -0.751  0.00  0.00    +0.168 A 
ATOM      9  C   UNL     1       1.076  -0.454  -0.750  0.00  0.00    +0.072 A 
ATOM     10  C   UNL     1       0.002  -0.004   0.008  0.00  0.00    +0.037 A 
ATOM     11  O   UNL     1       3.448   0.034  -1.396  0.00  0.00    -0.453 OA
ATOM     12  C   UNL     1       4.153   1.288  -1.348  0.00  0.00    +0.466 C 
ATOM     13  O   UNL     1       3.640   1.924  -0.162  0.00  0.00    -0.453 OA
ENDBRANCH   1  10
BRANCH   2  14
ATOM     14  C   UNL     1      -3.660  -0.844   0.249  0.00  0.00    +0.172 C 
BRANCH  14  15
ATOM     15  S   UNL     1      -5.052   0.311   0.390  0.00  0.00    -0.094 S 
BRANCH  15  16
ATOM     16  C   UNL     1      -6.463  -0.736   0.523  0.00  0.00    +0.128 A 
ATOM     17  C   UNL     1      -7.745  -0.195   0.644  0.00  0.00    +0.117 A 
ATOM     18  C   UNL     1      -8.838  -1.070   0.748  0.00  0.00    +0.183 A 
ATOM     19  N   UNL     1      -9.942  -0.305   0.852  0.00  0.00    -0.216 NA
ATOM     20  C   UNL     1      -9.610   0.955   0.821  0.00  0.00    +0.199 A 
ATOM     21  N   UNL     1      -8.270   1.080   0.694  0.00  0.00    -0.341 N 
ATOM     22  H   UNL     1      -7.770   1.910   0.648  0.00  0.00    +0.167 HD
ATOM     23  N   UNL     1      -8.610  -2.388   0.726  0.00  0.00    -0.196 NA
ATOM     24  C   UNL     1      -7.385  -2.852   0.610  0.00  0.00    +0.226 A 
ATOM     25  N   UNL     1      -6.332  -2.061   0.505  0.00  0.00    -0.209 NA
ATOM     26 CL   UNL     1      -7.142  -4.571   0.588  0.00  0.00    -0.041 Cl
ENDBRANCH  15  16
ENDBRANCH  14  15
ENDBRANCH   2  14
TORSDOF 4
