REMARK  Name = ZINC47498103
REMARK  6 active torsions:
REMARK  status: ('A' for Active; 'I' for Inactive)
REMARK    1  A    between atoms: C_1  and  C_2
REMARK    2  A    between atoms: C_5  and  C_27
REMARK    3  A    between atoms: N_8  and  C_10
REMARK    4  A    between atoms: C_10  and  C_11
REMARK    5  A    between atoms: C_14  and  C_17
REMARK    6  A    between atoms: C_17  and  N_18
REMARK                            x       y       z     vdW  Elec       q    Type
REMARK                         _______ _______ _______ _____ _____    ______ ____
ROOT
ATOM      1  C   UNL     1       2.146   0.211   3.650  0.00  0.00    -0.064 A 
ATOM      2  C   UNL     1       2.582   1.442   4.103  0.00  0.00    +0.002 A 
ATOM      3  C   UNL     1       1.975   2.031   5.197  0.00  0.00    +0.005 A 
ATOM      4  C   UNL     1       0.932   1.388   5.838  0.00  0.00    -0.030 A 
ATOM      5  C   UNL     1       0.496   0.158   5.384  0.00  0.00    +0.005 A 
ATOM      6  C   UNL     1       1.100  -0.429   4.288  0.00  0.00    +0.002 A 
ENDROOT
BRANCH   1   7
ATOM      7  C   UNL     1       2.808  -0.431   2.458  0.00  0.00    -0.043 C 
BRANCH   7  13
ATOM      8  C   UNL     1      -0.019   1.526   0.010  0.00  0.00    +0.005 C 
ATOM      9  C   UNL     1       0.002  -0.004   0.002  0.00  0.00    -0.031 C 
ATOM     10  C   UNL     1       0.721  -0.499  -1.257  0.00  0.00    +0.003 C 
ATOM     11  C   UNL     1       2.177  -0.027  -1.220  0.00  0.00    -0.031 C 
ATOM     12  C   UNL     1       2.839  -0.534   0.063  0.00  0.00    -0.075 C 
ATOM     13  N   UNL     1       2.123  -0.005   1.230  0.00  0.00    +0.383 N 
ATOM     14  C   UNL     1       0.744  -0.512   1.240  0.00  0.00    -0.075 C 
ATOM     15  C   UNL     1       2.924  -0.581  -2.434  0.00  0.00    +0.005 C 
ATOM     16  H   UNL     1       2.109   1.003   1.187  0.00  0.00    -0.081 HD
ENDBRANCH   7  13
ENDBRANCH   1   7
BRANCH   4  17
ATOM     17  C   UNL     1       0.272   2.030   7.030  0.00  0.00    +0.141 C 
BRANCH  17  18
ATOM     18  N   UNL     1      -0.844   2.866   6.580  0.00  0.00    -0.295 N 
ATOM     19  C   UNL     1      -1.586   3.542   7.480  0.00  0.00    +0.306 C 
ATOM     20  O   UNL     1      -1.329   3.457   8.665  0.00  0.00    -0.252 OA
ATOM     21  N   UNL     1      -2.612   4.311   7.066  0.00  0.00    -0.247 N 
ATOM     22  C   UNL     1      -3.377   5.008   7.994  0.00  0.00    +0.189 A 
ATOM     23  N   UNL     1      -3.257   5.052   9.306  0.00  0.00    -0.126 NA
ATOM     24  N   UNL     1      -4.036   5.739  10.026  0.00  0.00    -0.148 NA
ATOM     25  C   UNL     1      -4.997   6.432   9.449  0.00  0.00    +0.183 A 
ATOM     26  S   UNL     1      -4.697   6.024   7.735  0.00  0.00    -0.039 S 
ATOM     27  H   UNL     1      -1.049   2.933   5.634  0.00  0.00    +0.151 HD
ATOM     28  H   UNL     1      -2.817   4.378   6.120  0.00  0.00    +0.158 HD
ENDBRANCH  17  18
ENDBRANCH   4  17
TORSDOF 4
