REMARK  Name = ZINC00648228
REMARK  11 active torsions:
REMARK  status: ('A' for Active; 'I' for Inactive)
REMARK    1  A    between atoms: C_1  and  C_2
REMARK    2  A    between atoms: C_2  and  C_4
REMARK    3  A    between atoms: C_8  and  N_10
REMARK    4  A    between atoms: C_11  and  C_13
REMARK    5  A    between atoms: C_13  and  S_14
REMARK    6  A    between atoms: S_14  and  C_15
REMARK    7  A    between atoms: C_18  and  C_26
REMARK    8  A    between atoms: N_19  and  C_20
REMARK    9  A    between atoms: C_26  and  N_27
REMARK   10  A    between atoms: N_27  and  C_28
REMARK   11  A    between atoms: C_32  and  C_34
REMARK                            x       y       z     vdW  Elec       q    Type
REMARK                         _______ _______ _______ _____ _____    ______ ____
ROOT
ATOM      1  C   UNL     1       0.555   5.670   0.646  0.00  0.00    +0.197 A 
ATOM      2  N   UNL     1       0.569   5.596  -0.665  0.00  0.00    -0.122 NA
ATOM      3  N   UNL     1       0.819   4.390  -1.032  0.00  0.00    -0.132 NA
ATOM      4  C   UNL     1       0.970   3.625   0.011  0.00  0.00    +0.156 A 
ATOM      5  N   UNL     1       0.811   4.413   1.120  0.00  0.00    -0.273 N 
ENDROOT
BRANCH   5   6
ATOM      6  C   UNL     1       0.894   4.014   2.462  0.00  0.00    +0.050 A 
ATOM      7  C   UNL     1      -0.038   3.127   2.983  0.00  0.00    +0.026 A 
ATOM      8  C   UNL     1       0.050   2.732   4.304  0.00  0.00    +0.002 A 
ATOM      9  C   UNL     1       1.059   3.227   5.110  0.00  0.00    +0.000 A 
ATOM     10  C   UNL     1       1.985   4.115   4.595  0.00  0.00    +0.002 A 
ATOM     11  C   UNL     1       1.906   4.510   3.274  0.00  0.00    +0.026 A 
ENDBRANCH   5   6
BRANCH   1  12
ATOM     12  S   UNL     1       0.262   7.115   1.611  0.00  0.00    -0.076 S 
BRANCH  12  13
ATOM     13  C   UNL     1       0.014   8.329   0.292  0.00  0.00    +0.173 C 
BRANCH  13  15
ATOM     14  N   UNL     1      -0.478  10.746   0.101  0.00  0.00    -0.285 N 
ATOM     15  C   UNL     1      -0.261   9.681   0.898  0.00  0.00    +0.227 C 
ATOM     16  O   UNL     1      -0.285   9.811   2.104  0.00  0.00    -0.275 OA
ATOM     17  H   UNL     1      -0.392  10.657  -0.861  0.00  0.00    +0.155 HD
BRANCH  14  22
ATOM     18  C   UNL     1      -0.644  13.597   2.435  0.00  0.00    +0.019 A 
ATOM     19  C   UNL     1      -1.535  14.434   1.755  0.00  0.00    +0.011 A 
ATOM     20  C   UNL     1      -2.062  14.040   0.542  0.00  0.00    +0.002 A 
ATOM     21  C   UNL     1      -1.708  12.822  -0.008  0.00  0.00    +0.023 A 
ATOM     22  C   UNL     1      -0.828  11.979   0.661  0.00  0.00    +0.034 A 
ATOM     23  C   UNL     1      -0.292  12.364   1.880  0.00  0.00    +0.034 A 
BRANCH  18  25
ATOM     24  C   UNL     1      -0.462  15.344   4.324  0.00  0.00    +0.091 C 
ATOM     25  C   UNL     1      -0.080  14.014   3.728  0.00  0.00    +0.160 C 
ATOM     26  O   UNL     1       0.693  13.286   4.315  0.00  0.00    -0.292 OA
ENDBRANCH  18  25
ENDBRANCH  14  22
ENDBRANCH  13  15
ENDBRANCH  12  13
ENDBRANCH   1  12
BRANCH   4  27
ATOM     27  C   UNL     1       1.271   2.148   0.000  0.00  0.00    +0.178 C 
BRANCH  27  28
ATOM     28  N   UNL     1       0.014   1.394  -0.002  0.00  0.00    -0.337 N 
ATOM     29  H   UNL     1      -0.834   1.865  -0.000  0.00  0.00    +0.147 HD
BRANCH  28  30
ATOM     30  C   UNL     1       0.038  -0.002  -0.011  0.00  0.00    +0.028 A 
ATOM     31  C   UNL     1       1.252  -0.678  -0.019  0.00  0.00    +0.023 A 
ATOM     32  C   UNL     1       1.272  -2.059  -0.028  0.00  0.00    +0.002 A 
ATOM     33  C   UNL     1       0.085  -2.769  -0.029  0.00  0.00    +0.012 A 
ATOM     34  C   UNL     1      -1.125  -2.099  -0.021  0.00  0.00    +0.057 A 
ATOM     35  C   UNL     1      -1.152  -0.719  -0.007  0.00  0.00    +0.035 A 
BRANCH  34  36
ATOM     36  C   UNL     1      -2.416  -2.877  -0.022  0.00  0.00    +0.417 C 
ATOM     37  F   UNL     1      -2.134  -4.248  -0.032  0.00  0.00    -0.166 F 
ATOM     38  F   UNL     1      -3.152  -2.560   1.124  0.00  0.00    -0.166 F 
ATOM     39  F   UNL     1      -3.159  -2.546  -1.160  0.00  0.00    -0.166 F 
ENDBRANCH  34  36
ENDBRANCH  28  30
ENDBRANCH  27  28
ENDBRANCH   4  27
TORSDOF 10
