REMARK  Name = ZINC17287328
REMARK  11 active torsions:
REMARK  status: ('A' for Active; 'I' for Inactive)
REMARK    1  A    between atoms: C_1  and  O_2
REMARK    2  A    between atoms: O_2  and  C_3
REMARK    3  A    between atoms: C_24  and  O_36
REMARK    4  A    between atoms: C_26  and  O_34
REMARK    5  A    between atoms: C_28  and  C_30
REMARK    6  A    between atoms: C_30  and  O_32
REMARK    7  A    between atoms: O_32  and  C_33
REMARK    8  A    between atoms: O_34  and  C_35
REMARK    9  A    between atoms: O_36  and  C_37
REMARK   10  A    between atoms: C_37  and  C_39
REMARK   11  A    between atoms: C_42  and  N_45
REMARK                            x       y       z     vdW  Elec       q    Type
REMARK                         _______ _______ _______ _____ _____    ______ ____
ROOT
ATOM      1  C   UNL     1       1.248  -0.616  -0.013  0.00  0.00    +0.122 A 
ATOM      2  C   UNL     1       2.430   0.116  -0.021  0.00  0.00    +0.046 A 
ATOM      3  C   UNL     1       2.437   1.488  -0.014  0.00  0.00    +0.014 A 
ATOM      4  C   UNL     1       1.194   2.129   0.002  0.00  0.00    +0.003 A 
ATOM      5  C   UNL     1      -0.017   1.389   0.010  0.00  0.00    +0.050 A 
ATOM      6  C   UNL     1       0.002  -0.004   0.002  0.00  0.00    +0.071 A 
ATOM      7  N   UNL     1      -1.045   2.288   0.019  0.00  0.00    -0.359 N 
ATOM      8  H   UNL     1      -1.987   2.059   0.023  0.00  0.00    +0.166 HD
ATOM      9  C   UNL     1      -0.544   3.563   0.023  0.00  0.00    +0.007 A 
ATOM     10  C   UNL     1       0.808   3.523   0.011  0.00  0.00    -0.022 A 
ATOM     11  C   UNL     1       1.679   4.754   0.010  0.00  0.00    +0.019 C 
ATOM     12  C   UNL     1       0.810   5.955   0.411  0.00  0.00    -0.073 C 
ATOM     13  C   UNL     1      -1.324   4.854   0.033  0.00  0.00    -0.020 C 
ATOM     14  C   UNL     1      -2.491   4.765  -0.953  0.00  0.00    -0.005 C 
ATOM     15  C   UNL     1      -3.250   6.101  -0.946  0.00  0.00    +0.006 C 
ATOM     16  C   UNL     1      -2.285   7.229  -1.316  0.00  0.00    -0.020 C 
ATOM     17  C   UNL     1      -1.118   7.241  -0.323  0.00  0.00    -0.074 C 
ATOM     18  C   UNL     1      -1.738   7.004  -2.727  0.00  0.00    +0.049 C 
ATOM     19  C   UNL     1      -2.896   6.965  -3.726  0.00  0.00    +0.206 C 
ATOM     20  C   UNL     1      -3.840   5.816  -3.363  0.00  0.00    +0.172 C 
ATOM     21  C   UNL     1      -4.395   6.042  -1.956  0.00  0.00    +0.133 C 
ATOM     22  N   UNL     1      -0.423   5.939  -0.413  0.00  0.00    +0.386 N 
ATOM     23  H   UNL     1      -0.163   5.771  -1.392  0.00  0.00    -0.081 HD
ENDROOT
BRANCH   1  25
ATOM     24  C   UNL     1       2.618  -2.559  -0.038  0.00  0.00    +0.277 C 
ATOM     25  O   UNL     1       1.315  -1.974  -0.022  0.00  0.00    -0.495 OA
ENDBRANCH   1  25
BRANCH  21  26
ATOM     26  C   UNL     1      -5.323   4.911  -1.595  0.00  0.00    +0.313 C 
ATOM     27  O   UNL     1      -5.085   4.216  -0.636  0.00  0.00    -0.250 OA
BRANCH  26  28
ATOM     28  O   UNL     1      -6.414   4.675  -2.341  0.00  0.00    -0.468 OA
ATOM     29  C   UNL     1      -7.263   3.569  -1.935  0.00  0.00    +0.280 C 
ENDBRANCH  26  28
ENDBRANCH  21  26
BRANCH  20  30
ATOM     30  O   UNL     1      -4.919   5.771  -4.300  0.00  0.00    -0.375 OA
ATOM     31  C   UNL     1      -4.666   4.946  -5.439  0.00  0.00    +0.194 C 
ENDBRANCH  20  30
BRANCH  19  32
ATOM     32  O   UNL     1      -3.621   8.222  -3.677  0.00  0.00    -0.455 OA
BRANCH  32  33
ATOM     33  C   UNL     1      -3.208   9.200  -4.507  0.00  0.00    +0.340 C 
ATOM     34  O   UNL     1      -2.267   9.007  -5.252  0.00  0.00    -0.245 OA
BRANCH  33  35
ATOM     35  C   UNL     1      -3.897  10.503  -4.512  0.00  0.00    +0.059 A 
ATOM     36  C   UNL     1      -4.983  10.724  -3.660  0.00  0.00    +0.017 A 
ATOM     37  C   UNL     1      -5.618  11.940  -3.663  0.00  0.00    +0.023 A 
ATOM     38  C   UNL     1      -5.189  12.949  -4.521  0.00  0.00    +0.025 A 
ATOM     39  C   UNL     1      -4.112  12.729  -5.375  0.00  0.00    +0.023 A 
ATOM     40  C   UNL     1      -3.469  11.518  -5.373  0.00  0.00    +0.017 A 
BRANCH  38  41
ATOM     41  N   UNL     1      -5.839  14.178  -4.526  0.00  0.00    -0.358 N 
ATOM     42  H   UNL     1      -5.541  14.881  -5.124  0.00  0.00    +0.142 HD
ATOM     43  H   UNL     1      -6.589  14.332  -3.931  0.00  0.00    +0.142 HD
ENDBRANCH  38  41
ENDBRANCH  33  35
ENDBRANCH  32  33
ENDBRANCH  19  32
TORSDOF 8
