REMARK  Name = ZINC20570674
REMARK  9 active torsions:
REMARK  status: ('A' for Active; 'I' for Inactive)
REMARK    1  A    between atoms: C_1  and  C_2
REMARK    2  A    between atoms: C_5  and  S_8
REMARK    3  A    between atoms: S_8  and  N_11
REMARK    4  A    between atoms: N_11  and  C_12
REMARK    5  A    between atoms: C_16  and  C_18
REMARK    6  A    between atoms: N_20  and  C_21
REMARK    7  A    between atoms: C_29  and  C_30
REMARK    8  A    between atoms: C_30  and  O_32
REMARK    9  A    between atoms: O_32  and  C_33
REMARK                            x       y       z     vdW  Elec       q    Type
REMARK                         _______ _______ _______ _____ _____    ______ ____
ROOT
ATOM      1  C   UNL     1      -8.377   2.922   0.419  0.00  0.00    +0.049 A 
ATOM      2  C   UNL     1      -8.324   1.628   0.923  0.00  0.00    +0.024 A 
ATOM      3  C   UNL     1      -7.105   1.022   1.159  0.00  0.00    +0.003 A 
ATOM      4  C   UNL     1      -5.931   1.699   0.897  0.00  0.00    +0.013 A 
ATOM      5  C   UNL     1      -5.972   2.999   0.391  0.00  0.00    +0.039 A 
ATOM      6  C   UNL     1      -7.204   3.613   0.157  0.00  0.00    +0.037 A 
ENDROOT
BRANCH   5   7
ATOM      7  C   UNL     1      -4.716   3.726   0.110  0.00  0.00    +0.248 C 
ATOM      8  O   UNL     1      -4.755   4.859  -0.331  0.00  0.00    -0.270 OA
ATOM      9  N   UNL     1      -3.528   3.134   0.342  0.00  0.00    -0.280 N 
ATOM     10  H   UNL     1      -3.491   2.081   0.656  0.00  0.00    +0.155 HD
BRANCH   9  11
ATOM     11  C   UNL     1      -2.350   3.854   0.183  0.00  0.00    +0.063 A 
ATOM     12  C   UNL     1      -1.918   4.809   1.192  0.00  0.00    +0.011 A 
ATOM     13  C   UNL     1      -2.554   5.148   2.412  0.00  0.00    +0.011 A 
ATOM     14  C   UNL     1      -2.010   6.074   3.245  0.00  0.00    +0.001 A 
ATOM     15  C   UNL     1      -0.815   6.712   2.940  0.00  0.00    +0.001 A 
ATOM     16  C   UNL     1      -0.161   6.407   1.764  0.00  0.00    +0.016 A 
ATOM     17  C   UNL     1      -0.705   5.471   0.905  0.00  0.00    +0.022 A 
ATOM     18  S   UNL     1      -0.206   4.805  -0.661  0.00  0.00    -0.080 S 
ATOM     19  C   UNL     1      -1.562   3.680  -0.935  0.00  0.00    +0.118 A 
BRANCH  19  20
ATOM     20  C   UNL     1      -1.779   2.816  -2.037  0.00  0.00    +0.347 C 
ATOM     21  O   UNL     1      -2.813   2.180  -2.118  0.00  0.00    -0.244 OA
BRANCH  20  22
ATOM     22  O   UNL     1      -0.838   2.698  -2.997  0.00  0.00    -0.464 OA
ATOM     23  C   UNL     1      -1.122   1.809  -4.079  0.00  0.00    +0.280 C 
ENDBRANCH  20  22
ENDBRANCH  19  20
ENDBRANCH   9  11
ENDBRANCH   5   7
BRANCH   1  24
ATOM     24  N   UNL     1      -9.613   3.530   0.182  0.00  0.00    -0.216 N 
ATOM     25  H   UNL     1      -9.784   4.080  -0.755  0.00  0.00    +0.174 HD
BRANCH  24  26
ATOM     26  S   UNL     1     -10.818   3.423   1.312  0.00  0.00    +0.072 S 
ATOM     27  O   UNL     1     -11.923   4.154   0.798  0.00  0.00    -0.150 OA
ATOM     28  O   UNL     1     -10.914   2.052   1.675  0.00  0.00    -0.150 OA
BRANCH  26  33
ATOM     29  C   UNL     1      -8.930   6.376   6.223  0.00  0.00    +0.044 C 
ATOM     30  C   UNL     1      -9.402   5.638   4.997  0.00  0.00    -0.050 A 
ATOM     31  C   UNL     1     -10.102   6.310   4.013  0.00  0.00    +0.005 A 
ATOM     32  C   UNL     1     -10.535   5.634   2.888  0.00  0.00    +0.029 A 
ATOM     33  C   UNL     1     -10.267   4.285   2.746  0.00  0.00    +0.109 A 
ATOM     34  C   UNL     1      -9.570   3.612   3.733  0.00  0.00    +0.029 A 
ATOM     35  C   UNL     1      -9.134   4.289   4.856  0.00  0.00    +0.005 A 
ENDBRANCH  26  33
ENDBRANCH  24  26
ENDBRANCH   1  24
TORSDOF 7
