REMARK  Name = ZINC12181439
REMARK  8 active torsions:
REMARK  status: ('A' for Active; 'I' for Inactive)
REMARK    1  A    between atoms: C_1  and  C_2
REMARK    2  A    between atoms: C_2  and  C_4
REMARK    3  A    between atoms: C_2  and  N_10
REMARK    4  A    between atoms: C_11  and  C_13
REMARK    5  A    between atoms: C_16  and  N_19
REMARK    6  A    between atoms: C_22  and  N_64
REMARK    7  A    between atoms: C_25  and  C_26
REMARK    8  A    between atoms: C_25  and  N_64
REMARK                            x       y       z     vdW  Elec       q    Type
REMARK                         _______ _______ _______ _____ _____    ______ ____
ROOT
ATOM      1  N   UNL     1       3.612  -0.642  -0.035  0.00  0.00    -0.330 N 
ATOM      2  C   UNL     1       3.705  -1.577   1.093  0.00  0.00    +0.103 C 
ATOM      3  C   UNL     1       4.983  -2.410   0.964  0.00  0.00    +0.003 C 
ATOM      4  C   UNL     1       6.196  -1.475   0.951  0.00  0.00    -0.068 C 
ATOM      5  C   UNL     1       6.051  -0.480  -0.204  0.00  0.00    +0.003 C 
ATOM      6  C   UNL     1       4.742   0.296  -0.041  0.00  0.00    +0.103 C 
ENDROOT
BRANCH   1  10
ATOM      7  C   UNL     1      -0.017   1.394   0.010  0.00  0.00    +0.037 A 
ATOM      8  C   UNL     1       1.186   2.106   0.002  0.00  0.00    +0.015 A 
ATOM      9  C   UNL     1       2.384   1.430  -0.013  0.00  0.00    +0.024 A 
ATOM     10  C   UNL     1       2.400   0.038  -0.021  0.00  0.00    +0.030 A 
ATOM     11  C   UNL     1       1.204  -0.674  -0.013  0.00  0.00    +0.024 A 
ATOM     12  C   UNL     1       0.002  -0.004   0.002  0.00  0.00    +0.015 A 
BRANCH   7  14
ATOM     13  N   UNL     1      -1.320   3.463   0.027  0.00  0.00    -0.305 N 
ATOM     14  C   UNL     1      -1.304   2.115   0.020  0.00  0.00    +0.245 C 
ATOM     15  O   UNL     1      -2.349   1.494   0.021  0.00  0.00    -0.270 OA
ATOM     16  H   UNL     1      -0.486   3.958   0.026  0.00  0.00    +0.150 HD
BRANCH  13  18
ATOM     17  C   UNL     1      -3.111   4.327  -1.397  0.00  0.00    +0.033 C 
ATOM     18  C   UNL     1      -2.598   4.180   0.037  0.00  0.00    +0.100 C 
BRANCH  18  19
ATOM     19  C   UNL     1      -2.403   5.545   0.644  0.00  0.00    -0.027 A 
ATOM     20  C   UNL     1      -1.265   6.275   0.354  0.00  0.00    +0.005 A 
ATOM     21  C   UNL     1      -1.089   7.529   0.908  0.00  0.00    +0.000 A 
ATOM     22  C   UNL     1      -2.046   8.050   1.758  0.00  0.00    +0.000 A 
ATOM     23  C   UNL     1      -3.181   7.319   2.052  0.00  0.00    +0.000 A 
ATOM     24  C   UNL     1      -3.360   6.066   1.495  0.00  0.00    +0.005 A 
ENDBRANCH  18  19
ENDBRANCH  13  18
ENDBRANCH   7  14
ENDBRANCH   1  10
BRANCH   4  25
ATOM     25  N   UNL     1       7.426  -2.266   0.759  0.00  0.00    +0.384 N 
ATOM     26  H   UNL     1       8.147  -1.672   0.333  0.00  0.00    -0.085 HD
ATOM     27  H   UNL     1       7.226  -3.059   0.139  0.00  0.00    -0.085 HD
BRANCH  25  28
ATOM     28  C   UNL     1       7.916  -2.773   2.054  0.00  0.00    -0.046 C 
BRANCH  28  29
ATOM     29  C   UNL     1       9.171  -3.575   1.828  0.00  0.00    -0.061 A 
ATOM     30  C   UNL     1      10.405  -2.951   1.863  0.00  0.00    +0.005 A 
ATOM     31  C   UNL     1      11.559  -3.683   1.656  0.00  0.00    +0.050 A 
ATOM     32  C   UNL     1      11.482  -5.045   1.412  0.00  0.00    +0.166 A 
ATOM     33  C   UNL     1      10.240  -5.673   1.377  0.00  0.00    +0.166 A 
ATOM     34  C   UNL     1       9.088  -4.935   1.591  0.00  0.00    +0.051 A 
ATOM     35  O   UNL     1      10.430  -7.001   1.123  0.00  0.00    -0.453 OA
ATOM     36  C   UNL     1      11.819  -7.252   1.409  0.00  0.00    +0.466 C 
ATOM     37  O   UNL     1      12.451  -5.979   1.181  0.00  0.00    -0.453 OA
ENDBRANCH  28  29
ENDBRANCH  25  28
ENDBRANCH   4  25
TORSDOF 7
