REMARK  Name = ZINC48025355
REMARK  7 active torsions:
REMARK  status: ('A' for Active; 'I' for Inactive)
REMARK    1  A    between atoms: C_4  and  C_7
REMARK    2  A    between atoms: C_4  and  N_22
REMARK    3  A    between atoms: C_7  and  N_8
REMARK    4  A    between atoms: C_9  and  C_11
REMARK    5  A    between atoms: C_11  and  N_12
REMARK    6  A    between atoms: C_15  and  C_18
REMARK    7  A    between atoms: C_18  and  C_19
REMARK                            x       y       z     vdW  Elec       q    Type
REMARK                         _______ _______ _______ _____ _____    ______ ____
ROOT
ATOM      1  N   UNL     1       3.223  -1.991   0.256  0.00  0.00    -0.315 N 
ATOM      2  C   UNL     1       4.034  -2.678  -0.574  0.00  0.00    +0.197 C 
ATOM      3  O   UNL     1       4.619  -2.099  -1.466  0.00  0.00    -0.278 OA
ATOM      4  H   UNL     1       2.755  -2.454   0.969  0.00  0.00    +0.149 HD
ENDROOT
BRANCH   1   5
ATOM      5  C   UNL     1       3.049  -0.547   0.081  0.00  0.00    +0.126 C 
BRANCH   5   9
ATOM      6  C   UNL     1       3.970   2.092   2.243  0.00  0.00    +0.000 C 
ATOM      7  C   UNL     1       4.253   0.609   2.489  0.00  0.00    +0.002 C 
ATOM      8  C   UNL     1       2.932  -0.160   2.547  0.00  0.00    +0.024 C 
ATOM      9  C   UNL     1       2.188   0.004   1.220  0.00  0.00    +0.038 C 
ATOM     10  C   UNL     1       1.905   1.487   0.973  0.00  0.00    +0.024 C 
ATOM     11  C   UNL     1       3.227   2.256   0.915  0.00  0.00    +0.002 C 
BRANCH   9  12
ATOM     12  N   UNL     1       0.919  -0.734   1.275  0.00  0.00    -0.291 NA
ATOM     13  C   UNL     1       0.210  -0.661  -0.011  0.00  0.00    +0.113 C 
ATOM     14  C   UNL     1      -1.073  -1.491   0.072  0.00  0.00    +0.175 C 
ATOM     15  O   UNL     1      -1.873  -1.015   1.159  0.00  0.00    -0.377 OA
ATOM     16  C   UNL     1      -1.214  -1.073   2.427  0.00  0.00    +0.175 C 
ATOM     17  C   UNL     1       0.069  -0.239   2.367  0.00  0.00    +0.113 C 
ENDBRANCH   9  12
ENDBRANCH   5   9
ENDBRANCH   1   5
BRANCH   2  18
ATOM     18  C   UNL     1       4.213  -4.163  -0.395  0.00  0.00    +0.019 C 
BRANCH  18  19
ATOM     19  N   UNL     1       5.137  -4.672  -1.417  0.00  0.00    +0.385 N 
ATOM     20  C   UNL     1       6.466  -4.084  -1.208  0.00  0.00    -0.078 C 
ATOM     21  C   UNL     1       7.412  -4.547  -2.318  0.00  0.00    -0.015 C 
ATOM     22  C   UNL     1       7.518  -6.075  -2.287  0.00  0.00    -0.006 C 
ATOM     23  C   UNL     1       6.117  -6.676  -2.431  0.00  0.00    -0.015 C 
ATOM     24  C   UNL     1       5.218  -6.134  -1.317  0.00  0.00    -0.078 C 
ATOM     25  H   UNL     1       4.798  -4.416  -2.332  0.00  0.00    -0.081 HD
BRANCH  22  26
ATOM     26  C   UNL     1       8.400  -6.550  -3.443  0.00  0.00    +0.099 C 
BRANCH  26  27
ATOM     27  C   UNL     1       8.603  -8.040  -3.340  0.00  0.00    +0.211 C 
ATOM     28  O   UNL     1       8.092  -8.660  -2.432  0.00  0.00    -0.276 OA
ATOM     29  N   UNL     1       9.351  -8.683  -4.258  0.00  0.00    -0.329 N 
ATOM     30  H   UNL     1       9.760  -8.187  -4.985  0.00  0.00    +0.145 HD
ATOM     31  H   UNL     1       9.482  -9.642  -4.191  0.00  0.00    +0.145 HD
ENDBRANCH  26  27
ENDBRANCH  22  26
ENDBRANCH  18  19
ENDBRANCH   2  18
TORSDOF 7
