REMARK  Name = ZINC02319341
REMARK  7 active torsions:
REMARK  status: ('A' for Active; 'I' for Inactive)
REMARK    1  A    between atoms: C_6  and  C_7
REMARK    2  A    between atoms: C_10  and  C_12
REMARK    3  A    between atoms: C_13  and  C_14
REMARK    4  A    between atoms: C_13  and  N_24
REMARK    5  A    between atoms: N_16  and  C_17
REMARK    6  A    between atoms: C_17  and  C_18
REMARK    7  A    between atoms: C_25  and  C_27
REMARK                            x       y       z     vdW  Elec       q    Type
REMARK                         _______ _______ _______ _____ _____    ______ ____
ROOT
ATOM      1  C   UNL     1       7.317   0.342  -0.172  0.00  0.00    +0.074 C 
ATOM      2  C   UNL     1       6.256  -0.509  -0.226  0.00  0.00    +0.100 C 
ENDROOT
BRANCH   1   6
ATOM      3  C   UNL     1       6.103   3.641   0.435  0.00  0.00    +0.136 A 
ATOM      4  C   UNL     1       7.427   3.922   0.253  0.00  0.00    +0.050 A 
ATOM      5  C   UNL     1       8.075   2.709   0.002  0.00  0.00    +0.050 A 
ATOM      6  C   UNL     1       7.105   1.725   0.033  0.00  0.00    +0.131 A 
ATOM      7  O   UNL     1       5.920   2.314   0.300  0.00  0.00    -0.455 OA
BRANCH   3  13
ATOM      8  C   UNL     1       5.346   5.993   0.741  0.00  0.00    +0.013 A 
ATOM      9  C   UNL     1       4.353   6.911   1.012  0.00  0.00    +0.021 A 
ATOM     10  C   UNL     1       3.064   6.482   1.283  0.00  0.00    +0.041 A 
ATOM     11  C   UNL     1       2.762   5.130   1.279  0.00  0.00    +0.021 A 
ATOM     12  C   UNL     1       3.744   4.202   1.004  0.00  0.00    +0.013 A 
ATOM     13  C   UNL     1       5.046   4.628   0.730  0.00  0.00    +0.017 A 
ATOM     14 CL   UNL     1       1.822   7.643   1.631  0.00  0.00    -0.084 Cl
ENDBRANCH   3  13
ENDBRANCH   1   6
BRANCH   2  15
ATOM     15  C   UNL     1       6.479  -1.953  -0.326  0.00  0.00    +0.258 C 
ATOM     16  O   UNL     1       5.535  -2.720  -0.275  0.00  0.00    -0.269 OA
ATOM     17  N   UNL     1       7.730  -2.432  -0.474  0.00  0.00    -0.308 N 
ATOM     18  H   UNL     1       8.482  -1.821  -0.515  0.00  0.00    +0.149 HD
BRANCH  17  19
ATOM     19  C   UNL     1       7.954  -3.877  -0.574  0.00  0.00    +0.136 C 
BRANCH  19  20
ATOM     20  C   UNL     1       9.450  -4.151  -0.735  0.00  0.00    +0.135 C 
ATOM     21  C   UNL     1       9.696  -5.669  -0.841  0.00  0.00    +0.035 C 
ATOM     22  C   UNL     1      10.401  -5.845  -2.208  0.00  0.00    +0.031 C 
ATOM     23  C   UNL     1      10.959  -4.423  -2.470  0.00  0.00    +0.160 C 
ATOM     24  O   UNL     1       9.928  -3.555  -1.953  0.00  0.00    -0.375 OA
ENDBRANCH  19  20
ENDBRANCH  17  19
ENDBRANCH   2  15
BRANCH   2  25
ATOM     25  N   UNL     1       4.951  -0.004  -0.186  0.00  0.00    -0.277 N 
ATOM     26  C   UNL     1       4.102  -0.250  -1.202  0.00  0.00    +0.248 C 
ATOM     27  O   UNL     1       4.439  -0.982  -2.113  0.00  0.00    -0.270 OA
ATOM     28  H   UNL     1       4.659   0.524   0.574  0.00  0.00    +0.155 HD
BRANCH  26  29
ATOM     29  C   UNL     1       2.760   0.368  -1.210  0.00  0.00    +0.037 A 
ATOM     30  C   UNL     1       1.922   0.210  -2.316  0.00  0.00    +0.014 A 
ATOM     31  C   UNL     1       0.671   0.790  -2.317  0.00  0.00    +0.021 A 
ATOM     32  C   UNL     1       0.245   1.528  -1.225  0.00  0.00    +0.041 A 
ATOM     33  C   UNL     1       1.072   1.688  -0.126  0.00  0.00    +0.021 A 
ATOM     34  C   UNL     1       2.325   1.113  -0.112  0.00  0.00    +0.014 A 
ATOM     35 CL   UNL     1      -1.329   2.261  -1.238  0.00  0.00    -0.084 Cl
ENDBRANCH  26  29
ENDBRANCH   2  25
TORSDOF 7
