REMARK  Name = ZINC09484891
REMARK  8 active torsions:
REMARK  status: ('A' for Active; 'I' for Inactive)
REMARK    1  A    between atoms: C_1  and  C_2
REMARK    2  A    between atoms: C_12  and  C_13
REMARK    3  A    between atoms: C_13  and  C_14
REMARK    4  A    between atoms: N_16  and  C_17
REMARK    5  A    between atoms: C_17  and  C_19
REMARK    6  A    between atoms: C_17  and  C_22
REMARK    7  A    between atoms: C_19  and  S_20
REMARK    8  A    between atoms: S_20  and  C_21
REMARK                            x       y       z     vdW  Elec       q    Type
REMARK                         _______ _______ _______ _____ _____    ______ ____
ROOT
ATOM      1  C   UNK A   0      -0.581  -2.326  -7.248  0.00  0.00    +0.045 C 
ATOM      2  C   UNK A   0      -0.618  -3.018  -5.910  0.00  0.00    -0.029 A 
ATOM      3  C   UNK A   0      -1.021  -2.301  -4.697  0.00  0.00    +0.021 A 
ATOM      4  C   UNK A   0      -1.379  -0.950  -4.746  0.00  0.00    +0.019 A 
ATOM      5  C   UNK A   0      -1.758  -0.298  -3.605  0.00  0.00    -0.005 A 
ATOM      6  C   UNK A   0      -1.793  -0.976  -2.390  0.00  0.00    +0.128 A 
ATOM      7  C   UNK A   0      -1.434  -2.316  -2.326  0.00  0.00    +0.093 A 
ATOM      8  C   UNK A   0      -1.046  -2.992  -3.473  0.00  0.00    +0.143 A 
ATOM      9  O   UNK A   0      -0.697  -4.292  -3.412  0.00  0.00    -0.422 OA
ATOM     10  C   UNK A   0      -0.327  -4.943  -4.520  0.00  0.00    +0.341 A 
ATOM     11  O   UNK A   0      -0.018  -6.118  -4.430  0.00  0.00    -0.245 OA
ATOM     12  C   UNK A   0      -0.280  -4.328  -5.786  0.00  0.00    +0.049 A 
ATOM     13  O   UNK A   0      -2.179  -0.360  -1.242  0.00  0.00    -0.485 OA
ATOM     14  C   UNK A   0      -2.188   1.066  -1.219  0.00  0.00    +0.111 C 
ATOM     15  C   UNK A   0      -0.753   1.593  -1.232  0.00  0.00    +0.048 C 
ATOM     16  C   UNK A   0      -0.013   1.086   0.008  0.00  0.00    +0.004 C 
ATOM     17  C   UNK A   0      -0.729   1.579   1.267  0.00  0.00    +0.000 C 
ATOM     18  C   UNK A   0      -2.165   1.050   1.278  0.00  0.00    +0.004 C 
ATOM     19  C   UNK A   0      -2.905   1.558   0.039  0.00  0.00    +0.048 C 
ATOM     20  C   UNK A   0      -2.930   1.571  -2.461  0.00  0.00    +0.053 C 
ATOM     21  C   UNK A   0      -2.132   1.160  -3.701  0.00  0.00    +0.043 C 
ENDROOT
BRANCH  12  22
ATOM     22  C   UNK A   0       0.144  -5.119  -6.997  0.00  0.00    +0.138 C 
BRANCH  22  23
ATOM     23  C   UNK A   0      -1.067  -5.753  -7.632  0.00  0.00    +0.218 C 
ATOM     24  O   UNK A   0      -2.165  -5.581  -7.148  0.00  0.00    -0.275 OA
ATOM     25  N   UNK A   1      -0.928  -6.513  -8.736  0.00  0.00    -0.301 N 
ATOM     26  H   UNK A   1      -0.050  -6.651  -9.123  0.00  0.00    +0.150 HD
BRANCH  25  27
ATOM     27  C   UNK A   1      -2.105  -7.130  -9.353  0.00  0.00    +0.196 C 
BRANCH  27  28
ATOM     28  C   UNK A   1      -2.405  -8.438  -8.667  0.00  0.00    +0.377 C 
ATOM     29  O   UNK A   1      -1.707  -8.816  -7.756  0.00  0.00    -0.244 OA
ATOM     30  O   UNK A   1      -3.447  -9.183  -9.068  0.00  0.00    -0.244 OA
ENDBRANCH  27  28
BRANCH  27  31
ATOM     31  C   UNK A   1      -1.830  -7.384 -10.836  0.00  0.00    +0.102 C 
BRANCH  31  32
ATOM     32  S   UNK A   1      -1.469  -5.809 -11.662  0.00  0.00    -0.162 S 
ATOM     33  C   UNK A   1      -1.169  -6.278 -13.389  0.00  0.00    +0.084 C 
ENDBRANCH  31  32
ENDBRANCH  27  31
ENDBRANCH  25  27
ENDBRANCH  22  23
ENDBRANCH  12  22
TORSDOF 6
