REMARK  Name = ZINC59131764
REMARK  5 active torsions:
REMARK  status: ('A' for Active; 'I' for Inactive)
REMARK    1  A    between atoms: C_4  and  N_17
REMARK    2  A    between atoms: C_5  and  C_7
REMARK    3  A    between atoms: N_9  and  C_10
REMARK    4  A    between atoms: C_18  and  C_20
REMARK    5  A    between atoms: N_25  and  C_27
REMARK                            x       y       z     vdW  Elec       q    Type
REMARK                         _______ _______ _______ _____ _____    ______ ____
ROOT
ATOM      1  C   UNL     1      -1.228   1.553  -0.000  0.00  0.00    +0.001 A 
ATOM      2  C   UNL     1      -0.234   2.143  -0.766  0.00  0.00    +0.002 A 
ATOM      3  C   UNL     1       1.023   1.578  -0.833  0.00  0.00    +0.024 A 
ATOM      4  C   UNL     1       1.301   0.412  -0.132  0.00  0.00    +0.046 A 
ATOM      5  C   UNL     1       0.298  -0.187   0.644  0.00  0.00    +0.058 A 
ATOM      6  C   UNL     1      -0.970   0.396   0.703  0.00  0.00    +0.015 A 
ENDROOT
BRANCH   5   7
ATOM      7  C   UNL     1       0.580  -1.426   1.393  0.00  0.00    +0.250 C 
ATOM      8  O   UNL     1       1.709  -1.877   1.418  0.00  0.00    -0.270 OA
ATOM      9  N   UNL     1      -0.413  -2.057   2.049  0.00  0.00    -0.281 N 
ATOM     10  H   UNL     1      -1.327  -1.746   1.962  0.00  0.00    +0.155 HD
BRANCH   9  11
ATOM     11  C   UNL     1      -0.125  -3.163   2.857  0.00  0.00    +0.034 A 
ATOM     12  C   UNL     1      -1.098  -4.126   3.091  0.00  0.00    +0.026 A 
ATOM     13  C   UNL     1      -0.812  -5.216   3.889  0.00  0.00    +0.040 A 
ATOM     14  C   UNL     1       0.444  -5.350   4.455  0.00  0.00    +0.124 A 
ATOM     15  C   UNL     1       1.416  -4.391   4.224  0.00  0.00    +0.040 A 
ATOM     16  C   UNL     1       1.136  -3.303   3.422  0.00  0.00    +0.026 A 
ATOM     17  F   UNL     1       0.722  -6.418   5.236  0.00  0.00    -0.205 F 
ENDBRANCH   9  11
ENDBRANCH   5   7
BRANCH   4  18
ATOM     18  N   UNL     1       2.569  -0.160  -0.200  0.00  0.00    -0.285 N 
ATOM     19  C   UNL     1       3.640   0.608  -0.486  0.00  0.00    +0.222 C 
ATOM     20  O   UNL     1       3.517   1.810  -0.581  0.00  0.00    -0.275 OA
ATOM     21  H   UNL     1       2.682  -1.110  -0.042  0.00  0.00    +0.155 HD
BRANCH  19  22
ATOM     22  C   UNL     1       4.991  -0.029  -0.686  0.00  0.00    +0.102 C 
ATOM     23  C   UNL     1       4.990  -0.950  -1.929  0.00  0.00    +0.110 C 
ATOM     24  C   UNL     1       5.479  -0.061  -3.050  0.00  0.00    +0.221 C 
ATOM     25  O   UNL     1       5.362  -0.306  -4.232  0.00  0.00    -0.275 OA
ATOM     26  N   UNL     1       6.062   1.041  -2.546  0.00  0.00    -0.271 N 
ATOM     27  C   UNL     1       6.048   1.028  -1.078  0.00  0.00    +0.127 C 
BRANCH  26  28
ATOM     28  C   UNL     1       6.611   2.069  -3.321  0.00  0.00    +0.036 A 
ATOM     29  C   UNL     1       6.474   2.047  -4.703  0.00  0.00    +0.024 A 
ATOM     30  C   UNL     1       7.016   3.063  -5.465  0.00  0.00    +0.017 A 
ATOM     31  C   UNL     1       7.697   4.101  -4.854  0.00  0.00    +0.018 A 
ATOM     32  C   UNL     1       7.835   4.125  -3.477  0.00  0.00    +0.017 A 
ATOM     33  C   UNL     1       7.290   3.114  -2.710  0.00  0.00    +0.024 A 
ATOM     34 BR   UNL     1       8.439   5.490  -5.901  0.00  0.00    -0.050 Br
ENDBRANCH  26  28
ENDBRANCH  19  22
ENDBRANCH   4  18
TORSDOF 5
