REMARK  Name = ZINC63503289
REMARK  5 active torsions:
REMARK  status: ('A' for Active; 'I' for Inactive)
REMARK    1  A    between atoms: C_4  and  N_7
REMARK    2  A    between atoms: C_8  and  S_24
REMARK    3  A    between atoms: S_24  and  C_25
REMARK    4  A    between atoms: C_25  and  C_26
REMARK    5  A    between atoms: C_30  and  N_35
REMARK                            x       y       z     vdW  Elec       q    Type
REMARK                         _______ _______ _______ _____ _____    ______ ____
ROOT
ATOM      1  N   UNL     1       3.622  -0.651  -0.037  0.00  0.00    -0.246 N 
ATOM      2  C   UNL     1       3.614  -2.102   0.060  0.00  0.00    +0.210 C 
ATOM      3  N   UNL     1       4.818  -2.684  -0.507  0.00  0.00    -0.277 NA
ATOM      4  C   UNL     1       6.067  -2.085  -0.121  0.00  0.00    +0.135 C 
ATOM      5  C   UNL     1       6.119  -0.556  -0.226  0.00  0.00    +0.130 C 
ATOM      6  C   UNL     1       4.747   0.054  -0.147  0.00  0.00    +0.231 C 
ATOM      7  O   UNL     1       4.660   1.263  -0.193  0.00  0.00    -0.274 OA
ATOM      8  C   UNL     1       6.959   0.038   0.886  0.00  0.00    -0.046 C 
ATOM      9  C   UNL     1       7.164  -0.708   1.964  0.00  0.00    -0.013 C 
ATOM     10  S   UNL     1       6.357  -2.281   1.685  0.00  0.00    -0.110 S 
ATOM     11  C   UNL     1       7.938  -0.325   3.194  0.00  0.00    +0.042 C 
ATOM     12  C   UNL     1       8.796   0.905   2.872  0.00  0.00    +0.005 C 
ATOM     13  C   UNL     1       7.916   1.944   2.169  0.00  0.00    +0.005 C 
ATOM     14  C   UNL     1       7.548   1.442   0.773  0.00  0.00    +0.032 C 
ATOM     15  H   UNL     1       4.837  -3.683  -0.368  0.00  0.00    +0.126 HD
ENDROOT
BRANCH   1  19
ATOM     16  C   UNL     1      -0.016   1.380   0.012  0.00  0.00    +0.000 A 
ATOM     17  C   UNL     1       0.319   0.538   1.057  0.00  0.00    +0.002 A 
ATOM     18  C   UNL     1       1.524  -0.136   1.044  0.00  0.00    +0.023 A 
ATOM     19  C   UNL     1       2.400   0.031  -0.021  0.00  0.00    +0.039 A 
ATOM     20  C   UNL     1       2.060   0.876  -1.069  0.00  0.00    +0.023 A 
ATOM     21  C   UNL     1       0.854   1.548  -1.050  0.00  0.00    +0.002 A 
ENDBRANCH   1  19
BRANCH   2  22
ATOM     22  S   UNL     1       2.171  -2.748  -0.829  0.00  0.00    -0.118 S 
BRANCH  22  23
ATOM     23  C   UNL     1       2.412  -2.173  -2.533  0.00  0.00    +0.105 C 
BRANCH  23  24
ATOM     24  C   UNL     1       1.267  -2.648  -3.390  0.00  0.00    -0.032 C 
ATOM     25  C   UNL     1       0.146  -1.958  -3.704  0.00  0.00    -0.000 A 
ATOM     26  C   UNL     1      -0.323  -0.612  -3.356  0.00  0.00    +0.012 A 
ATOM     27  C   UNL     1      -1.516  -0.189  -3.833  0.00  0.00    +0.033 A 
ATOM     28  C   UNL     1      -2.314  -1.003  -4.649  0.00  0.00    +0.128 A 
ATOM     29  C   UNL     1      -1.950  -2.251  -5.012  0.00  0.00    +0.058 A 
ATOM     30  C   UNL     1      -0.714  -2.798  -4.567  0.00  0.00    +0.045 A 
ATOM     31  N   UNL     1      -0.148  -3.961  -4.778  0.00  0.00    -0.380 N 
ATOM     32  C   UNL     1       1.140  -3.989  -4.077  0.00  0.00    +0.145 C 
ATOM     33  H   UNL     1      -0.518  -4.682  -5.312  0.00  0.00    +0.160 HD
BRANCH  28  34
ATOM     34  N   UNL     1      -3.608  -0.472  -5.132  0.00  0.00    +0.056 N 
ATOM     35  O   UNL     1      -3.958   0.643  -4.822  0.00  0.00    -0.126 OA
ATOM     36  O   UNL     1      -4.315  -1.153  -5.837  0.00  0.00    -0.126 OA
ENDBRANCH  28  34
ENDBRANCH  23  24
ENDBRANCH  22  23
ENDBRANCH   2  22
TORSDOF 5
