REMARK  Name = ZINC02250010
REMARK  5 active torsions:
REMARK  status: ('A' for Active; 'I' for Inactive)
REMARK    1  A    between atoms: C_4  and  C_7
REMARK    2  A    between atoms: C_7  and  C_8
REMARK    3  A    between atoms: N_10  and  C_11
REMARK    4  A    between atoms: C_14  and  C_28
REMARK    5  A    between atoms: C_17  and  C_21
REMARK                            x       y       z     vdW  Elec       q    Type
REMARK                         _______ _______ _______ _____ _____    ______ ____
ROOT
ATOM      1  C   UNL     1       3.847  -0.780   3.658  0.00  0.00    +0.240 C 
ATOM      2  N   UNL     1       4.949  -1.389   4.004  0.00  0.00    -0.140 NA
ATOM      3  N   UNL     1       5.011  -1.425   5.399  0.00  0.00    -0.180 N 
ATOM      4  C   UNL     1       5.991  -1.969   6.349  0.00  0.00    +0.156 C 
ATOM      5  C   UNL     1       5.671  -1.794   7.822  0.00  0.00    +0.030 C 
ATOM      6  C   UNL     1       4.524  -1.161   8.135  0.00  0.00    +0.073 C 
ATOM      7  N   UNL     1       3.684  -0.695   7.178  0.00  0.00    -0.217 NA
ATOM      8  C   UNL     1       3.896  -0.810   5.886  0.00  0.00    +0.211 C 
ATOM      9  N   UNL     1       3.168  -0.399   4.798  0.00  0.00    -0.254 N 
ATOM     10  H   UNL     1       2.321   0.074   4.825  0.00  0.00    +0.158 HD
ENDROOT
BRANCH   6  11
ATOM     11  C   UNL     1       4.171  -0.968   9.564  0.00  0.00    +0.000 A 
ATOM     12  C   UNL     1       5.023  -1.434  10.563  0.00  0.00    +0.011 A 
ATOM     13  C   UNL     1       4.690  -1.252  11.890  0.00  0.00    +0.020 A 
ATOM     14  C   UNL     1       3.512  -0.608  12.229  0.00  0.00    +0.041 A 
ATOM     15  C   UNL     1       2.663  -0.143  11.239  0.00  0.00    +0.020 A 
ATOM     16  C   UNL     1       2.990  -0.315   9.910  0.00  0.00    +0.011 A 
ATOM     17 CL   UNL     1       3.098  -0.383  13.900  0.00  0.00    -0.084 Cl
ENDBRANCH   6  11
BRANCH   4  18
ATOM     18  C   UNL     1       7.319  -1.310   6.079  0.00  0.00    -0.021 A 
ATOM     19  C   UNL     1       7.373   0.039   5.782  0.00  0.00    +0.008 A 
ATOM     20  C   UNL     1       8.591   0.644   5.535  0.00  0.00    +0.038 A 
ATOM     21  C   UNL     1       9.756  -0.101   5.583  0.00  0.00    +0.123 A 
ATOM     22  C   UNL     1       9.701  -1.452   5.880  0.00  0.00    +0.038 A 
ATOM     23  C   UNL     1       8.483  -2.054   6.132  0.00  0.00    +0.008 A 
ATOM     24  F   UNL     1      10.947   0.490   5.341  0.00  0.00    -0.205 F 
ENDBRANCH   4  18
BRANCH   1  27
ATOM     25  C   UNL     1       4.164  -0.959   1.377  0.00  0.00    +0.254 C 
ATOM     26  O   UNL     1       5.324  -1.608   1.608  0.00  0.00    -0.270 OA
ATOM     27  N   UNL     1       3.437  -0.551   2.376  0.00  0.00    -0.178 NA
BRANCH  25  28
ATOM     28  C   UNL     1       3.711  -0.707  -0.038  0.00  0.00    +0.135 C 
BRANCH  28  32
ATOM     29  C   UNL     1      -0.017   1.378   0.010  0.00  0.00    +0.000 A 
ATOM     30  C   UNL     1       1.171   2.086   0.002  0.00  0.00    +0.000 A 
ATOM     31  C   UNL     1       2.377   1.411  -0.013  0.00  0.00    +0.004 A 
ATOM     32  C   UNL     1       2.396   0.029  -0.020  0.00  0.00    -0.038 A 
ATOM     33  C   UNL     1       1.208  -0.679  -0.012  0.00  0.00    +0.004 A 
ATOM     34  C   UNL     1       0.002  -0.004   0.002  0.00  0.00    +0.000 A 
ENDBRANCH  28  32
ENDBRANCH  25  28
ENDBRANCH   1  27
TORSDOF 5
