REMARK  Name = ZINC14460944
REMARK  8 active torsions:
REMARK  status: ('A' for Active; 'I' for Inactive)
REMARK    1  A    between atoms: C_1  and  C_2
REMARK    2  A    between atoms: C_2  and  C_3
REMARK    3  A    between atoms: C_2  and  C_4
REMARK    4  A    between atoms: C_2  and  N_5
REMARK    5  A    between atoms: N_5  and  S_6
REMARK    6  A    between atoms: S_6  and  C_9
REMARK    7  A    between atoms: C_22  and  C_25
REMARK    8  A    between atoms: C_30  and  O_31
REMARK                            x       y       z     vdW  Elec       q    Type
REMARK                         _______ _______ _______ _____ _____    ______ ____
ROOT
ATOM      1  C   UNL     1      -2.368   1.655  -3.241  0.00  0.00    +0.106 A 
ATOM      2  C   UNL     1      -2.183   2.971  -3.625  0.00  0.00    +0.030 A 
ATOM      3  C   UNL     1      -0.933   3.547  -3.515  0.00  0.00    +0.025 A 
ATOM      4  C   UNL     1       0.133   2.805  -3.021  0.00  0.00    +0.031 A 
ATOM      5  C   UNL     1      -0.049   1.494  -2.620  0.00  0.00    -0.018 A 
ATOM      6  C   UNL     1      -1.309   0.919  -2.750  0.00  0.00    +0.034 A 
ATOM      7  C   UNL     1       1.070   0.649  -2.099  0.00  0.00    +0.049 C 
ATOM      8  C   UNL     1       0.955   0.468  -0.604  0.00  0.00    -0.023 C 
ATOM      9  C   UNL     1       2.145   0.464  -0.055  0.00  0.00    -0.030 C 
ATOM     10  C   UNL     1       3.218   0.635  -1.111  0.00  0.00    +0.033 C 
ATOM     11  C   UNL     1       2.455   1.295  -2.298  0.00  0.00    +0.029 C 
ATOM     12  C   UNL     1       2.377   2.797  -2.010  0.00  0.00    +0.108 C 
ATOM     13  N   UNL     1       1.393   3.403  -2.914  0.00  0.00    -0.336 N 
ATOM     14  H   UNL     1       1.611   4.198  -3.425  0.00  0.00    +0.147 HD
ENDROOT
BRANCH  12  15
ATOM     15  C   UNL     1       1.954   3.016  -0.581  0.00  0.00    +0.015 A 
ATOM     16  C   UNL     1       0.613   3.099  -0.261  0.00  0.00    +0.024 A 
ATOM     17  C   UNL     1       0.224   3.300   1.051  0.00  0.00    +0.018 A 
ATOM     18  C   UNL     1       1.178   3.419   2.046  0.00  0.00    +0.019 A 
ATOM     19  C   UNL     1       2.520   3.336   1.731  0.00  0.00    +0.047 A 
ATOM     20  C   UNL     1       2.912   3.129   0.416  0.00  0.00    +0.122 A 
ATOM     21 BR   UNL     1      -1.613   3.413   1.485  0.00  0.00    -0.050 Br
BRANCH  20  22
ATOM     22  O   UNL     1       4.232   3.042   0.105  0.00  0.00    -0.506 OA
ATOM     23  H   UNL     1       4.642   3.890  -0.111  0.00  0.00    +0.292 HD
ENDBRANCH  20  22
ENDBRANCH  12  15
BRANCH   1  24
ATOM     24  S   UNL     1      -3.961   0.917  -3.379  0.00  0.00    +0.059 S 
ATOM     25  O   UNL     1      -4.110   0.058  -2.256  0.00  0.00    -0.153 OA
ATOM     26  O   UNL     1      -4.874   1.970  -3.659  0.00  0.00    -0.153 OA
BRANCH  24  27
ATOM     27  N   UNL     1      -3.936  -0.056  -4.719  0.00  0.00    -0.185 NA
ATOM     28  H   UNL     1      -4.019  -1.017  -4.622  0.00  0.00    +0.149 HD
BRANCH  27  30
ATOM     29  C   UNL     1      -2.556   1.444  -6.071  0.00  0.00    +0.029 C 
ATOM     30  C   UNL     1      -3.787   0.536  -6.051  0.00  0.00    +0.032 C 
ATOM     31  C   UNL     1      -3.617  -0.577  -7.087  0.00  0.00    +0.029 C 
ATOM     32  C   UNL     1      -5.033   1.358  -6.386  0.00  0.00    +0.029 C 
ENDBRANCH  27  30
ENDBRANCH  24  27
ENDBRANCH   1  24
TORSDOF 5
