REMARK  Name = ZINC39686971
REMARK  9 active torsions:
REMARK  status: ('A' for Active; 'I' for Inactive)
REMARK    1  A    between atoms: C_1  and  C_2
REMARK    2  A    between atoms: C_2  and  C_4
REMARK    3  A    between atoms: C_2  and  N_12
REMARK    4  A    between atoms: C_4  and  C_5
REMARK    5  A    between atoms: C_13  and  C_15
REMARK    6  A    between atoms: C_26  and  C_28
REMARK    7  A    between atoms: C_28  and  C_30
REMARK    8  A    between atoms: C_28  and  O_31
REMARK    9  A    between atoms: O_31  and  C_32
REMARK                            x       y       z     vdW  Elec       q    Type
REMARK                         _______ _______ _______ _____ _____    ______ ____
ROOT
ATOM      1  C   UNL     1       2.788  -0.918   2.342  0.00  0.00    +0.100 C 
ATOM      2  C   UNL     1       2.688   0.057   3.537  0.00  0.00    +0.121 C 
ATOM      3  N   UNL     1       4.007  -0.035   4.207  0.00  0.00    -0.297 N 
ATOM      4  C   UNL     1       4.981  -0.126   3.092  0.00  0.00    +0.115 C 
ATOM      5  C   UNL     1       4.294  -1.035   2.053  0.00  0.00    -0.004 C 
ATOM      6  C   UNL     1       4.601  -0.545   0.641  0.00  0.00    -0.010 C 
ATOM      7  C   UNL     1       6.094  -0.726   0.356  0.00  0.00    -0.082 C 
ATOM      8  N   UNL     1       6.453  -2.142   0.493  0.00  0.00    +0.379 N 
ATOM      9  C   UNL     1       6.243  -2.580   1.878  0.00  0.00    -0.082 C 
ATOM     10  C   UNL     1       4.755  -2.478   2.228  0.00  0.00    -0.010 C 
ATOM     11  C   UNL     1       4.263  -0.035   5.530  0.00  0.00    +0.256 C 
ATOM     12  O   UNL     1       3.348  -0.047   6.325  0.00  0.00    -0.272 OA
ATOM     13  H   UNL     1       5.877  -2.695  -0.124  0.00  0.00    -0.086 HD
ATOM     14  H   UNL     1       7.423  -2.268   0.245  0.00  0.00    -0.086 HD
ENDROOT
BRANCH   1  16
ATOM     15  N   UNL     1       1.467  -1.187   0.269  0.00  0.00    -0.312 N 
ATOM     16  C   UNL     1       2.066  -0.356   1.145  0.00  0.00    +0.218 C 
ATOM     17  O   UNL     1       2.023   0.843   0.970  0.00  0.00    -0.275 OA
ATOM     18  H   UNL     1       1.501  -2.146   0.409  0.00  0.00    +0.149 HD
BRANCH  15  20
ATOM     19  C   UNL     1      -0.665  -0.266  -0.499  0.00  0.00    +0.028 C 
ATOM     20  C   UNL     1       0.765  -0.641  -0.895  0.00  0.00    +0.074 C 
BRANCH  20  21
ATOM     21  C   UNL     1       0.726  -1.692  -2.007  0.00  0.00    +0.060 C 
BRANCH  21  22
ATOM     22  C   UNL     1       2.129  -1.972  -2.482  0.00  0.00    -0.010 A 
ATOM     23  C   UNL     1       2.633  -1.300  -3.580  0.00  0.00    +0.006 A 
ATOM     24  C   UNL     1       3.920  -1.557  -4.016  0.00  0.00    +0.000 A 
ATOM     25  C   UNL     1       4.703  -2.485  -3.355  0.00  0.00    +0.003 A 
ATOM     26  C   UNL     1       4.200  -3.157  -2.257  0.00  0.00    +0.038 A 
ATOM     27  C   UNL     1       2.914  -2.898  -1.816  0.00  0.00    +0.127 A 
ATOM     28  F   UNL     1       2.423  -3.551  -0.740  0.00  0.00    -0.205 F 
ENDBRANCH  21  22
ENDBRANCH  20  21
ENDBRANCH  15  20
ENDBRANCH   1  16
BRANCH  11  29
ATOM     29  C   UNL     1       5.688  -0.021   6.021  0.00  0.00    +0.256 C 
ATOM     30  C   UNL     1       6.338   1.317   5.664  0.00  0.00    +0.062 C 
BRANCH  29  31
ATOM     31  O   UNL     1       5.704  -0.196   7.439  0.00  0.00    -0.480 OA
BRANCH  31  32
ATOM     32  C   UNL     1       6.835  -0.717   7.984  0.00  0.00    +0.122 A 
ATOM     33  C   UNL     1       6.878  -1.022   9.337  0.00  0.00    +0.045 A 
ATOM     34  C   UNL     1       8.028  -1.552   9.888  0.00  0.00    +0.004 A 
ATOM     35  C   UNL     1       9.136  -1.780   9.093  0.00  0.00    +0.000 A 
ATOM     36  C   UNL     1       9.096  -1.476   7.745  0.00  0.00    +0.004 A 
ATOM     37  C   UNL     1       7.946  -0.951   7.187  0.00  0.00    +0.045 A 
ENDBRANCH  31  32
ENDBRANCH  29  31
ENDBRANCH  11  29
TORSDOF 7
