REMARK  Name = ZINC40796853
REMARK  7 active torsions:
REMARK  status: ('A' for Active; 'I' for Inactive)
REMARK    1  A    between atoms: C_1  and  C_2
REMARK    2  A    between atoms: C_2  and  C_3
REMARK    3  A    between atoms: C_3  and  C_5
REMARK    4  A    between atoms: C_3  and  N_6
REMARK    5  A    between atoms: C_8  and  N_25
REMARK    6  A    between atoms: C_9  and  O_13
REMARK    7  A    between atoms: O_13  and  C_14
REMARK                            x       y       z     vdW  Elec       q    Type
REMARK                         _______ _______ _______ _____ _____    ______ ____
ROOT
ATOM      1  N   UNL     1      -2.106   0.037  -1.164  0.00  0.00    -0.325 N 
ATOM      2  C   UNL     1      -3.491   0.144  -1.209  0.00  0.00    +0.147 A 
ATOM      3  C   UNL     1      -4.143   0.413  -2.415  0.00  0.00    +0.128 A 
ATOM      4  C   UNL     1      -5.533   0.510  -2.404  0.00  0.00    +0.246 A 
ATOM      5  N   UNL     1      -6.182   0.345  -1.256  0.00  0.00    -0.199 NA
ATOM      6  C   UNL     1      -5.530   0.092  -0.139  0.00  0.00    +0.227 A 
ATOM      7  N   UNL     1      -4.216  -0.013  -0.106  0.00  0.00    -0.219 NA
ATOM      8  H   UNL     1      -1.584   0.154  -1.973  0.00  0.00    +0.148 HD
ENDROOT
BRANCH   3   9
ATOM      9  N   UNL     1      -3.418   0.582  -3.605  0.00  0.00    -0.351 N 
ATOM     10  H   UNL     1      -2.450   0.512  -3.598  0.00  0.00    +0.143 HD
ATOM     11  H   UNL     1      -3.884   0.768  -4.435  0.00  0.00    +0.143 HD
ENDBRANCH   3   9
BRANCH   1  12
ATOM     12  C   UNL     1      -1.435  -0.251   0.105  0.00  0.00    +0.068 C 
ATOM     13  C   UNL     1      -1.412  -1.763   0.339  0.00  0.00    +0.028 C 
BRANCH  12  15
ATOM     14  C   UNL     1      -0.023   1.804  -0.052  0.00  0.00    +0.005 C 
ATOM     15  C   UNL     1       0.000   0.278   0.056  0.00  0.00    +0.018 C 
ENDBRANCH  12  15
ENDBRANCH   1  12
BRANCH   4  16
ATOM     16  O   UNL     1      -6.214   0.771  -3.548  0.00  0.00    -0.434 OA
BRANCH  16  17
ATOM     17  C   UNL     1      -7.572   0.751  -3.501  0.00  0.00    +0.156 A 
ATOM     18  C   UNL     1      -8.260  -0.395  -3.832  0.00  0.00    +0.049 A 
ATOM     19  C   UNL     1      -9.650  -0.430  -3.788  0.00  0.00    +0.019 A 
ATOM     20  C   UNL     1     -10.368   0.667  -3.416  0.00  0.00    +0.027 A 
ATOM     21  C   UNL     1      -9.701   1.855  -3.071  0.00  0.00    +0.018 A 
ATOM     22  C   UNL     1      -8.286   1.902  -3.107  0.00  0.00    +0.114 A 
ATOM     23  N   UNL     1      -7.648   3.028  -2.775  0.00  0.00    -0.251 NA
ATOM     24  C   UNL     1      -8.306   4.101  -2.409  0.00  0.00    +0.111 A 
ATOM     25  C   UNL     1      -9.698   4.121  -2.346  0.00  0.00    +0.020 A 
ATOM     26  C   UNL     1     -10.412   3.007  -2.684  0.00  0.00    +0.013 A 
ATOM     27 BR   UNL     1     -12.257   0.593  -3.366  0.00  0.00    -0.050 Br
ENDBRANCH  16  17
ENDBRANCH   4  16
TORSDOF 5
