REMARK  Name = ZINC36019590
REMARK  6 active torsions:
REMARK  status: ('A' for Active; 'I' for Inactive)
REMARK    1  A    between atoms: C_1  and  C_2
REMARK    2  A    between atoms: C_5  and  N_8
REMARK    3  A    between atoms: N_14  and  C_17
REMARK    4  A    between atoms: C_20  and  N_31
REMARK    5  A    between atoms: C_22  and  C_23
REMARK    6  A    between atoms: C_32  and  C_34
REMARK                            x       y       z     vdW  Elec       q    Type
REMARK                         _______ _______ _______ _____ _____    ______ ____
ROOT
ATOM      1  C   UNL     1       1.687  -9.886   1.114  0.00  0.00    +0.042 A 
ATOM      2  C   UNL     1       2.895 -10.448   0.721  0.00  0.00    +0.026 A 
ATOM      3  C   UNL     1       3.108 -11.803   0.864  0.00  0.00    +0.025 A 
ATOM      4  C   UNL     1       2.116 -12.617   1.402  0.00  0.00    +0.034 A 
ATOM      5  C   UNL     1       0.907 -12.073   1.798  0.00  0.00    +0.038 A 
ATOM      6  C   UNL     1       0.684 -10.700   1.662  0.00  0.00    +0.060 A 
ENDROOT
BRANCH   1  13
ATOM      7  N   UNL     1      -0.874  -4.432  -0.030  0.00  0.00    -0.269 N 
ATOM      8  C   UNL     1      -0.203  -4.900   1.041  0.00  0.00    +0.307 C 
ATOM      9  O   UNL     1       0.216  -4.127   1.881  0.00  0.00    -0.252 OA
ATOM     10  N   UNL     1       0.004  -6.225   1.181  0.00  0.00    -0.282 N 
ATOM     11  C   UNL     1      -0.355  -7.156   0.102  0.00  0.00    +0.128 C 
ATOM     12  C   UNL     1       0.885  -7.981  -0.265  0.00  0.00    +0.124 C 
ATOM     13  N   UNL     1       1.473  -8.519   0.969  0.00  0.00    -0.326 N 
ATOM     14  C   UNL     1       1.831  -7.588   2.048  0.00  0.00    +0.124 C 
ATOM     15  C   UNL     1       0.597  -6.763   2.413  0.00  0.00    +0.128 C 
ATOM     16  H   UNL     1      -1.294  -5.052  -0.648  0.00  0.00    +0.156 HD
BRANCH   7  21
ATOM     17  C   UNL     1      -1.249   1.157  -0.924  0.00  0.00    +0.044 C 
ATOM     18  C   UNL     1      -1.149  -0.327  -0.687  0.00  0.00    -0.050 A 
ATOM     19  C   UNL     1      -1.148  -1.199  -1.760  0.00  0.00    +0.005 A 
ATOM     20  C   UNL     1      -1.057  -2.561  -1.546  0.00  0.00    +0.023 A 
ATOM     21  C   UNL     1      -0.967  -3.054  -0.251  0.00  0.00    +0.035 A 
ATOM     22  C   UNL     1      -0.968  -2.175   0.825  0.00  0.00    +0.023 A 
ATOM     23  C   UNL     1      -1.054  -0.815   0.604  0.00  0.00    +0.005 A 
ENDBRANCH   7  21
ENDBRANCH   1  13
BRANCH   6  24
ATOM     24  C   UNL     1      -0.599 -10.112   2.087  0.00  0.00    +0.248 C 
ATOM     25  O   UNL     1      -1.242  -9.432   1.311  0.00  0.00    -0.270 OA
ATOM     26  N   UNL     1      -1.059 -10.328   3.335  0.00  0.00    -0.297 N 
ATOM     27  C   UNL     1      -0.228 -11.021   4.330  0.00  0.00    +0.108 C 
ATOM     28  C   UNL     1      -0.134 -10.149   5.586  0.00  0.00    +0.019 C 
ATOM     29  C   UNL     1      -1.544  -9.808   6.073  0.00  0.00    +0.003 C 
ATOM     30  C   UNL     1      -2.282  -9.017   4.990  0.00  0.00    +0.019 C 
ATOM     31  C   UNL     1      -2.398  -9.870   3.729  0.00  0.00    +0.108 C 
ENDBRANCH   6  24
BRANCH   4  32
ATOM     32  N   UNL     1       2.342 -13.993   1.544  0.00  0.00    -0.285 N 
ATOM     33  C   UNL     1       1.379 -14.873   1.205  0.00  0.00    +0.220 C 
ATOM     34  O   UNL     1       0.367 -14.485   0.662  0.00  0.00    -0.275 OA
ATOM     35  H   UNL     1       3.192 -14.312   1.885  0.00  0.00    +0.155 HD
BRANCH  33  36
ATOM     36  C   UNL     1       1.560 -16.339   1.502  0.00  0.00    +0.075 C 
ATOM     37  C   UNL     1       2.770 -16.892   0.722  0.00  0.00    +0.013 C 
ATOM     38  C   UNL     1       2.335 -18.319   0.306  0.00  0.00    +0.001 C 
ATOM     39  C   UNL     1       0.835 -18.134  -0.033  0.00  0.00    +0.001 C 
ATOM     40  C   UNL     1       0.329 -17.130   1.022  0.00  0.00    +0.013 C 
ENDBRANCH  33  36
ENDBRANCH   4  32
TORSDOF 5
