REMARK  Name = ZINC59294295
REMARK  10 active torsions:
REMARK  status: ('A' for Active; 'I' for Inactive)
REMARK    1  A    between atoms: C_1  and  C_2
REMARK    2  A    between atoms: C_2  and  C_3
REMARK    3  A    between atoms: C_2  and  C_4
REMARK    4  A    between atoms: C_2  and  N_5
REMARK    5  A    between atoms: C_6  and  C_8
REMARK    6  A    between atoms: C_14  and  N_17
REMARK    7  A    between atoms: N_17  and  C_18
REMARK    8  A    between atoms: C_18  and  N_20
REMARK    9  A    between atoms: C_21  and  C_23
REMARK   10  A    between atoms: C_23  and  C_24
REMARK                            x       y       z     vdW  Elec       q    Type
REMARK                         _______ _______ _______ _____ _____    ______ ____
ROOT
ATOM      1  N   UNL     1       2.842  -3.067  -6.841  0.00  0.00    -0.296 N 
ATOM      2  H   UNL     1       1.978  -3.237  -6.434  0.00  0.00    +0.154 HD
ENDROOT
BRANCH   1   9
ATOM      3  C   UNL     1       4.326  -3.065  -2.196  0.00  0.00    +0.093 A 
ATOM      4  C   UNL     1       5.100  -2.079  -2.727  0.00  0.00    +0.068 A 
ATOM      5  C   UNL     1       4.980  -1.751  -4.090  0.00  0.00    +0.010 A 
ATOM      6  C   UNL     1       5.692  -0.764  -4.822  0.00  0.00    +0.010 A 
ATOM      7  C   UNL     1       5.455  -0.570  -6.145  0.00  0.00    +0.002 A 
ATOM      8  C   UNL     1       4.514  -1.323  -6.836  0.00  0.00    +0.024 A 
ATOM      9  C   UNL     1       3.795  -2.298  -6.163  0.00  0.00    +0.047 A 
ATOM     10  C   UNL     1       4.028  -2.505  -4.813  0.00  0.00    +0.043 A 
ATOM     11  S   UNL     1       3.365  -3.613  -3.596  0.00  0.00    -0.080 S 
ATOM     12 CL   UNL     1       6.234  -1.228  -1.724  0.00  0.00    -0.082 Cl
BRANCH   3  14
ATOM     13  N   UNL     1       3.455  -4.557  -0.474  0.00  0.00    -0.306 N 
ATOM     14  C   UNL     1       4.294  -3.559  -0.814  0.00  0.00    +0.253 C 
ATOM     15  O   UNL     1       5.025  -3.067   0.025  0.00  0.00    -0.270 OA
ATOM     16  H   UNL     1       2.872  -4.949  -1.143  0.00  0.00    +0.150 HD
BRANCH  13  18
ATOM     17  C   UNL     1       3.038  -3.908   1.846  0.00  0.00    +0.031 C 
ATOM     18  C   UNL     1       3.423  -5.051   0.905  0.00  0.00    +0.026 C 
ATOM     19  C   UNL     1       4.805  -5.583   1.288  0.00  0.00    +0.031 C 
ATOM     20  C   UNL     1       2.393  -6.176   1.020  0.00  0.00    +0.031 C 
ENDBRANCH  13  18
ENDBRANCH   3  14
ENDBRANCH   1   9
BRANCH   1  21
ATOM     21  C   UNL     1       3.124  -3.570  -8.059  0.00  0.00    +0.141 C 
ATOM     22  S   UNL     1       4.694  -3.388  -8.717  0.00  0.00    -0.018 S 
BRANCH  21  23
ATOM     23  N   UNL     1       2.171  -4.216  -8.758  0.00  0.00    -0.268 N 
ATOM     24  C   UNL     1       2.453  -4.719  -9.977  0.00  0.00    +0.219 C 
ATOM     25  O   UNL     1       3.565  -4.590 -10.443  0.00  0.00    -0.275 OA
ATOM     26  H   UNL     1       1.281  -4.319  -8.386  0.00  0.00    +0.156 HD
BRANCH  24  27
ATOM     27  C   UNL     1       1.387  -5.441 -10.759  0.00  0.00    +0.103 C 
BRANCH  27  28
ATOM     28  C   UNL     1       1.964  -5.908 -12.097  0.00  0.00    -0.020 C 
ATOM     29  C   UNL     1       2.449  -4.696 -12.894  0.00  0.00    +0.011 C 
ATOM     30  C   UNL     1       3.026  -5.162 -14.232  0.00  0.00    -0.010 C 
ATOM     31  C   UNL     1       1.944  -5.896 -15.027  0.00  0.00    +0.007 C 
ATOM     32  C   UNL     1       1.459  -7.108 -14.229  0.00  0.00    -0.010 C 
ATOM     33  C   UNL     1       0.882  -6.641 -12.891  0.00  0.00    +0.011 C 
ATOM     34  C   UNL     1       2.634  -8.055 -13.975  0.00  0.00    +0.007 C 
ATOM     35  C   UNL     1       3.717  -7.321 -13.180  0.00  0.00    -0.010 C 
ATOM     36  C   UNL     1       4.202  -6.109 -13.978  0.00  0.00    +0.007 C 
ATOM     37  C   UNL     1       3.139  -6.854 -11.843  0.00  0.00    +0.011 C 
ENDBRANCH  27  28
ENDBRANCH  24  27
ENDBRANCH  21  23
ENDBRANCH   1  21
TORSDOF 7
