REMARK  Name = ZINC03341412
REMARK  6 active torsions:
REMARK  status: ('A' for Active; 'I' for Inactive)
REMARK    1  A    between atoms: C_7  and  C_14
REMARK    2  A    between atoms: C_14  and  O_16
REMARK    3  A    between atoms: O_16  and  C_17
REMARK    4  A    between atoms: C_17  and  C_18
REMARK    5  A    between atoms: N_20  and  N_21
REMARK    6  A    between atoms: C_22  and  C_24
REMARK                            x       y       z     vdW  Elec       q    Type
REMARK                         _______ _______ _______ _____ _____    ______ ____
ROOT
ATOM      1  O   UNL     1       4.780   0.868  -0.039  0.00  0.00    -0.452 OA
ENDROOT
BRANCH   1   2
ATOM      2  C   UNL     1       6.018   1.399  -0.048  0.00  0.00    +0.341 C 
ATOM      3  O   UNL     1       6.160   2.606  -0.043  0.00  0.00    -0.245 OA
BRANCH   2  10
ATOM      4  C   UNL     1       7.827   0.042  -3.674  0.00  0.00    +0.001 A 
ATOM      5  C   UNL     1       8.942  -0.794  -3.639  0.00  0.00    +0.002 A 
ATOM      6  C   UNL     1       9.482  -1.195  -2.456  0.00  0.00    +0.028 A 
ATOM      7  C   UNL     1       8.910  -0.762  -1.245  0.00  0.00    +0.072 A 
ATOM      8  C   UNL     1       7.772   0.080  -1.286  0.00  0.00    +0.015 A 
ATOM      9  C   UNL     1       7.246   0.479  -2.522  0.00  0.00    +0.011 A 
ATOM     10  C   UNL     1       7.202   0.515  -0.064  0.00  0.00    +0.073 A 
ATOM     11  C   UNL     1       7.787   0.080   1.120  0.00  0.00    -0.012 A 
ATOM     12  C   UNL     1       8.904  -0.752   1.075  0.00  0.00    +0.046 A 
ATOM     13  N   UNL     1       9.419  -1.139  -0.072  0.00  0.00    -0.251 NA
ATOM     14  C   UNL     1       9.344  -1.077   2.490  0.00  0.00    +0.056 C 
ATOM     15  C   UNL     1       8.134  -0.728   3.382  0.00  0.00    +0.011 C 
ATOM     16  C   UNL     1       7.413   0.360   2.558  0.00  0.00    +0.038 C 
ENDBRANCH   2  10
ENDBRANCH   1   2
BRANCH   1  17
ATOM     17  C   UNL     1       3.663   1.796  -0.023  0.00  0.00    +0.329 C 
BRANCH  17  18
ATOM     18  C   UNL     1       2.369   1.025  -0.015  0.00  0.00    +0.267 C 
ATOM     19  O   UNL     1       2.385  -0.188  -0.022  0.00  0.00    -0.271 OA
ATOM     20  N   UNL     1       1.193   1.683  -0.000  0.00  0.00    -0.231 N 
ATOM     21  H   UNL     1       1.179   2.653   0.005  0.00  0.00    +0.173 HD
BRANCH  20  22
ATOM     22  N   UNL     1      -0.011   0.966   0.007  0.00  0.00    -0.230 N 
ATOM     23  C   UNL     1      -1.187   1.624   0.017  0.00  0.00    +0.260 C 
ATOM     24  O   UNL     1      -1.204   2.839   0.023  0.00  0.00    -0.269 OA
ATOM     25  H   UNL     1       0.002  -0.004   0.002  0.00  0.00    +0.173 HD
BRANCH  23  26
ATOM     26  C   UNL     1      -2.457   0.868   0.018  0.00  0.00    +0.038 A 
ATOM     27  C   UNL     1      -2.442  -0.528   0.005  0.00  0.00    +0.014 A 
ATOM     28  C   UNL     1      -3.630  -1.229   0.012  0.00  0.00    +0.016 A 
ATOM     29  C   UNL     1      -4.837  -0.550   0.021  0.00  0.00    +0.018 A 
ATOM     30  C   UNL     1      -4.859   0.835   0.029  0.00  0.00    +0.016 A 
ATOM     31  C   UNL     1      -3.677   1.546   0.028  0.00  0.00    +0.014 A 
ATOM     32 BR   UNL     1      -6.461  -1.517   0.025  0.00  0.00    -0.050 Br
ENDBRANCH  23  26
ENDBRANCH  20  22
ENDBRANCH  17  18
ENDBRANCH   1  17
TORSDOF 6
