REMARK  Name = ZINC22879829
REMARK  7 active torsions:
REMARK  status: ('A' for Active; 'I' for Inactive)
REMARK    1  A    between atoms: C_3  and  C_6
REMARK    2  A    between atoms: N_8  and  C_9
REMARK    3  A    between atoms: C_9  and  C_10
REMARK    4  A    between atoms: C_16  and  C_18
REMARK    5  A    between atoms: C_18  and  C_19
REMARK    6  A    between atoms: C_21  and  C_29
REMARK    7  A    between atoms: C_23  and  C_25
REMARK                            x       y       z     vdW  Elec       q    Type
REMARK                         _______ _______ _______ _____ _____    ______ ____
ROOT
ATOM      1  C   UNL     1       5.880   2.950  -0.038  0.00  0.00    +0.236 C 
ATOM      2  O   UNL     1       5.428   4.076  -0.028  0.00  0.00    -0.274 OA
ATOM      3  N   UNL     1       7.214   2.759  -0.051  0.00  0.00    -0.263 N 
ATOM      4  C   UNL     1       8.072   3.852  -0.054  0.00  0.00    +0.165 A 
ATOM      5  N   UNL     1       7.778   5.137  -0.044  0.00  0.00    -0.233 NA
ATOM      6  C   UNL     1       8.725   6.055  -0.048  0.00  0.00    +0.124 A 
ATOM      7  C   UNL     1      10.018   5.649  -0.063  0.00  0.00    +0.015 A 
ATOM      8  S   UNL     1       9.809   3.875  -0.063  0.00  0.00    -0.057 S 
ATOM      9  H   UNL     1       7.623   1.738  -0.060  0.00  0.00    +0.157 HD
ENDROOT
BRANCH   1  10
ATOM     10  C   UNL     1       4.948   1.766  -0.035  0.00  0.00    +0.200 C 
BRANCH  10  13
ATOM     11  C   UNL     1       2.548   1.345  -0.015  0.00  0.00    +0.251 C 
ATOM     12  O   UNL     1       2.787   0.152  -0.023  0.00  0.00    -0.270 OA
ATOM     13  N   UNL     1       3.561   2.235  -0.020  0.00  0.00    -0.302 N 
ATOM     14  H   UNL     1       3.345   3.314  -0.012  0.00  0.00    +0.150 HD
BRANCH  11  17
ATOM     15  C   UNL     1      -1.193   1.776   0.017  0.00  0.00    +0.008 A 
ATOM     16  C   UNL     1      -0.013   1.076   0.008  0.00  0.00    +0.021 A 
ATOM     17  C   UNL     1       1.160   1.815   0.001  0.00  0.00    +0.074 A 
ATOM     18  S   UNL     1       0.539   3.487   0.016  0.00  0.00    -0.092 S 
ATOM     19  C   UNL     1      -1.159   3.135   0.030  0.00  0.00    +0.046 A 
ENDBRANCH  11  17
ENDBRANCH  10  13
ENDBRANCH   1  10
BRANCH   7  20
ATOM     20  C   UNL     1      11.283   6.469  -0.070  0.00  0.00    +0.079 C 
BRANCH  20  21
ATOM     21  C   UNL     1      11.718   6.733   1.348  0.00  0.00    -0.041 A 
ATOM     22  C   UNL     1      11.271   7.862   2.009  0.00  0.00    +0.016 A 
ATOM     23  C   UNL     1      11.667   8.103   3.311  0.00  0.00    +0.056 A 
ATOM     24  C   UNL     1      12.516   7.219   3.950  0.00  0.00    +0.024 A 
ATOM     25  C   UNL     1      12.967   6.093   3.288  0.00  0.00    +0.056 A 
ATOM     26  C   UNL     1      12.568   5.850   1.986  0.00  0.00    +0.016 A 
BRANCH  25  27
ATOM     27  C   UNL     1      13.893   5.129   3.984  0.00  0.00    +0.417 C 
ATOM     28  F   UNL     1      15.220   5.509   3.754  0.00  0.00    -0.166 F 
ATOM     29  F   UNL     1      13.636   5.145   5.359  0.00  0.00    -0.166 F 
ATOM     30  F   UNL     1      13.685   3.839   3.485  0.00  0.00    -0.166 F 
ENDBRANCH  25  27
BRANCH  23  31
ATOM     31  C   UNL     1      11.176   9.331   4.034  0.00  0.00    +0.417 C 
ATOM     32  F   UNL     1      11.711   9.358   5.326  0.00  0.00    -0.166 F 
ATOM     33  F   UNL     1      11.581  10.475   3.337  0.00  0.00    -0.166 F 
ATOM     34  F   UNL     1       9.779   9.301   4.108  0.00  0.00    -0.166 F 
ENDBRANCH  23  31
ENDBRANCH  20  21
ENDBRANCH   7  20
TORSDOF 7
