REMARK  Name = ZINC02984944
REMARK  9 active torsions:
REMARK  status: ('A' for Active; 'I' for Inactive)
REMARK    1  A    between atoms: C_1  and  C_2
REMARK    2  A    between atoms: C_2  and  C_3
REMARK    3  A    between atoms: C_2  and  C_4
REMARK    4  A    between atoms: C_2  and  C_5
REMARK    5  A    between atoms: C_12  and  N_27
REMARK    6  A    between atoms: C_13  and  C_14
REMARK    7  A    between atoms: N_16  and  C_17
REMARK    8  A    between atoms: C_22  and  C_23
REMARK    9  A    between atoms: C_28  and  C_30
REMARK                            x       y       z     vdW  Elec       q    Type
REMARK                         _______ _______ _______ _____ _____    ______ ____
ROOT
ATOM      1  C   UNL     1      -6.087  -2.221   3.138  0.00  0.00    -0.000 C 
ATOM      2  C   UNL     1      -4.570  -2.310   3.330  0.00  0.00    +0.009 C 
ATOM      3  C   UNL     1      -3.870  -1.310   2.408  0.00  0.00    +0.037 C 
ATOM      4  C   UNL     1      -4.371  -1.521   0.985  0.00  0.00    -0.023 A 
ATOM      5  C   UNL     1      -5.522  -2.186   0.745  0.00  0.00    -0.004 A 
ATOM      6  S   UNL     1      -5.688  -2.181  -1.018  0.00  0.00    -0.077 S 
ATOM      7  C   UNL     1      -4.253  -1.303  -1.432  0.00  0.00    +0.085 A 
ATOM      8  C   UNL     1      -3.676  -1.041  -0.197  0.00  0.00    +0.069 A 
ATOM      9  C   UNL     1      -6.445  -2.791   1.758  0.00  0.00    +0.046 C 
ENDROOT
BRANCH   1  11
ATOM     10  C   UNL     1      -6.418  -2.476   5.601  0.00  0.00    +0.011 C 
ATOM     11  C   UNL     1      -6.790  -3.035   4.227  0.00  0.00    -0.035 C 
ATOM     12  C   UNL     1      -6.350  -4.497   4.135  0.00  0.00    +0.011 C 
ATOM     13  C   UNL     1      -8.305  -2.945   4.032  0.00  0.00    +0.011 C 
ENDBRANCH   1  11
BRANCH   8  14
ATOM     14  C   UNL     1      -2.414  -0.302  -0.089  0.00  0.00    +0.251 C 
ATOM     15  O   UNL     1      -1.355  -0.902  -0.097  0.00  0.00    -0.270 OA
ATOM     16  N   UNL     1      -2.427   1.041   0.020  0.00  0.00    -0.281 N 
ATOM     17  H   UNL     1      -3.271   1.514   0.092  0.00  0.00    +0.155 HD
BRANCH  16  18
ATOM     18  C   UNL     1      -1.224   1.754   0.028  0.00  0.00    +0.045 A 
ATOM     19  C   UNL     1      -0.095   1.207   0.625  0.00  0.00    +0.024 A 
ATOM     20  C   UNL     1       1.093   1.911   0.627  0.00  0.00    +0.002 A 
ATOM     21  C   UNL     1       1.158   3.161   0.039  0.00  0.00    +0.001 A 
ATOM     22  C   UNL     1       0.035   3.710  -0.552  0.00  0.00    +0.014 A 
ATOM     23  C   UNL     1      -1.156   3.012  -0.557  0.00  0.00    +0.076 A 
BRANCH  23  24
ATOM     24  C   UNL     1      -2.380   3.611  -1.201  0.00  0.00    +0.419 C 
ATOM     25  F   UNL     1      -2.063   4.871  -1.721  0.00  0.00    -0.166 F 
ATOM     26  F   UNL     1      -2.819   2.777  -2.235  0.00  0.00    -0.166 F 
ATOM     27  F   UNL     1      -3.393   3.742  -0.245  0.00  0.00    -0.166 F 
ENDBRANCH  23  24
ENDBRANCH  16  18
ENDBRANCH   8  14
BRANCH   7  28
ATOM     28  N   UNL     1      -3.793  -0.949  -2.690  0.00  0.00    -0.273 N 
ATOM     29  C   UNL     1      -4.497  -1.295  -3.786  0.00  0.00    +0.284 C 
ATOM     30  O   UNL     1      -5.536  -1.917  -3.671  0.00  0.00    -0.266 OA
ATOM     31  H   UNL     1      -2.965  -0.453  -2.781  0.00  0.00    +0.156 HD
BRANCH  29  32
ATOM     32  C   UNL     1      -4.010  -0.920  -5.117  0.00  0.00    +0.189 A 
ATOM     33  C   UNL     1      -4.619  -1.210  -6.305  0.00  0.00    +0.054 A 
ATOM     34  C   UNL     1      -3.813  -0.662  -7.315  0.00  0.00    +0.042 A 
ATOM     35  C   UNL     1      -2.757  -0.077  -6.708  0.00  0.00    +0.196 A 
ATOM     36  O   UNL     1      -2.879  -0.235  -5.384  0.00  0.00    -0.458 OA
ENDBRANCH  29  32
ENDBRANCH   7  28
TORSDOF 6
