REMARK  Name = ZINC08299339
REMARK  10 active torsions:
REMARK  status: ('A' for Active; 'I' for Inactive)
REMARK    1  A    between atoms: C_1  and  C_2
REMARK    2  A    between atoms: C_2  and  C_3
REMARK    3  A    between atoms: C_2  and  C_4
REMARK    4  A    between atoms: C_2  and  C_5
REMARK    5  A    between atoms: C_8  and  C_11
REMARK    6  A    between atoms: N_13  and  C_16
REMARK    7  A    between atoms: C_16  and  C_17
REMARK    8  A    between atoms: C_25  and  C_27
REMARK    9  A    between atoms: N_29  and  C_30
REMARK   10  A    between atoms: C_30  and  C_31
REMARK                            x       y       z     vdW  Elec       q    Type
REMARK                         _______ _______ _______ _____ _____    ______ ____
ROOT
ATOM      1  C   UNL     1      -2.655   9.373  -3.014  0.00  0.00    -0.046 C 
ATOM      2  C   UNL     1      -1.439   9.944  -2.281  0.00  0.00    -0.010 C 
ATOM      3  C   UNL     1      -0.162   9.483  -3.000  0.00  0.00    -0.004 C 
ATOM      4  C   UNL     1      -0.213   9.976  -4.451  0.00  0.00    -0.015 C 
ATOM      5  C   UNL     1      -1.467   9.404  -5.124  0.00  0.00    -0.078 C 
ATOM      6  C   UNL     1      -1.387   7.433  -3.718  0.00  0.00    -0.065 C 
ATOM      7  C   UNL     1      -0.134   7.950  -3.005  0.00  0.00    +0.061 C 
ATOM      8  N   UNL     1      -2.225   8.562  -4.174  0.00  0.00    +0.383 N 
ATOM      9  H   UNL     1      -3.057   8.190  -4.648  0.00  0.00    -0.081 HD
ENDROOT
BRANCH   7  10
ATOM     10  C   UNL     1      -0.114   7.440  -1.587  0.00  0.00    +0.215 C 
ATOM     11  O   UNL     1      -0.116   8.224  -0.661  0.00  0.00    -0.276 OA
ATOM     12  N   UNL     1      -0.094   6.114  -1.347  0.00  0.00    -0.311 N 
ATOM     13  H   UNL     1      -0.092   5.487  -2.088  0.00  0.00    +0.149 HD
BRANCH  12  14
ATOM     14  C   UNL     1      -0.074   5.619   0.032  0.00  0.00    +0.139 C 
BRANCH  14  15
ATOM     15  C   UNL     1      -0.054   4.112   0.024  0.00  0.00    -0.030 A 
ATOM     16  C   UNL     1       1.153   3.438   0.009  0.00  0.00    +0.008 A 
ATOM     17  C   UNL     1       1.173   2.056   0.002  0.00  0.00    +0.038 A 
ATOM     18  C   UNL     1      -0.016   1.347   0.009  0.00  0.00    +0.123 A 
ATOM     19  C   UNL     1      -1.224   2.023   0.019  0.00  0.00    +0.038 A 
ATOM     20  C   UNL     1      -1.242   3.405   0.032  0.00  0.00    +0.008 A 
ATOM     21  F   UNL     1       0.002  -0.004   0.002  0.00  0.00    -0.205 F 
ENDBRANCH  14  15
ENDBRANCH  12  14
ENDBRANCH   7  10
BRANCH   1  22
ATOM     22  C   UNL     1      -3.458   8.487  -2.059  0.00  0.00    +0.130 C 
BRANCH  22  25
ATOM     23  C   UNL     1      -6.258   6.788  -3.546  0.00  0.00    +0.113 A 
ATOM     24  C   UNL     1      -5.068   6.747  -2.877  0.00  0.00    +0.138 A 
ATOM     25  N   UNL     1      -4.682   8.034  -2.725  0.00  0.00    -0.253 N 
ATOM     26  N   UNL     1      -5.567   8.793  -3.268  0.00  0.00    -0.065 NA
ATOM     27  N   UNL     1      -6.520   8.088  -3.767  0.00  0.00    -0.130 NA
BRANCH  23  31
ATOM     28  C   UNL     1      -8.646   3.467  -4.710  0.00  0.00    -0.042 A 
ATOM     29  C   UNL     1      -9.058   4.752  -5.014  0.00  0.00    +0.005 A 
ATOM     30  C   UNL     1      -8.286   5.833  -4.638  0.00  0.00    +0.010 A 
ATOM     31  C   UNL     1      -7.091   5.629  -3.952  0.00  0.00    +0.004 A 
ATOM     32  C   UNL     1      -6.679   4.332  -3.654  0.00  0.00    +0.010 A 
ATOM     33  C   UNL     1      -7.461   3.258  -4.029  0.00  0.00    +0.005 A 
BRANCH  28  35
ATOM     34  C   UNL     1      -9.646   2.281  -6.644  0.00  0.00    +0.015 C 
ATOM     35  C   UNL     1      -9.493   2.291  -5.122  0.00  0.00    -0.013 C 
ATOM     36  C   UNL     1      -8.819   0.994  -4.669  0.00  0.00    +0.015 C 
ATOM     37  C   UNL     1     -10.873   2.402  -4.471  0.00  0.00    +0.015 C 
ENDBRANCH  28  35
ENDBRANCH  23  31
ENDBRANCH  22  25
ENDBRANCH   1  22
TORSDOF 7
