REMARK  Name = ZINC09866533
REMARK  7 active torsions:
REMARK  status: ('A' for Active; 'I' for Inactive)
REMARK    1  A    between atoms: C_1  and  C_2
REMARK    2  A    between atoms: C_2  and  C_27
REMARK    3  A    between atoms: N_5  and  C_9
REMARK    4  A    between atoms: C_9  and  C_10
REMARK    5  A    between atoms: N_12  and  C_13
REMARK    6  A    between atoms: C_13  and  C_15
REMARK    7  A    between atoms: C_13  and  C_22
REMARK                            x       y       z     vdW  Elec       q    Type
REMARK                         _______ _______ _______ _____ _____    ______ ____
ROOT
ATOM      1  C   UNL     1       4.687  -4.761  -1.958  0.00  0.00    +0.047 C 
ATOM      2  C   UNL     1       4.173  -3.337  -2.185  0.00  0.00    +0.135 C 
ATOM      3  C   UNL     1       3.344  -2.875  -1.003  0.00  0.00    +0.251 C 
ATOM      4  O   UNL     1       3.712  -2.746   0.144  0.00  0.00    -0.272 OA
ATOM      5  N   UNL     1       2.112  -2.637  -1.494  0.00  0.00    -0.215 N 
ATOM      6  C   UNL     1       2.046  -2.886  -2.807  0.00  0.00    +0.310 C 
ATOM      7  O   UNL     1       1.038  -2.749  -3.471  0.00  0.00    -0.252 OA
ATOM      8  N   UNL     1       3.223  -3.303  -3.310  0.00  0.00    -0.281 N 
ATOM      9  H   UNL     1       3.408  -3.537  -4.232  0.00  0.00    +0.152 HD
ENDROOT
BRANCH   2  10
ATOM     10  C   UNL     1       5.322  -2.393  -2.428  0.00  0.00    -0.012 A 
ATOM     11  C   UNL     1       5.883  -1.702  -1.370  0.00  0.00    +0.010 A 
ATOM     12  C   UNL     1       6.938  -0.836  -1.587  0.00  0.00    +0.050 A 
ATOM     13  C   UNL     1       7.436  -0.657  -2.868  0.00  0.00    +0.166 A 
ATOM     14  C   UNL     1       6.871  -1.353  -3.934  0.00  0.00    +0.167 A 
ATOM     15  C   UNL     1       5.817  -2.224  -3.707  0.00  0.00    +0.055 A 
ATOM     16  O   UNL     1       7.530  -1.009  -5.078  0.00  0.00    -0.453 OA
ATOM     17  C   UNL     1       8.233   0.208  -4.766  0.00  0.00    +0.466 C 
ATOM     18  O   UNL     1       8.449   0.123  -3.345  0.00  0.00    -0.453 OA
ENDBRANCH   2  10
BRANCH   5  19
ATOM     19  C   UNL     1       0.981  -2.168  -0.689  0.00  0.00    +0.213 C 
BRANCH  19  20
ATOM     20  C   UNL     1       0.961  -0.661  -0.680  0.00  0.00    +0.232 C 
ATOM     21  O   UNL     1       1.807  -0.040  -1.287  0.00  0.00    -0.274 OA
ATOM     22  N   UNL     1       0.002  -0.004   0.002  0.00  0.00    -0.303 N 
ATOM     23  H   UNL     1      -0.675  -0.501   0.488  0.00  0.00    +0.150 HD
BRANCH  22  24
ATOM     24  C   UNL     1      -0.018   1.461   0.010  0.00  0.00    +0.140 C 
BRANCH  24  25
ATOM     25  C   UNL     1      -0.723   1.947   1.250  0.00  0.00    -0.022 A 
ATOM     26  C   UNL     1      -1.859   1.298   1.698  0.00  0.00    +0.008 A 
ATOM     27  C   UNL     1      -2.503   1.740   2.837  0.00  0.00    +0.038 A 
ATOM     28  C   UNL     1      -2.018   2.839   3.525  0.00  0.00    +0.123 A 
ATOM     29  C   UNL     1      -0.884   3.492   3.072  0.00  0.00    +0.038 A 
ATOM     30  C   UNL     1      -0.238   3.045   1.935  0.00  0.00    +0.008 A 
ATOM     31  F   UNL     1      -2.651   3.275   4.636  0.00  0.00    -0.205 F 
ENDBRANCH  24  25
BRANCH  24  32
ATOM     32  C   UNL     1      -0.747   1.960  -1.211  0.00  0.00    +0.014 A 
ATOM     33  C   UNL     1      -0.450   3.014  -2.011  0.00  0.00    +0.013 A 
ATOM     34  C   UNL     1      -1.270   3.288  -3.089  0.00  0.00    +0.008 A 
ATOM     35  C   UNL     1      -2.346   2.495  -3.315  0.00  0.00    +0.045 A 
ATOM     36  S   UNL     1      -2.220   1.313  -1.984  0.00  0.00    -0.099 S 
ENDBRANCH  24  32
ENDBRANCH  22  24
ENDBRANCH  19  20
ENDBRANCH   5  19
TORSDOF 6
