REMARK  Name = ZINC16588674
REMARK  12 active torsions:
REMARK  status: ('A' for Active; 'I' for Inactive)
REMARK    1  A    between atoms: C_1  and  C_2
REMARK    2  A    between atoms: C_2  and  N_60
REMARK    3  A    between atoms: C_3  and  C_4
REMARK    4  A    between atoms: C_3  and  N_60
REMARK    5  A    between atoms: N_6  and  C_7
REMARK    6  A    between atoms: C_12  and  C_13
REMARK    7  A    between atoms: C_17  and  C_18
REMARK    8  A    between atoms: C_17  and  N_60
REMARK    9  A    between atoms: N_20  and  C_21
REMARK   10  A    between atoms: C_22  and  C_30
REMARK   11  A    between atoms: C_30  and  O_32
REMARK   12  A    between atoms: O_32  and  C_33
REMARK                            x       y       z     vdW  Elec       q    Type
REMARK                         _______ _______ _______ _____ _____    ______ ____
ROOT
ATOM      1  N   UNL     1      -0.070  -0.311   0.199  0.00  0.00    +0.391 N 
ATOM      2  H   UNL     1      -1.029  -0.642   0.358  0.00  0.00    -0.080 HD
ENDROOT
BRANCH   1   4
ATOM      3  C   UNL     1       2.186  -0.165   1.198  0.00  0.00    -0.017 C 
ATOM      4  C   UNL     1       0.788  -0.776   1.309  0.00  0.00    -0.081 C 
ENDBRANCH   1   4
BRANCH   1   5
ATOM      5  C   UNL     1       0.421  -0.858  -1.083  0.00  0.00    +0.020 C 
BRANCH   5   6
ATOM      6  C   UNL     1       0.208  -2.350  -1.088  0.00  0.00    +0.201 C 
ATOM      7  O   UNL     1      -0.281  -2.896  -0.122  0.00  0.00    -0.278 OA
ATOM      8  N   UNL     1       0.563  -3.078  -2.165  0.00  0.00    -0.287 N 
ATOM      9  H   UNL     1       0.898  -2.635  -2.960  0.00  0.00    +0.155 HD
BRANCH   8  10
ATOM     10  C   UNL     1       0.447  -4.472  -2.137  0.00  0.00    +0.045 A 
ATOM     11  C   UNL     1      -0.594  -5.070  -1.438  0.00  0.00    +0.024 A 
ATOM     12  C   UNL     1      -0.709  -6.446  -1.416  0.00  0.00    +0.002 A 
ATOM     13  C   UNL     1       0.218  -7.229  -2.080  0.00  0.00    +0.001 A 
ATOM     14  C   UNL     1       1.258  -6.637  -2.772  0.00  0.00    +0.014 A 
ATOM     15  C   UNL     1       1.376  -5.261  -2.802  0.00  0.00    +0.076 A 
BRANCH  15  16
ATOM     16  C   UNL     1       2.511  -4.617  -3.556  0.00  0.00    +0.419 C 
ATOM     17  F   UNL     1       3.307  -5.610  -4.138  0.00  0.00    -0.166 F 
ATOM     18  F   UNL     1       1.995  -3.787  -4.556  0.00  0.00    -0.166 F 
ATOM     19  F   UNL     1       3.285  -3.857  -2.672  0.00  0.00    -0.166 F 
ENDBRANCH  15  16
ENDBRANCH   8  10
ENDBRANCH   5   6
ENDBRANCH   1   5
BRANCH   1  20
ATOM     20  C   UNL     1      -0.075   1.166   0.149  0.00  0.00    +0.020 C 
BRANCH  20  21
ATOM     21  C   UNL     1      -0.905   1.687   1.294  0.00  0.00    +0.201 C 
ATOM     22  O   UNL     1      -1.353   0.918   2.117  0.00  0.00    -0.278 OA
ATOM     23  N   UNL     1      -1.151   3.008   1.401  0.00  0.00    -0.281 N 
ATOM     24  H   UNL     1      -0.793   3.623   0.743  0.00  0.00    +0.155 HD
BRANCH  23  25
ATOM     25  C   UNL     1      -1.916   3.487   2.454  0.00  0.00    +0.086 A 
ATOM     26  C   UNL     1      -2.270   4.800   2.736  0.00  0.00    +0.091 A 
ATOM     27  C   UNL     1      -3.091   5.035   3.912  0.00  0.00    -0.021 A 
ATOM     28  C   UNL     1      -3.415   3.931   4.618  0.00  0.00    -0.004 A 
ATOM     29  S   UNL     1      -2.655   2.593   3.741  0.00  0.00    -0.077 S 
ATOM     30  C   UNL     1      -4.238   3.867   5.868  0.00  0.00    +0.043 C 
ATOM     31  C   UNL     1      -4.352   5.285   6.445  0.00  0.00    +0.005 C 
ATOM     32  C   UNL     1      -4.740   6.247   5.317  0.00  0.00    +0.005 C 
ATOM     33  C   UNL     1      -3.567   6.415   4.351  0.00  0.00    +0.037 C 
BRANCH  26  34
ATOM     34  C   UNL     1      -1.835   5.904   1.879  0.00  0.00    +0.342 C 
ATOM     35  O   UNL     1      -2.526   6.254   0.940  0.00  0.00    -0.245 OA
BRANCH  34  36
ATOM     36  O   UNL     1      -0.669   6.535   2.130  0.00  0.00    -0.464 OA
ATOM     37  C   UNL     1      -0.302   7.621   1.239  0.00  0.00    +0.280 C 
ENDBRANCH  34  36
ENDBRANCH  26  34
ENDBRANCH  23  25
ENDBRANCH  20  21
ENDBRANCH   1  20
TORSDOF 10
