REMARK  Name = ZINC32169451
REMARK  4 active torsions:
REMARK  status: ('A' for Active; 'I' for Inactive)
REMARK    1  A    between atoms: C_6  and  N_7
REMARK    2  A    between atoms: C_11  and  C_13
REMARK    3  A    between atoms: C_13  and  O_14
REMARK    4  A    between atoms: O_14  and  C_15
REMARK                            x       y       z     vdW  Elec       q    Type
REMARK                         _______ _______ _______ _____ _____    ______ ____
ROOT
ATOM      1  N   UNL     1       5.011  -0.649   2.229  0.00  0.00    -0.269 N 
ATOM      2  C   UNL     1       5.391  -1.784   2.849  0.00  0.00    +0.310 C 
ATOM      3  O   UNL     1       4.655  -2.751   2.852  0.00  0.00    -0.252 OA
ATOM      4  N   UNL     1       6.588  -1.845   3.467  0.00  0.00    -0.237 N 
ATOM      5  C   UNL     1       6.968  -2.980   4.087  0.00  0.00    +0.258 C 
ATOM      6  O   UNL     1       6.234  -3.945   4.090  0.00  0.00    -0.272 OA
ATOM      7  H   UNL     1       5.707   0.200   2.160  0.00  0.00    +0.156 HD
ATOM      8  H   UNL     1       7.254  -0.970   3.464  0.00  0.00    +0.159 HD
ENDROOT
BRANCH   1  14
ATOM      9  C   UNL     1       3.052   0.659   1.696  0.00  0.00    +0.027 A 
ATOM     10  C   UNL     1       1.788   0.757   1.146  0.00  0.00    +0.051 A 
ATOM     11  C   UNL     1       1.194  -0.352   0.568  0.00  0.00    +0.166 A 
ATOM     12  C   UNL     1       1.871  -1.569   0.541  0.00  0.00    +0.168 A 
ATOM     13  C   UNL     1       3.138  -1.666   1.092  0.00  0.00    +0.073 A 
ATOM     14  C   UNL     1       3.730  -0.551   1.671  0.00  0.00    +0.038 A 
ATOM     15  O   UNL     1       1.080  -2.495  -0.075  0.00  0.00    -0.453 OA
ATOM     16  C   UNL     1       0.085  -1.738  -0.788  0.00  0.00    +0.466 C 
ATOM     17  O   UNL     1      -0.022  -0.517  -0.032  0.00  0.00    -0.453 OA
ENDBRANCH   1  14
BRANCH   5  18
ATOM     18  C   UNL     1       8.306  -3.049   4.777  0.00  0.00    +0.325 C 
BRANCH  18  19
ATOM     19  O   UNL     1       8.477  -4.345   5.356  0.00  0.00    -0.482 OA
BRANCH  19  20
ATOM     20  C   UNL     1       9.640  -4.575   6.021  0.00  0.00    +0.135 A 
ATOM     21  C   UNL     1      10.597  -3.574   6.114  0.00  0.00    +0.048 A 
ATOM     22  C   UNL     1      11.778  -3.810   6.790  0.00  0.00    +0.019 A 
ATOM     23  C   UNL     1      12.008  -5.043   7.374  0.00  0.00    +0.019 A 
ATOM     24  C   UNL     1      11.056  -6.043   7.282  0.00  0.00    +0.034 A 
ATOM     25  C   UNL     1       9.870  -5.809   6.611  0.00  0.00    +0.061 A 
ATOM     26 BR   UNL     1       8.566  -7.173   6.493  0.00  0.00    -0.046 Br
ATOM     27 BR   UNL     1      13.626  -5.363   8.299  0.00  0.00    -0.050 Br
ENDBRANCH  19  20
ENDBRANCH  18  19
ENDBRANCH   5  18
TORSDOF 4
