REMARK  Name = ZINC00746682
REMARK  10 active torsions:
REMARK  status: ('A' for Active; 'I' for Inactive)
REMARK    1  A    between atoms: C_1  and  C_2
REMARK    2  A    between atoms: C_2  and  C_4
REMARK    3  A    between atoms: C_2  and  N_10
REMARK    4  A    between atoms: C_11  and  C_13
REMARK    5  A    between atoms: C_15  and  N_33
REMARK    6  A    between atoms: C_18  and  N_19
REMARK    7  A    between atoms: N_22  and  C_25
REMARK    8  A    between atoms: C_30  and  O_31
REMARK    9  A    between atoms: O_31  and  C_32
REMARK   10  A    between atoms: C_34  and  C_36
REMARK                            x       y       z     vdW  Elec       q    Type
REMARK                         _______ _______ _______ _____ _____    ______ ____
ROOT
ATOM      1  C   UNL     1      -0.053  -0.408  -0.009  0.00  0.00    +0.059 A 
ATOM      2  C   UNL     1       1.206  -1.014   0.019  0.00  0.00    +0.038 A 
ATOM      3  C   UNL     1       2.345  -0.241  -0.111  0.00  0.00    +0.034 A 
ATOM      4  C   UNL     1       2.241   1.137  -0.271  0.00  0.00    +0.025 A 
ATOM      5  C   UNL     1       1.004   1.744  -0.300  0.00  0.00    +0.026 A 
ATOM      6  C   UNL     1      -0.150   0.982  -0.171  0.00  0.00    +0.042 A 
ENDROOT
BRANCH   6   7
ATOM      7  N   UNL     1      -1.399   1.594  -0.206  0.00  0.00    -0.326 N 
ATOM      8  C   UNL     1      -1.641   2.221  -1.513  0.00  0.00    +0.124 C 
ATOM      9  C   UNL     1      -3.052   2.813  -1.538  0.00  0.00    +0.124 C 
ATOM     10  N   UNL     1      -3.188   3.795  -0.453  0.00  0.00    -0.324 N 
ATOM     11  C   UNL     1      -2.946   3.167   0.854  0.00  0.00    +0.124 C 
ATOM     12  C   UNL     1      -1.535   2.576   0.879  0.00  0.00    +0.124 C 
BRANCH  10  13
ATOM     13  C   UNL     1      -4.444   4.411  -0.489  0.00  0.00    +0.072 A 
ATOM     14  C   UNL     1      -5.435   3.922  -1.328  0.00  0.00    +0.027 A 
ATOM     15  C   UNL     1      -6.676   4.529  -1.358  0.00  0.00    +0.002 A 
ATOM     16  C   UNL     1      -6.931   5.630  -0.561  0.00  0.00    +0.004 A 
ATOM     17  C   UNL     1      -5.946   6.125   0.274  0.00  0.00    +0.047 A 
ATOM     18  C   UNL     1      -4.701   5.520   0.314  0.00  0.00    +0.141 A 
BRANCH  18  19
ATOM     19  O   UNL     1      -3.732   6.007   1.134  0.00  0.00    -0.493 OA
ATOM     20  C   UNL     1      -4.067   7.147   1.928  0.00  0.00    +0.277 C 
ENDBRANCH  18  19
ENDBRANCH  10  13
ENDBRANCH   6   7
BRANCH   1  22
ATOM     21  N   UNL     1      -1.174  -2.561   0.284  0.00  0.00    -0.305 N 
ATOM     22  C   UNL     1      -1.272  -1.226   0.130  0.00  0.00    +0.246 C 
ATOM     23  O   UNL     1      -2.366  -0.695   0.104  0.00  0.00    -0.270 OA
ATOM     24  H   UNL     1      -0.302  -2.984   0.304  0.00  0.00    +0.150 HD
BRANCH  21  26
ATOM     25  C   UNL     1      -2.927  -3.721  -0.966  0.00  0.00    +0.033 C 
ATOM     26  C   UNL     1      -2.386  -3.373   0.422  0.00  0.00    +0.100 C 
BRANCH  26  27
ATOM     27  C   UNL     1      -2.058  -4.642   1.166  0.00  0.00    -0.027 A 
ATOM     28  C   UNL     1      -0.876  -5.311   0.904  0.00  0.00    +0.005 A 
ATOM     29  C   UNL     1      -0.574  -6.473   1.590  0.00  0.00    +0.000 A 
ATOM     30  C   UNL     1      -1.456  -6.971   2.530  0.00  0.00    +0.000 A 
ATOM     31  C   UNL     1      -2.640  -6.305   2.788  0.00  0.00    +0.000 A 
ATOM     32  C   UNL     1      -2.941  -5.141   2.105  0.00  0.00    +0.005 A 
ENDBRANCH  26  27
ENDBRANCH  21  26
ENDBRANCH   1  22
BRANCH   3  33
ATOM     33  N   UNL     1       3.609  -0.848  -0.083  0.00  0.00    -0.285 N 
ATOM     34  C   UNL     1       4.659  -0.192   0.449  0.00  0.00    +0.220 C 
ATOM     35  O   UNL     1       4.494   0.882   0.988  0.00  0.00    -0.275 OA
ATOM     36  H   UNL     1       3.727  -1.740  -0.445  0.00  0.00    +0.155 HD
BRANCH  34  37
ATOM     37  C   UNL     1       6.039  -0.793   0.373  0.00  0.00    +0.075 C 
ATOM     38  C   UNL     1       6.676  -1.267   1.681  0.00  0.00    +0.013 C 
ATOM     39  C   UNL     1       7.190   0.000   0.995  0.00  0.00    +0.013 C 
ENDBRANCH  34  37
ENDBRANCH   3  33
TORSDOF 8
