REMARK  Name = ZINC14248819
REMARK  8 active torsions:
REMARK  status: ('A' for Active; 'I' for Inactive)
REMARK    1  A    between atoms: C_1  and  C_2
REMARK    2  A    between atoms: C_3  and  C_30
REMARK    3  A    between atoms: C_7  and  N_20
REMARK    4  A    between atoms: C_9  and  C_11
REMARK    5  A    between atoms: C_11  and  S_12
REMARK    6  A    between atoms: S_12  and  C_13
REMARK    7  A    between atoms: N_23  and  S_26
REMARK    8  A    between atoms: S_26  and  N_29
REMARK                            x       y       z     vdW  Elec       q    Type
REMARK                         _______ _______ _______ _____ _____    ______ ____
ROOT
ATOM      1  C   UNL     1       4.086  -9.525   0.796  0.00  0.00    +0.045 C 
ATOM      2  C   UNL     1       3.939  -8.584  -0.372  0.00  0.00    -0.028 A 
ATOM      3  C   UNL     1       3.893  -9.060  -1.625  0.00  0.00    -0.008 A 
ATOM      4  S   UNL     1       3.718  -7.593  -2.622  0.00  0.00    -0.074 S 
ATOM      5  C   UNL     1       3.712  -6.380  -1.329  0.00  0.00    +0.114 A 
ATOM      6  C   UNL     1       3.847  -7.151  -0.154  0.00  0.00    +0.051 A 
ATOM      7  C   UNL     1       3.871  -6.412   1.061  0.00  0.00    +0.133 A 
ATOM      8  N   UNL     1       3.774  -5.093   1.016  0.00  0.00    -0.216 NA
ATOM      9  C   UNL     1       3.645  -4.436  -0.123  0.00  0.00    +0.142 A 
ATOM     10  N   UNL     1       3.617  -5.066  -1.282  0.00  0.00    -0.224 NA
ATOM     11  C   UNL     1       3.970 -10.495  -2.081  0.00  0.00    +0.052 C 
ENDROOT
BRANCH   7  12
ATOM     12  N   UNL     1       3.999  -7.064   2.274  0.00  0.00    -0.312 N 
ATOM     13  C   UNL     1       2.815  -6.846   3.116  0.00  0.00    +0.123 C 
ATOM     14  C   UNL     1       2.913  -7.725   4.367  0.00  0.00    +0.129 C 
ATOM     15  N   UNL     1       4.201  -7.459   5.025  0.00  0.00    -0.164 NA
ATOM     16  C   UNL     1       5.425  -7.523   4.211  0.00  0.00    +0.129 C 
ATOM     17  C   UNL     1       5.227  -6.652   2.966  0.00  0.00    +0.123 C 
BRANCH  15  18
ATOM     18  S   UNL     1       4.273  -7.095   6.639  0.00  0.00    +0.095 S 
ATOM     19  O   UNL     1       3.102  -7.641   7.231  0.00  0.00    -0.141 OA
ATOM     20  O   UNL     1       5.580  -7.442   7.076  0.00  0.00    -0.141 OA
BRANCH  18  21
ATOM     21  N   UNL     1       4.149  -5.449   6.776  0.00  0.00    -0.193 NA
ATOM     22  H   UNL     1       3.744  -5.058   7.566  0.00  0.00    +0.145 HD
ATOM     23  H   UNL     1       4.481  -4.877   6.067  0.00  0.00    +0.145 HD
ENDBRANCH  18  21
ENDBRANCH  15  18
ENDBRANCH   7  12
BRANCH   9  24
ATOM     24  C   UNL     1       3.535  -2.933  -0.098  0.00  0.00    +0.150 C 
BRANCH  24  25
ATOM     25  S   UNL     1       1.788  -2.457   0.024  0.00  0.00    -0.117 S 
BRANCH  25  26
ATOM     26  C   UNL     1       1.827  -0.696   0.042  0.00  0.00    +0.008 A 
ATOM     27  C   UNL     1       0.642   0.025   0.129  0.00  0.00    +0.016 A 
ATOM     28  C   UNL     1       0.676   1.406   0.142  0.00  0.00    +0.021 A 
ATOM     29  C   UNL     1       1.887   2.071   0.070  0.00  0.00    +0.041 A 
ATOM     30  C   UNL     1       3.069   1.355  -0.017  0.00  0.00    +0.021 A 
ATOM     31  C   UNL     1       3.042  -0.025  -0.031  0.00  0.00    +0.016 A 
ATOM     32 CL   UNL     1       1.925   3.806   0.088  0.00  0.00    -0.084 Cl
ENDBRANCH  25  26
ENDBRANCH  24  25
ENDBRANCH   9  24
TORSDOF 6
