REMARK  Name = ZINC38850137
REMARK  14 active torsions:
REMARK  status: ('A' for Active; 'I' for Inactive)
REMARK    1  A    between atoms: C_1  and  C_2
REMARK    2  A    between atoms: C_2  and  O_3
REMARK    3  A    between atoms: O_3  and  C_4
REMARK    4  A    between atoms: C_4  and  C_6
REMARK    5  A    between atoms: C_10  and  N_11
REMARK    6  A    between atoms: C_12  and  C_14
REMARK    7  A    between atoms: C_17  and  S_20
REMARK    8  A    between atoms: S_20  and  N_23
REMARK    9  A    between atoms: N_23  and  C_24
REMARK   10  A    between atoms: N_23  and  C_25
REMARK   11  A    between atoms: C_28  and  C_34
REMARK   12  A    between atoms: C_28  and  C_35
REMARK   13  A    between atoms: C_30  and  C_32
REMARK   14  A    between atoms: C_30  and  C_33
REMARK                            x       y       z     vdW  Elec       q    Type
REMARK                         _______ _______ _______ _____ _____    ______ ____
ROOT
ATOM      1  C   UNL     1       1.449  -2.344  -2.516  0.00  0.00    +0.091 A 
ATOM      2  C   UNL     1       2.870  -2.615  -2.533  0.00  0.00    -0.024 A 
ATOM      3  C   UNL     1       3.335  -3.111  -3.703  0.00  0.00    -0.016 A 
ATOM      4  S   UNL     1       1.905  -3.217  -4.737  0.00  0.00    -0.079 S 
ATOM      5  C   UNL     1       0.742  -2.622  -3.681  0.00  0.00    +0.086 A 
ATOM      6  C   UNL     1       4.751  -3.466  -4.014  0.00  0.00    -0.041 C 
ATOM      7  N   UNL     1       5.612  -3.383  -2.836  0.00  0.00    +0.389 N 
ATOM      8  C   UNL     1       4.953  -3.461  -1.539  0.00  0.00    -0.069 C 
ATOM      9  C   UNL     1       3.851  -2.405  -1.390  0.00  0.00    +0.024 C 
ATOM     10  C   UNL     1       6.006  -3.200  -0.444  0.00  0.00    -0.010 C 
ATOM     11  C   UNL     1       4.363  -4.852  -1.299  0.00  0.00    -0.010 C 
ATOM     12  C   UNL     1       4.806  -4.877  -4.617  0.00  0.00    -0.005 C 
ATOM     13  C   UNL     1       5.273  -2.479  -5.076  0.00  0.00    -0.005 C 
ATOM     14  H   UNL     1       6.312  -4.125  -2.890  0.00  0.00    -0.084 HD
ATOM     15  H   UNL     1       6.138  -2.507  -2.879  0.00  0.00    -0.084 HD
ENDROOT
BRANCH   5  16
ATOM     16  N   UNL     1      -0.612  -2.447  -3.915  0.00  0.00    -0.275 N 
ATOM     17  C   UNL     1      -1.136  -2.772  -5.113  0.00  0.00    +0.249 C 
ATOM     18  O   UNL     1      -0.421  -3.219  -5.988  0.00  0.00    -0.270 OA
ATOM     19  H   UNL     1      -1.182  -2.090  -3.216  0.00  0.00    +0.156 HD
BRANCH  17  20
ATOM     20  C   UNL     1      -2.581  -2.584  -5.363  0.00  0.00    +0.037 A 
ATOM     21  C   UNL     1      -3.404  -2.065  -4.361  0.00  0.00    +0.015 A 
ATOM     22  C   UNL     1      -4.751  -1.892  -4.601  0.00  0.00    +0.029 A 
ATOM     23  C   UNL     1      -5.287  -2.232  -5.831  0.00  0.00    +0.106 A 
ATOM     24  C   UNL     1      -4.477  -2.747  -6.827  0.00  0.00    +0.029 A 
ATOM     25  C   UNL     1      -3.127  -2.920  -6.603  0.00  0.00    +0.015 A 
BRANCH  23  26
ATOM     26  S   UNL     1      -7.010  -2.008  -6.128  0.00  0.00    +0.061 S 
ATOM     27  O   UNL     1      -7.362  -2.909  -7.168  0.00  0.00    -0.153 OA
ATOM     28  O   UNL     1      -7.647  -2.023  -4.858  0.00  0.00    -0.153 OA
BRANCH  26  29
ATOM     29  N   UNL     1      -7.206  -0.481  -6.738  0.00  0.00    -0.177 NA
ATOM     30  C   UNL     1      -7.149  -0.257  -8.185  0.00  0.00    +0.132 C 
BRANCH  29  31
ATOM     31  C   UNL     1      -7.438   0.646  -5.832  0.00  0.00    +0.080 C 
ATOM     32  C   UNL     1      -7.812   1.991  -6.457  0.00  0.00    +0.022 C 
ATOM     33  C   UNL     1      -6.422   1.790  -5.851  0.00  0.00    +0.022 C 
ENDBRANCH  29  31
ENDBRANCH  26  29
ENDBRANCH  23  26
ENDBRANCH  17  20
ENDBRANCH   5  16
BRANCH   1  34
ATOM     34  C   UNL     1       0.776  -1.800  -1.335  0.00  0.00    +0.342 C 
ATOM     35  O   UNL     1       0.312  -2.552  -0.499  0.00  0.00    -0.245 OA
BRANCH  34  36
ATOM     36  O   UNL     1       0.671  -0.465  -1.174  0.00  0.00    -0.461 OA
BRANCH  36  38
ATOM     37  C   UNL     1      -0.019   1.526   0.010  0.00  0.00    +0.048 C 
ATOM     38  C   UNL     1       0.002  -0.004   0.002  0.00  0.00    +0.229 C 
ENDBRANCH  36  38
ENDBRANCH  34  36
ENDBRANCH   1  34
TORSDOF 8
