REMARK  Name = ZINC03658606
REMARK  7 active torsions:
REMARK  status: ('A' for Active; 'I' for Inactive)
REMARK    1  A    between atoms: C_1  and  C_2
REMARK    2  A    between atoms: C_5  and  N_8
REMARK    3  A    between atoms: C_9  and  C_11
REMARK    4  A    between atoms: N_22  and  C_34
REMARK    5  A    between atoms: C_23  and  C_25
REMARK    6  A    between atoms: N_27  and  C_28
REMARK    7  A    between atoms: C_34  and  C_35
REMARK                            x       y       z     vdW  Elec       q    Type
REMARK                         _______ _______ _______ _____ _____    ______ ____
ROOT
ATOM      1  C   UNL     1      -0.053   1.225  -0.063  0.00  0.00    +0.123 C 
ATOM      2  C   UNL     1      -0.738   1.608  -1.415  0.00  0.00    +0.155 C 
ATOM      3  C   UNL     1      -0.963   3.124  -1.387  0.00  0.00    +0.004 C 
ATOM      4  C   UNL     1       0.232   3.707  -1.543  0.00  0.00    +0.009 C 
ATOM      5  C   UNL     1       1.175   2.561  -1.624  0.00  0.00    +0.127 C 
ATOM      6  C   UNL     1       1.298   1.955  -0.177  0.00  0.00    +0.128 C 
ATOM      7  C   UNL     1       2.490   1.056  -0.345  0.00  0.00    +0.224 C 
ATOM      8  O   UNL     1       2.725   0.069   0.321  0.00  0.00    -0.275 OA
ATOM      9  N   UNL     1       3.264   1.522  -1.357  0.00  0.00    -0.282 N 
ATOM     10  C   UNL     1       2.610   2.667  -2.037  0.00  0.00    +0.199 C 
ATOM     11  O   UNL     1       0.423   1.530  -2.319  0.00  0.00    -0.358 OA
ENDROOT
BRANCH   1  13
ATOM     12  N   UNL     1      -2.088   1.270   1.342  0.00  0.00    -0.285 N 
ATOM     13  C   UNL     1      -0.847   1.740   1.109  0.00  0.00    +0.224 C 
ATOM     14  O   UNL     1      -0.368   2.579   1.844  0.00  0.00    -0.275 OA
ATOM     15  H   UNL     1      -2.500   0.657   0.713  0.00  0.00    +0.155 HD
BRANCH  12  20
ATOM     16  C   UNL     1      -4.902   2.871   6.000  0.00  0.00    +0.044 C 
ATOM     17  C   UNL     1      -4.155   2.446   4.763  0.00  0.00    -0.050 A 
ATOM     18  C   UNL     1      -4.846   2.191   3.592  0.00  0.00    +0.005 A 
ATOM     19  C   UNL     1      -4.164   1.800   2.457  0.00  0.00    +0.023 A 
ATOM     20  C   UNL     1      -2.782   1.665   2.491  0.00  0.00    +0.033 A 
ATOM     21  C   UNL     1      -2.091   1.916   3.669  0.00  0.00    +0.023 A 
ATOM     22  C   UNL     1      -2.779   2.311   4.800  0.00  0.00    +0.005 A 
ENDBRANCH  12  20
ENDBRANCH   1  13
BRANCH  10  23
ATOM     23  C   UNL     1       3.204   3.970  -1.567  0.00  0.00    +0.237 C 
ATOM     24  O   UNL     1       3.831   4.011  -0.530  0.00  0.00    -0.274 OA
ATOM     25  N   UNL     1       3.037   5.089  -2.299  0.00  0.00    -0.311 N 
ATOM     26  H   UNL     1       2.535   5.056  -3.128  0.00  0.00    +0.149 HD
BRANCH  25  27
ATOM     27  C   UNL     1       3.614   6.356  -1.842  0.00  0.00    +0.073 C 
ATOM     28  C   UNL     1       2.652   7.030  -0.861  0.00  0.00    +0.022 C 
ATOM     29  C   UNL     1       3.255   8.353  -0.384  0.00  0.00    +0.002 C 
ATOM     30  C   UNL     1       3.484   9.271  -1.586  0.00  0.00    +0.000 C 
ATOM     31  C   UNL     1       4.446   8.597  -2.567  0.00  0.00    +0.002 C 
ATOM     32  C   UNL     1       3.844   7.274  -3.044  0.00  0.00    +0.022 C 
ENDBRANCH  25  27
ENDBRANCH  10  23
BRANCH   9  33
ATOM     33  C   UNL     1       4.570   0.971  -1.728  0.00  0.00    +0.146 C 
BRANCH  33  34
ATOM     34  C   UNL     1       4.382  -0.116  -2.755  0.00  0.00    +0.005 A 
ATOM     35  C   UNL     1       4.415  -1.444  -2.371  0.00  0.00    +0.008 A 
ATOM     36  C   UNL     1       4.237  -2.441  -3.312  0.00  0.00    +0.000 A 
ATOM     37  C   UNL     1       4.038  -2.112  -4.640  0.00  0.00    +0.003 A 
ATOM     38  C   UNL     1       4.010  -0.786  -5.027  0.00  0.00    +0.038 A 
ATOM     39  C   UNL     1       4.183   0.214  -4.085  0.00  0.00    +0.128 A 
ATOM     40  F   UNL     1       4.155   1.511  -4.463  0.00  0.00    -0.205 F 
ENDBRANCH  33  34
ENDBRANCH   9  33
TORSDOF 6
