REMARK  Name = ZINC13205930
REMARK  10 active torsions:
REMARK  status: ('A' for Active; 'I' for Inactive)
REMARK    1  A    between atoms: C_1  and  C_2
REMARK    2  A    between atoms: C_5  and  C_8
REMARK    3  A    between atoms: C_11  and  S_16
REMARK    4  A    between atoms: N_12  and  C_13
REMARK    5  A    between atoms: C_13  and  C_14
REMARK    6  A    between atoms: S_16  and  C_17
REMARK    7  A    between atoms: C_17  and  C_18
REMARK    8  A    between atoms: N_20  and  C_21
REMARK    9  A    between atoms: C_21  and  C_23
REMARK   10  A    between atoms: C_21  and  C_24
REMARK                            x       y       z     vdW  Elec       q    Type
REMARK                         _______ _______ _______ _____ _____    ______ ____
ROOT
ATOM      1  C   UNL     1      -1.561   0.893   1.705  0.00  0.00    +0.165 A 
ATOM      2  N   UNL     1      -1.957   1.680   2.678  0.00  0.00    -0.128 NA
ATOM      3  N   UNL     1      -1.156   2.679   2.788  0.00  0.00    -0.122 NA
ATOM      4  C   UNL     1      -0.196   2.588   1.895  0.00  0.00    +0.193 A 
ATOM      5  N   UNL     1      -0.423   1.452   1.171  0.00  0.00    -0.291 N 
ENDROOT
BRANCH   1  10
ATOM      6  C   UNL     1      -4.106  -3.976  -0.006  0.00  0.00    +0.044 C 
ATOM      7  C   UNL     1      -3.440  -2.701   0.442  0.00  0.00    -0.050 A 
ATOM      8  C   UNL     1      -3.719  -2.181   1.694  0.00  0.00    +0.004 A 
ATOM      9  C   UNL     1      -3.112  -1.014   2.110  0.00  0.00    +0.012 A 
ATOM     10  C   UNL     1      -2.215  -0.358   1.266  0.00  0.00    +0.019 A 
ATOM     11  C   UNL     1      -1.942  -0.885   0.002  0.00  0.00    +0.012 A 
ATOM     12  C   UNL     1      -2.551  -2.056  -0.399  0.00  0.00    +0.004 A 
ENDBRANCH   1  10
BRANCH   5  13
ATOM     13  C   UNL     1       0.381   0.934   0.062  0.00  0.00    +0.250 C 
BRANCH  13  14
ATOM     14  C   UNL     1      -0.122   1.512  -1.236  0.00  0.00    +0.375 C 
ATOM     15  O   UNL     1      -1.057   2.277  -1.235  0.00  0.00    -0.244 OA
ATOM     16  O   UNL     1       0.468   1.175  -2.394  0.00  0.00    -0.244 OA
ENDBRANCH  13  14
ENDBRANCH   5  13
BRANCH   4  17
ATOM     17  S   UNL     1       1.134   3.722   1.671  0.00  0.00    -0.077 S 
BRANCH  17  18
ATOM     18  C   UNL     1       0.748   4.920   2.971  0.00  0.00    +0.173 C 
BRANCH  18  19
ATOM     19  C   UNL     1       1.783   6.015   2.968  0.00  0.00    +0.224 C 
ATOM     20  O   UNL     1       2.693   5.988   2.166  0.00  0.00    -0.275 OA
ATOM     21  N   UNL     1       1.699   7.024   3.857  0.00  0.00    -0.308 N 
ATOM     22  H   UNL     1       0.972   7.046   4.499  0.00  0.00    +0.149 HD
BRANCH  21  23
ATOM     23  C   UNL     1       2.705   8.089   3.855  0.00  0.00    +0.101 C 
ATOM     24  C   UNL     1       2.272   9.199   2.895  0.00  0.00    +0.033 C 
BRANCH  23  25
ATOM     25  C   UNL     1       2.843   8.653   5.245  0.00  0.00    -0.014 A 
ATOM     26  C   UNL     1       1.777   8.595   6.124  0.00  0.00    +0.006 A 
ATOM     27  C   UNL     1       1.905   9.109   7.401  0.00  0.00    +0.000 A 
ATOM     28  C   UNL     1       3.095   9.690   7.797  0.00  0.00    +0.001 A 
ATOM     29  C   UNL     1       4.160   9.753   6.917  0.00  0.00    +0.015 A 
ATOM     30  C   UNL     1       4.034   9.235   5.641  0.00  0.00    +0.023 A 
ATOM     31 BR   UNL     1       5.490   9.322   4.437  0.00  0.00    -0.050 Br
ENDBRANCH  23  25
ENDBRANCH  21  23
ENDBRANCH  18  19
ENDBRANCH  17  18
ENDBRANCH   4  17
TORSDOF 8
