REMARK  Name = ZINC66733055
REMARK  4 active torsions:
REMARK  status: ('A' for Active; 'I' for Inactive)
REMARK    1  A    between atoms: C_1  and  C_2
REMARK    2  A    between atoms: C_4  and  C_23
REMARK    3  A    between atoms: C_12  and  C_14
REMARK    4  A    between atoms: C_17  and  C_20
REMARK                            x       y       z     vdW  Elec       q    Type
REMARK                         _______ _______ _______ _____ _____    ______ ____
ROOT
ATOM      1  C   UNL     1      -0.942   0.795  -0.409  0.00  0.00    +0.044 C 
ATOM      2  C   UNL     1      -0.059  -0.409  -0.205  0.00  0.00    -0.048 A 
ATOM      3  C   UNL     1       0.704  -0.894  -1.253  0.00  0.00    +0.007 A 
ATOM      4  C   UNL     1       1.512  -1.999  -1.070  0.00  0.00    -0.045 A 
ATOM      5  C   UNL     1       1.567  -2.628   0.163  0.00  0.00    -0.023 A 
ATOM      6  C   UNL     1       0.806  -2.141   1.214  0.00  0.00    +0.040 A 
ATOM      7  C   UNL     1      -0.005  -1.027   1.028  0.00  0.00    +0.027 A 
ATOM      8  N   UNL     1       0.848  -2.752   2.474  0.00  0.00    -0.267 N 
ATOM      9  C   UNL     1       1.463  -4.080   2.598  0.00  0.00    +0.114 C 
ATOM     10  C   UNL     1       2.775  -4.066   1.803  0.00  0.00    +0.024 C 
ATOM     11  C   UNL     1       2.455  -3.833   0.327  0.00  0.00    +0.039 C 
ATOM     12  C   UNL     1       0.333  -2.131   3.553  0.00  0.00    +0.251 C 
ATOM     13  O   UNL     1      -0.060  -0.985   3.465  0.00  0.00    -0.270 OA
ATOM     14  C   UNL     1       2.339  -2.522  -2.216  0.00  0.00    +0.044 C 
ENDROOT
BRANCH  12  15
ATOM     15  C   UNL     1       0.245  -2.846   4.846  0.00  0.00    +0.037 A 
ATOM     16  C   UNL     1      -0.011  -4.218   4.870  0.00  0.00    +0.014 A 
ATOM     17  C   UNL     1      -0.092  -4.883   6.074  0.00  0.00    +0.014 A 
ATOM     18  C   UNL     1       0.082  -4.185   7.270  0.00  0.00    +0.037 A 
ATOM     19  C   UNL     1       0.338  -2.814   7.247  0.00  0.00    +0.014 A 
ATOM     20  C   UNL     1       0.426  -2.149   6.042  0.00  0.00    +0.014 A 
BRANCH  18  21
ATOM     21  C   UNL     1      -0.006  -4.900   8.563  0.00  0.00    +0.242 C 
ATOM     22  O   UNL     1      -0.231  -6.094   8.583  0.00  0.00    -0.270 OA
ATOM     23  N   UNL     1       0.162  -4.226   9.718  0.00  0.00    -0.325 N 
ATOM     24  H   UNL     1       0.340  -3.273   9.702  0.00  0.00    +0.145 HD
ATOM     25  H   UNL     1       0.104  -4.695  10.566  0.00  0.00    +0.145 HD
ENDBRANCH  18  21
ENDBRANCH  12  15
TORSDOF 2
