REMARK  Name = ZINC36660260
REMARK  12 active torsions:
REMARK  status: ('A' for Active; 'I' for Inactive)
REMARK    1  A    between atoms: C_1  and  C_2
REMARK    2  A    between atoms: C_5  and  S_8
REMARK    3  A    between atoms: S_8  and  N_11
REMARK    4  A    between atoms: C_15  and  C_17
REMARK    5  A    between atoms: N_19  and  C_20
REMARK    6  A    between atoms: C_21  and  C_33
REMARK    7  A    between atoms: C_25  and  C_31
REMARK    8  A    between atoms: C_25  and  C_32
REMARK    9  A    between atoms: C_27  and  C_29
REMARK   10  A    between atoms: C_27  and  C_30
REMARK   11  A    between atoms: C_33  and  O_35
REMARK   12  A    between atoms: O_35  and  C_36
REMARK                            x       y       z     vdW  Elec       q    Type
REMARK                         _______ _______ _______ _____ _____    ______ ____
ROOT
ATOM      1  C   UNL     1       1.893  -6.379   1.960  0.00  0.00    +0.236 C 
ATOM      2  O   UNL     1       0.880  -6.930   1.584  0.00  0.00    -0.274 OA
ATOM      3  N   UNL     1       2.494  -6.779   3.098  0.00  0.00    -0.278 N 
ATOM      4  H   UNL     1       3.304  -6.338   3.399  0.00  0.00    +0.155 HD
ENDROOT
BRANCH   3   5
ATOM      5  C   UNL     1       1.955  -7.818   3.839  0.00  0.00    +0.086 A 
ATOM      6  C   UNL     1       2.435  -8.358   5.026  0.00  0.00    +0.091 A 
ATOM      7  C   UNL     1       1.680  -9.449   5.602  0.00  0.00    -0.024 A 
ATOM      8  C   UNL     1       0.586  -9.813   4.894  0.00  0.00    -0.016 A 
ATOM      9  S   UNL     1       0.573  -8.714   3.509  0.00  0.00    -0.079 S 
ATOM     10  C   UNL     1      -0.366 -10.911   5.235  0.00  0.00    -0.041 C 
ATOM     11  N   UNL     1      -0.111 -11.472   6.561  0.00  0.00    +0.389 N 
ATOM     12  C   UNL     1       0.649 -10.642   7.486  0.00  0.00    -0.069 C 
ATOM     13  C   UNL     1       1.990 -10.194   6.891  0.00  0.00    +0.024 C 
ATOM     14  C   UNL     1       0.948 -11.472   8.749  0.00  0.00    -0.010 C 
ATOM     15  C   UNL     1      -0.155  -9.412   7.913  0.00  0.00    -0.010 C 
ATOM     16  C   UNL     1      -0.209 -12.030   4.187  0.00  0.00    -0.005 C 
ATOM     17  C   UNL     1      -1.806 -10.385   5.149  0.00  0.00    -0.005 C 
ATOM     18  H   UNL     1      -1.006 -11.704   6.994  0.00  0.00    -0.084 HD
ATOM     19  H   UNL     1       0.378 -12.362   6.448  0.00  0.00    -0.084 HD
BRANCH   6  20
ATOM     20  C   UNL     1       3.652  -7.840   5.655  0.00  0.00    +0.342 C 
ATOM     21  O   UNL     1       3.580  -6.934   6.464  0.00  0.00    -0.245 OA
BRANCH  20  22
ATOM     22  O   UNL     1       4.852  -8.367   5.338  0.00  0.00    -0.464 OA
ATOM     23  C   UNL     1       5.997  -7.812   5.989  0.00  0.00    +0.280 C 
ENDBRANCH  20  22
ENDBRANCH   6  20
ENDBRANCH   3   5
BRANCH   1  28
ATOM     24  N   UNL     1       1.651  -4.999  -0.034  0.00  0.00    -0.165 NA
ATOM     25  C   UNL     1       2.470  -5.230  -1.238  0.00  0.00    +0.110 C 
ATOM     26  C   UNL     1       3.932  -5.027  -0.768  0.00  0.00    +0.019 C 
ATOM     27  C   UNL     1       3.888  -5.637   0.658  0.00  0.00    +0.031 C 
ATOM     28  C   UNL     1       2.479  -5.249   1.155  0.00  0.00    +0.166 C 
BRANCH  24  29
ATOM     29  S   UNL     1       0.063  -4.530  -0.023  0.00  0.00    +0.062 S 
ATOM     30  O   UNL     1      -0.476  -4.950   1.223  0.00  0.00    -0.153 OA
ATOM     31  O   UNL     1      -0.490  -4.937  -1.267  0.00  0.00    -0.153 OA
BRANCH  29  36
ATOM     32  C   UNL     1      -0.018   1.503   0.010  0.00  0.00    +0.044 C 
ATOM     33  C   UNL     1       0.002  -0.004   0.002  0.00  0.00    -0.050 A 
ATOM     34  C   UNL     1       0.006  -0.689  -1.199  0.00  0.00    +0.005 A 
ATOM     35  C   UNL     1       0.025  -2.071  -1.206  0.00  0.00    +0.029 A 
ATOM     36  C   UNL     1       0.040  -2.768  -0.013  0.00  0.00    +0.106 A 
ATOM     37  C   UNL     1       0.037  -2.084   1.188  0.00  0.00    +0.029 A 
ATOM     38  C   UNL     1       0.023  -0.702   1.195  0.00  0.00    +0.005 A 
ENDBRANCH  29  36
ENDBRANCH  24  29
ENDBRANCH   1  28
TORSDOF 6
