REMARK  Name = ZINC00691897
REMARK  14 active torsions:
REMARK  status: ('A' for Active; 'I' for Inactive)
REMARK    1  A    between atoms: C_1  and  C_2
REMARK    2  A    between atoms: C_2  and  C_3
REMARK    3  A    between atoms: C_3  and  C_4
REMARK    4  A    between atoms: C_3  and  C_5
REMARK    5  A    between atoms: C_3  and  C_6
REMARK    6  A    between atoms: C_14  and  N_34
REMARK    7  A    between atoms: C_15  and  C_19
REMARK    8  A    between atoms: N_21  and  C_22
REMARK    9  A    between atoms: C_22  and  C_23
REMARK   10  A    between atoms: C_23  and  C_24
REMARK   11  A    between atoms: C_27  and  O_32
REMARK   12  A    between atoms: C_28  and  O_30
REMARK   13  A    between atoms: O_30  and  C_31
REMARK   14  A    between atoms: O_32  and  C_33
REMARK                            x       y       z     vdW  Elec       q    Type
REMARK                         _______ _______ _______ _____ _____    ______ ____
ROOT
ATOM      1  C   UNL     1     -12.548   8.931  -4.157  0.00  0.00    -0.001 C 
ATOM      2  C   UNL     1     -12.336   9.775  -2.895  0.00  0.00    +0.010 C 
ATOM      3  C   UNL     1     -11.659   8.903  -1.840  0.00  0.00    +0.056 C 
ATOM      4  C   UNL     1     -10.436   8.233  -2.413  0.00  0.00    +0.046 A 
ATOM      5  C   UNL     1     -10.221   8.118  -3.774  0.00  0.00    -0.025 A 
ATOM      6  C   UNL     1      -9.086   7.485  -4.243  0.00  0.00    +0.017 A 
ATOM      7  C   UNL     1      -8.147   6.962  -3.324  0.00  0.00    +0.029 A 
ATOM      8  C   UNL     1      -6.894   6.272  -3.591  0.00  0.00    +0.053 A 
ATOM      9  C   UNL     1      -6.140   5.848  -2.519  0.00  0.00    +0.097 A 
ATOM     10  S   UNL     1      -7.092   6.377  -1.109  0.00  0.00    -0.062 S 
ATOM     11  C   UNL     1      -8.457   7.134  -1.956  0.00  0.00    +0.111 A 
ATOM     12  N   UNL     1      -9.551   7.740  -1.558  0.00  0.00    -0.244 NA
ATOM     13  C   UNL     1     -11.186   8.666  -4.794  0.00  0.00    +0.041 C 
ENDROOT
BRANCH   9  14
ATOM     14  C   UNL     1      -4.900   5.161  -2.534  0.00  0.00    +0.253 C 
ATOM     15  O   UNL     1      -4.378   4.871  -3.595  0.00  0.00    -0.270 OA
ATOM     16  N   UNL     1      -4.300   4.828  -1.375  0.00  0.00    -0.311 N 
ATOM     17  H   UNL     1      -4.716   5.059  -0.529  0.00  0.00    +0.149 HD
BRANCH  16  18
ATOM     18  C   UNL     1      -3.019   4.118  -1.390  0.00  0.00    +0.109 C 
BRANCH  18  19
ATOM     19  C   UNL     1      -2.559   3.864   0.047  0.00  0.00    +0.054 C 
BRANCH  19  20
ATOM     20  C   UNL     1      -1.241   3.133   0.031  0.00  0.00    -0.042 A 
ATOM     21  C   UNL     1      -1.219   1.751   0.017  0.00  0.00    +0.007 A 
ATOM     22  C   UNL     1      -0.013   1.076   0.008  0.00  0.00    +0.049 A 
ATOM     23  C   UNL     1       1.178   1.785   0.000  0.00  0.00    +0.161 A 
ATOM     24  C   UNL     1       1.155   3.176   0.008  0.00  0.00    +0.162 A 
ATOM     25  C   UNL     1      -0.057   3.846   0.023  0.00  0.00    +0.053 A 
BRANCH  24  26
ATOM     26  O   UNL     1       2.321   3.877   0.001  0.00  0.00    -0.491 OA
ATOM     27  C   UNL     1       2.222   5.302   0.010  0.00  0.00    +0.277 C 
ENDBRANCH  24  26
BRANCH  23  28
ATOM     28  O   UNL     1       2.365   1.123  -0.015  0.00  0.00    -0.491 OA
ATOM     29  C   UNL     1       2.312  -0.305  -0.023  0.00  0.00    +0.277 C 
ENDBRANCH  23  28
ENDBRANCH  19  20
ENDBRANCH  18  19
ENDBRANCH  16  18
ENDBRANCH   9  14
BRANCH   1  30
ATOM     30  C   UNL     1     -13.438   9.691  -5.142  0.00  0.00    -0.032 C 
ATOM     31  C   UNL     1     -14.793   9.977  -4.489  0.00  0.00    +0.011 C 
ATOM     32  C   UNL     1     -12.766  11.012  -5.522  0.00  0.00    +0.011 C 
BRANCH  30  34
ATOM     33  C   UNL     1     -14.537   9.605  -7.384  0.00  0.00    +0.004 C 
ATOM     34  C   UNL     1     -13.647   8.845  -6.399  0.00  0.00    +0.003 C 
ENDBRANCH  30  34
ENDBRANCH   1  30
BRANCH   8  35
ATOM     35  N   UNL     1      -6.471   6.045  -4.893  0.00  0.00    -0.356 N 
ATOM     36  H   UNL     1      -5.635   5.581  -5.057  0.00  0.00    +0.142 HD
ATOM     37  H   UNL     1      -7.011   6.349  -5.639  0.00  0.00    +0.142 HD
ENDBRANCH   8  35
TORSDOF 9
