REMARK  Name = ZINC51070949
REMARK  1 active torsions:
REMARK  status: ('A' for Active; 'I' for Inactive)
REMARK    1  A    between atoms: C_3  and  C_8
REMARK                            x       y       z     vdW  Elec       q    Type
REMARK                         _______ _______ _______ _____ _____    ______ ____
ROOT
ATOM      1  C   UNL     1       3.677   2.050  -0.022  0.00  0.00    +0.265 C 
ATOM      2  O   UNL     1       3.702   3.258  -0.157  0.00  0.00    -0.268 OA
ATOM      3  N   UNL     1       4.830   1.358   0.065  0.00  0.00    -0.296 N 
ATOM      4  C   UNL     1       4.824  -0.112   0.053  0.00  0.00    +0.108 C 
ATOM      5  C   UNL     1       5.770  -0.598  -1.050  0.00  0.00    +0.023 C 
ATOM      6  C   UNL     1       7.155   0.022  -0.841  0.00  0.00    -0.005 C 
ATOM      7  C   UNL     1       8.104  -0.491  -1.926  0.00  0.00    +0.004 C 
ATOM      8  C   UNL     1       9.489   0.127  -1.729  0.00  0.00    +0.000 C 
ATOM      9  C   UNL     1       9.384   1.651  -1.824  0.00  0.00    +0.000 C 
ATOM     10  C   UNL     1       8.439   2.164  -0.736  0.00  0.00    +0.005 C 
ATOM     11  C   UNL     1       7.052   1.546  -0.927  0.00  0.00    +0.010 C 
ATOM     12  C   UNL     1       6.118   2.057   0.167  0.00  0.00    +0.112 C 
ENDROOT
BRANCH   1  15
ATOM     13  C   UNL     1      -0.008   1.349  -0.172  0.00  0.00    +0.006 A 
ATOM     14  C   UNL     1       1.203   2.025  -0.239  0.00  0.00    +0.033 A 
ATOM     15  C   UNL     1       2.379   1.340   0.046  0.00  0.00    +0.128 A 
ATOM     16  N   UNL     1       2.350   0.054   0.379  0.00  0.00    -0.228 NA
ATOM     17  C   UNL     1       1.214  -0.616   0.452  0.00  0.00    +0.117 A 
ATOM     18  C   UNL     1      -0.002   0.012   0.178  0.00  0.00    +0.043 A 
ATOM     19  N   UNL     1       1.229  -1.960   0.803  0.00  0.00    -0.343 N 
ATOM     20  H   UNL     1       2.071  -2.402   0.994  0.00  0.00    +0.144 HD
ATOM     21  H   UNL     1       0.398  -2.457   0.858  0.00  0.00    +0.144 HD
ENDBRANCH   1  15
TORSDOF 1
