REMARK  Name = ZINC13417349
REMARK  9 active torsions:
REMARK  status: ('A' for Active; 'I' for Inactive)
REMARK    1  A    between atoms: C_1  and  C_2
REMARK    2  A    between atoms: C_2  and  N_3
REMARK    3  A    between atoms: C_12  and  S_13
REMARK    4  A    between atoms: S_13  and  C_14
REMARK    5  A    between atoms: C_14  and  C_15
REMARK    6  A    between atoms: N_17  and  C_18
REMARK    7  A    between atoms: C_21  and  C_24
REMARK    8  A    between atoms: C_25  and  C_26
REMARK    9  A    between atoms: C_29  and  C_33
REMARK                            x       y       z     vdW  Elec       q    Type
REMARK                         _______ _______ _______ _____ _____    ______ ____
ROOT
ATOM      1  N   UNL     1      -2.147   1.303   1.746  0.00  0.00    -0.288 N 
ATOM      2  C   UNL     1      -3.107   2.030   1.146  0.00  0.00    +0.263 A 
ATOM      3  O   UNL     1      -2.873   3.160   0.754  0.00  0.00    -0.267 OA
ATOM      4  C   UNL     1      -4.406   1.456   0.970  0.00  0.00    +0.076 A 
ATOM      5  C   UNL     1      -5.586   2.057   0.346  0.00  0.00    -0.023 A 
ATOM      6  C   UNL     1      -6.706   1.307   0.305  0.00  0.00    -0.004 A 
ATOM      7  S   UNL     1      -6.264  -0.222   1.085  0.00  0.00    -0.073 S 
ATOM      8  C   UNL     1      -4.571   0.151   1.464  0.00  0.00    +0.117 A 
ATOM      9  N   UNL     1      -3.582  -0.512   2.052  0.00  0.00    -0.216 NA
ATOM     10  C   UNL     1      -2.393   0.039   2.197  0.00  0.00    +0.173 A 
ATOM     11  C   UNL     1      -8.034   1.690  -0.274  0.00  0.00    +0.046 C 
ATOM     12  C   UNL     1      -8.048   3.209  -0.491  0.00  0.00    -0.009 C 
ATOM     13  C   UNL     1      -6.752   3.617  -1.197  0.00  0.00    +0.008 C 
ATOM     14  C   UNL     1      -5.570   3.467  -0.238  0.00  0.00    +0.037 C 
ATOM     15  C   UNL     1      -9.250   3.592  -1.358  0.00  0.00    +0.008 C 
ENDROOT
BRANCH   1  17
ATOM     16  C   UNL     1       0.054   1.550   0.709  0.00  0.00    +0.027 C 
ATOM     17  C   UNL     1      -0.813   1.882   1.925  0.00  0.00    +0.124 C 
ENDBRANCH   1  17
BRANCH  10  18
ATOM     18  S   UNL     1      -1.105  -0.871   2.982  0.00  0.00    -0.078 S 
BRANCH  18  19
ATOM     19  C   UNL     1      -1.984  -2.410   3.349  0.00  0.00    +0.173 C 
BRANCH  19  20
ATOM     20  C   UNL     1      -1.051  -3.369   4.043  0.00  0.00    +0.227 C 
ATOM     21  O   UNL     1       0.095  -3.043   4.268  0.00  0.00    -0.275 OA
ATOM     22  N   UNL     1      -1.491  -4.588   4.413  0.00  0.00    -0.285 N 
ATOM     23  H   UNL     1      -2.426  -4.820   4.303  0.00  0.00    +0.155 HD
BRANCH  22  24
ATOM     24  C   UNL     1      -0.601  -5.515   4.955  0.00  0.00    +0.033 A 
ATOM     25  C   UNL     1       0.719  -5.547   4.517  0.00  0.00    +0.024 A 
ATOM     26  C   UNL     1       1.602  -6.456   5.053  0.00  0.00    +0.010 A 
ATOM     27  C   UNL     1       1.167  -7.358   6.032  0.00  0.00    -0.025 A 
ATOM     28  C   UNL     1      -0.164  -7.326   6.465  0.00  0.00    +0.010 A 
ATOM     29  C   UNL     1      -1.038  -6.409   5.928  0.00  0.00    +0.024 A 
BRANCH  27  30
ATOM     30  C   UNL     1       2.104  -8.336   6.602  0.00  0.00    +0.015 C 
ATOM     31  C   UNL     1       3.388  -8.365   6.183  0.00  0.00    +0.096 C 
BRANCH  31  32
ATOM     32  C   UNL     1       4.292  -9.308   6.733  0.00  0.00    +0.380 C 
ATOM     33  O   UNL     1       3.912 -10.091   7.583  0.00  0.00    -0.241 OA
ATOM     34  O   UNL     1       5.574  -9.338   6.314  0.00  0.00    -0.241 OA
ENDBRANCH  31  32
ENDBRANCH  27  30
ENDBRANCH  22  24
ENDBRANCH  19  20
ENDBRANCH  18  19
ENDBRANCH  10  18
TORSDOF 7
