REMARK  Name = ZINC16752732
REMARK  10 active torsions:
REMARK  status: ('A' for Active; 'I' for Inactive)
REMARK    1  A    between atoms: C_1  and  C_2
REMARK    2  A    between atoms: C_6  and  N_9
REMARK    3  A    between atoms: C_7  and  C_8
REMARK    4  A    between atoms: N_9  and  C_10
REMARK    5  A    between atoms: C_15  and  C_16
REMARK    6  A    between atoms: C_16  and  O_18
REMARK    7  A    between atoms: O_18  and  C_19
REMARK    8  A    between atoms: C_19  and  C_20
REMARK    9  A    between atoms: C_29  and  S_31
REMARK   10  A    between atoms: S_31  and  N_34
REMARK                            x       y       z     vdW  Elec       q    Type
REMARK                         _______ _______ _______ _____ _____    ______ ____
ROOT
ATOM      1  O   UNL     1       4.274   6.896   0.355  0.00  0.00    -0.452 OA
ENDROOT
BRANCH   1   2
ATOM      2  C   UNL     1       5.502   7.448   0.273  0.00  0.00    +0.341 C 
ATOM      3  O   UNL     1       6.489   6.740   0.311  0.00  0.00    -0.245 OA
BRANCH   2   9
ATOM      4  C   UNL     1       6.922   9.491   0.097  0.00  0.00    +0.045 A 
ATOM      5  C   UNL     1       7.044  10.869  -0.031  0.00  0.00    +0.024 A 
ATOM      6  C   UNL     1       5.916  11.658  -0.119  0.00  0.00    +0.002 A 
ATOM      7  C   UNL     1       4.654  11.085  -0.080  0.00  0.00    +0.001 A 
ATOM      8  C   UNL     1       4.512   9.720   0.041  0.00  0.00    +0.017 A 
ATOM      9  C   UNL     1       5.646   8.907   0.137  0.00  0.00    +0.080 A 
BRANCH   4  10
ATOM     10  N   UNL     1       8.057   8.694   0.186  0.00  0.00    -0.314 N 
ATOM     11  H   UNL     1       8.517   8.598   1.034  0.00  0.00    +0.152 HD
BRANCH  10  17
ATOM     12  C   UNL     1      11.232   5.540  -1.845  0.00  0.00    +0.044 C 
ATOM     13  C   UNL     1      10.074   6.497  -1.962  0.00  0.00    -0.046 A 
ATOM     14  C   UNL     1       9.484   6.721  -3.192  0.00  0.00    +0.004 A 
ATOM     15  C   UNL     1       8.421   7.599  -3.304  0.00  0.00    +0.002 A 
ATOM     16  C   UNL     1       7.946   8.255  -2.185  0.00  0.00    +0.023 A 
ATOM     17  C   UNL     1       8.536   8.032  -0.948  0.00  0.00    +0.035 A 
ATOM     18  C   UNL     1       9.607   7.154  -0.841  0.00  0.00    -0.026 A 
ATOM     19  C   UNL     1      10.255   6.914   0.499  0.00  0.00    +0.046 C 
ENDBRANCH  10  17
ENDBRANCH   4  10
ENDBRANCH   2   9
ENDBRANCH   1   2
BRANCH   1  20
ATOM     20  C   UNL     1       4.208   5.452   0.487  0.00  0.00    +0.328 C 
BRANCH  20  21
ATOM     21  C   UNL     1       2.767   5.020   0.564  0.00  0.00    +0.258 C 
ATOM     22  O   UNL     1       1.882   5.848   0.512  0.00  0.00    -0.272 OA
ATOM     23  N   UNL     1       2.460   3.714   0.690  0.00  0.00    -0.268 N 
ATOM     24  C   UNL     1       3.438   2.625   0.764  0.00  0.00    +0.118 C 
ATOM     25  C   UNL     1       2.603   1.341   0.902  0.00  0.00    +0.056 C 
ATOM     26  C   UNL     1       1.168   1.818   0.896  0.00  0.00    -0.023 A 
ATOM     27  C   UNL     1       1.163   3.199   0.770  0.00  0.00    +0.040 A 
ATOM     28  C   UNL     1      -0.060   3.872   0.741  0.00  0.00    +0.026 A 
ATOM     29  C   UNL     1      -1.243   3.170   0.836  0.00  0.00    +0.030 A 
ATOM     30  C   UNL     1      -1.227   1.792   0.955  0.00  0.00    +0.105 A 
ATOM     31  C   UNL     1      -0.019   1.119   0.990  0.00  0.00    +0.034 A 
BRANCH  30  32
ATOM     32  S   UNL     1      -2.741   0.898   1.068  0.00  0.00    +0.056 S 
ATOM     33  O   UNL     1      -3.738   1.709   0.462  0.00  0.00    -0.153 OA
ATOM     34  O   UNL     1      -2.464  -0.425   0.628  0.00  0.00    -0.153 OA
BRANCH  32  35
ATOM     35  N   UNL     1      -3.128   0.792   2.674  0.00  0.00    -0.204 NA
ATOM     36  H   UNL     1      -2.547   1.190   3.341  0.00  0.00    +0.144 HD
ATOM     37  H   UNL     1      -3.936   0.331   2.949  0.00  0.00    +0.144 HD
ENDBRANCH  32  35
ENDBRANCH  30  32
ENDBRANCH  20  21
ENDBRANCH   1  20
TORSDOF 8
