REMARK  Name = ZINC02417773
REMARK  6 active torsions:
REMARK  status: ('A' for Active; 'I' for Inactive)
REMARK    1  A    between atoms: C_1  and  C_2
REMARK    2  A    between atoms: C_6  and  S_8
REMARK    3  A    between atoms: S_8  and  C_11
REMARK    4  A    between atoms: N_22  and  C_25
REMARK    5  A    between atoms: C_23  and  N_24
REMARK    6  A    between atoms: C_25  and  C_26
REMARK                            x       y       z     vdW  Elec       q    Type
REMARK                         _______ _______ _______ _____ _____    ______ ____
ROOT
ATOM      1  C   UNL     1      -1.246   2.874   2.944  0.00  0.00    +0.160 A 
ATOM      2  C   UNL     1      -2.084   1.736   3.013  0.00  0.00    +0.135 A 
ATOM      3  C   UNL     1      -1.708   0.890   1.873  0.00  0.00    +0.163 A 
ATOM      4  N   UNL     1      -2.328  -0.252   1.677  0.00  0.00    -0.226 NA
ATOM      5  C   UNL     1      -3.297  -0.637   2.518  0.00  0.00    +0.092 A 
ATOM      6  C   UNL     1      -3.966  -1.859   2.315  0.00  0.00    +0.030 A 
ATOM      7  C   UNL     1      -4.948  -2.243   3.174  0.00  0.00    +0.002 A 
ATOM      8  C   UNL     1      -5.307  -1.443   4.257  0.00  0.00    +0.002 A 
ATOM      9  C   UNL     1      -4.684  -0.256   4.486  0.00  0.00    +0.030 A 
ATOM     10  C   UNL     1      -3.662   0.176   3.620  0.00  0.00    +0.090 A 
ATOM     11  N   UNL     1      -3.043   1.343   3.836  0.00  0.00    -0.240 NA
ATOM     12  N   UNL     1      -0.698   1.558   1.213  0.00  0.00    -0.307 N 
ATOM     13  C   UNL     1      -0.434   2.734   1.870  0.00  0.00    +0.126 A 
ENDROOT
BRANCH   1  14
ATOM     14  S   UNL     1      -1.254   4.234   4.065  0.00  0.00    +0.030 S 
ATOM     15  O   UNL     1      -0.716   5.344   3.361  0.00  0.00    -0.164 OA
ATOM     16  O   UNL     1      -2.544   4.262   4.661  0.00  0.00    -0.164 OA
BRANCH  14  22
ATOM     17  C   UNL     1       3.554   4.331   6.114  0.00  0.00    +0.044 C 
ATOM     18  C   UNL     1       2.108   3.926   6.244  0.00  0.00    -0.049 A 
ATOM     19  C   UNL     1       1.677   3.257   7.374  0.00  0.00    +0.003 A 
ATOM     20  C   UNL     1       0.351   2.886   7.494  0.00  0.00    +0.002 A 
ATOM     21  C   UNL     1      -0.546   3.189   6.486  0.00  0.00    +0.027 A 
ATOM     22  C   UNL     1      -0.113   3.853   5.353  0.00  0.00    +0.094 A 
ATOM     23  C   UNL     1       1.213   4.224   5.234  0.00  0.00    +0.030 A 
ENDBRANCH  14  22
ENDBRANCH   1  14
BRANCH  13  24
ATOM     24  N   UNL     1       0.527   3.651   1.486  0.00  0.00    -0.343 N 
ATOM     25  H   UNL     1       1.070   3.483   0.700  0.00  0.00    +0.144 HD
ATOM     26  H   UNL     1       0.657   4.462   2.001  0.00  0.00    +0.144 HD
ENDBRANCH  13  24
BRANCH  12  27
ATOM     27  C   UNL     1      -0.013   1.086   0.008  0.00  0.00    +0.160 C 
BRANCH  27  28
ATOM     28  C   UNL     1      -0.742   1.585  -1.213  0.00  0.00    -0.024 A 
ATOM     29  C   UNL     1      -0.397   2.801  -1.773  0.00  0.00    +0.009 A 
ATOM     30  C   UNL     1      -1.062   3.263  -2.893  0.00  0.00    +0.050 A 
ATOM     31  C   UNL     1      -2.077   2.508  -3.457  0.00  0.00    +0.166 A 
ATOM     32  C   UNL     1      -2.425   1.283  -2.893  0.00  0.00    +0.167 A 
ATOM     33  C   UNL     1      -1.750   0.823  -1.774  0.00  0.00    +0.055 A 
ATOM     34  O   UNL     1      -3.441   0.738  -3.624  0.00  0.00    -0.453 OA
ATOM     35  C   UNL     1      -3.436   1.447  -4.877  0.00  0.00    +0.466 C 
ATOM     36  O   UNL     1      -2.876   2.731  -4.542  0.00  0.00    -0.453 OA
ENDBRANCH  27  28
ENDBRANCH  12  27
TORSDOF 5
