REMARK  Name = ZINC09064577
REMARK  8 active torsions:
REMARK  status: ('A' for Active; 'I' for Inactive)
REMARK    1  A    between atoms: C_1  and  C_2
REMARK    2  A    between atoms: C_2  and  C_3
REMARK    3  A    between atoms: C_9  and  C_11
REMARK    4  A    between atoms: C_14  and  N_18
REMARK    5  A    between atoms: C_15  and  C_17
REMARK    6  A    between atoms: N_18  and  C_19
REMARK    7  A    between atoms: C_19  and  N_21
REMARK    8  A    between atoms: C_22  and  C_24
REMARK                            x       y       z     vdW  Elec       q    Type
REMARK                         _______ _______ _______ _____ _____    ______ ____
ROOT
ATOM      1  C   UNL     1       2.397   1.389   0.024  0.00  0.00    +0.009 A 
ATOM      2  C   UNL     1       2.390   0.017   0.279  0.00  0.00    +0.012 A 
ATOM      3  C   UNL     1       1.200  -0.677   0.274  0.00  0.00    +0.024 A 
ATOM      4  C   UNL     1       0.006  -0.011   0.014  0.00  0.00    +0.036 A 
ATOM      5  C   UNL     1       0.011   1.355  -0.241  0.00  0.00    -0.029 A 
ATOM      6  C   UNL     1       1.198   2.054  -0.238  0.00  0.00    +0.015 A 
ATOM      7  C   UNL     1      -1.283   2.071  -0.529  0.00  0.00    +0.045 C 
ENDROOT
BRANCH   1  14
ATOM      8  C   UNL     1       7.350   2.511   0.375  0.00  0.00    +0.155 A 
ATOM      9  N   UNL     1       7.809   3.719   0.202  0.00  0.00    -0.132 NA
ATOM     10  N   UNL     1       6.840   4.526  -0.059  0.00  0.00    -0.120 NA
ATOM     11  C   UNL     1       5.720   3.868  -0.064  0.00  0.00    +0.218 A 
ATOM     12  N   UNL     1       5.980   2.547   0.213  0.00  0.00    -0.190 N 
ATOM     13  N   UNL     1       4.885   1.694   0.248  0.00  0.00    -0.156 NA
ATOM     14  C   UNL     1       3.674   2.137   0.028  0.00  0.00    +0.132 A 
ATOM     15  S   UNL     1       3.957   3.874  -0.273  0.00  0.00    -0.026 S 
BRANCH   8  17
ATOM     16  C   UNL     1       8.610   0.613  -0.604  0.00  0.00    +0.012 C 
ATOM     17  C   UNL     1       8.171   1.289   0.697  0.00  0.00    +0.075 C 
ENDBRANCH   8  17
ENDBRANCH   1  14
BRANCH   4  18
ATOM     18  N   UNL     1      -1.199  -0.718   0.010  0.00  0.00    -0.296 N 
ATOM     19  H   UNL     1      -1.966  -0.371   0.492  0.00  0.00    +0.154 HD
BRANCH  18  20
ATOM     20  C   UNL     1      -1.296  -1.880  -0.666  0.00  0.00    +0.141 C 
ATOM     21  S   UNL     1       0.085  -2.547  -1.426  0.00  0.00    -0.018 S 
BRANCH  20  22
ATOM     22  N   UNL     1      -2.481  -2.517  -0.742  0.00  0.00    -0.263 N 
ATOM     23  C   UNL     1      -2.579  -3.680  -1.417  0.00  0.00    +0.252 C 
ATOM     24  O   UNL     1      -1.598  -4.153  -1.957  0.00  0.00    -0.270 OA
ATOM     25  H   UNL     1      -3.264  -2.139  -0.312  0.00  0.00    +0.157 HD
BRANCH  23  26
ATOM     26  C   UNL     1      -3.877  -4.378  -1.502  0.00  0.00    +0.072 A 
ATOM     27  C   UNL     1      -5.005  -3.840  -0.878  0.00  0.00    +0.016 A 
ATOM     28  C   UNL     1      -6.215  -4.494  -0.965  0.00  0.00    +0.001 A 
ATOM     29  C   UNL     1      -6.314  -5.688  -1.659  0.00  0.00    +0.003 A 
ATOM     30  C   UNL     1      -5.202  -6.231  -2.275  0.00  0.00    +0.039 A 
ATOM     31  C   UNL     1      -3.982  -5.584  -2.201  0.00  0.00    +0.135 A 
ATOM     32  F   UNL     1      -2.896  -6.116  -2.803  0.00  0.00    -0.205 F 
ENDBRANCH  23  26
ENDBRANCH  20  22
ENDBRANCH  18  20
ENDBRANCH   4  18
TORSDOF 6
