REMARK  Name = ZINC34976345
REMARK  8 active torsions:
REMARK  status: ('A' for Active; 'I' for Inactive)
REMARK    1  A    between atoms: C_1  and  C_2
REMARK    2  A    between atoms: C_6  and  N_8
REMARK    3  A    between atoms: N_11  and  C_12
REMARK    4  A    between atoms: C_12  and  C_13
REMARK    5  A    between atoms: C_13  and  N_14
REMARK    6  A    between atoms: N_14  and  C_15
REMARK    7  A    between atoms: N_24  and  C_25
REMARK    8  A    between atoms: C_29  and  C_31
REMARK                            x       y       z     vdW  Elec       q    Type
REMARK                         _______ _______ _______ _____ _____    ______ ____
ROOT
ATOM      1  N   UNL     1      -0.374  -8.317   5.513  0.00  0.00    -0.254 N 
ATOM      2  C   UNL     1      -1.562  -8.952   5.551  0.00  0.00    +0.311 C 
ATOM      3  O   UNL     1      -2.504  -8.444   6.129  0.00  0.00    -0.252 OA
ATOM      4  N   UNL     1      -1.707 -10.149   4.949  0.00  0.00    -0.269 N 
ATOM      5  H   UNL     1      -0.934 -10.600   4.576  0.00  0.00    +0.156 HD
ENDROOT
BRANCH   1   6
ATOM      6  C   UNL     1       0.737  -8.946   4.937  0.00  0.00    +0.038 A 
ATOM      7  C   UNL     1       0.778  -9.166   3.567  0.00  0.00    +0.026 A 
ATOM      8  C   UNL     1       1.874  -9.786   3.000  0.00  0.00    +0.040 A 
ATOM      9  C   UNL     1       2.933 -10.188   3.798  0.00  0.00    +0.124 A 
ATOM     10  C   UNL     1       2.894  -9.969   5.165  0.00  0.00    +0.040 A 
ATOM     11  C   UNL     1       1.802  -9.344   5.734  0.00  0.00    +0.026 A 
ATOM     12  F   UNL     1       4.004 -10.795   3.242  0.00  0.00    -0.205 F 
ENDBRANCH   1   6
BRANCH   4  13
ATOM     13  C   UNL     1      -2.972 -10.740   4.863  0.00  0.00    +0.035 A 
ATOM     14  C   UNL     1      -4.103  -9.947   4.715  0.00  0.00    +0.023 A 
ATOM     15  C   UNL     1      -5.350 -10.534   4.630  0.00  0.00    +0.002 A 
ATOM     16  C   UNL     1      -5.474 -11.910   4.691  0.00  0.00    +0.012 A 
ATOM     17  C   UNL     1      -4.351 -12.702   4.839  0.00  0.00    +0.057 A 
ATOM     18  C   UNL     1      -3.100 -12.122   4.918  0.00  0.00    +0.035 A 
BRANCH  17  19
ATOM     19  C   UNL     1      -4.490 -14.201   4.906  0.00  0.00    +0.417 C 
ATOM     20  F   UNL     1      -5.841 -14.549   4.799  0.00  0.00    -0.166 F 
ATOM     21  F   UNL     1      -3.774 -14.784   3.855  0.00  0.00    -0.166 F 
ATOM     22  F   UNL     1      -3.986 -14.662   6.127  0.00  0.00    -0.166 F 
ENDBRANCH  17  19
ENDBRANCH   4  13
BRANCH   1  23
ATOM     23  C   UNL     1      -0.244  -6.971   6.075  0.00  0.00    +0.134 C 
BRANCH  23  24
ATOM     24  C   UNL     1      -0.542  -5.934   4.990  0.00  0.00    +0.125 C 
BRANCH  24  28
ATOM     25  N   UNL     1      -0.511  -2.270   5.290  0.00  0.00    -0.269 N 
ATOM     26  C   UNL     1      -0.631  -3.509   4.773  0.00  0.00    +0.304 C 
ATOM     27  O   UNL     1      -0.936  -3.654   3.605  0.00  0.00    -0.253 OA
ATOM     28  N   UNL     1      -0.412  -4.588   5.551  0.00  0.00    -0.298 N 
ATOM     29  H   UNL     1      -0.186  -2.152   6.196  0.00  0.00    +0.156 HD
ATOM     30  H   UNL     1      -0.169  -4.472   6.483  0.00  0.00    +0.150 HD
BRANCH  25  36
ATOM     31  C   UNL     1      -3.373  -0.219   1.858  0.00  0.00    +0.044 C 
ATOM     32  C   UNL     1      -2.240  -0.132   2.848  0.00  0.00    -0.049 A 
ATOM     33  C   UNL     1      -1.541   1.052   2.996  0.00  0.00    +0.003 A 
ATOM     34  C   UNL     1      -0.501   1.136   3.903  0.00  0.00    +0.002 A 
ATOM     35  C   UNL     1      -0.158   0.036   4.665  0.00  0.00    +0.023 A 
ATOM     36  C   UNL     1      -0.857  -1.154   4.519  0.00  0.00    +0.035 A 
ATOM     37  C   UNL     1      -1.905  -1.234   3.611  0.00  0.00    +0.026 A 
ENDBRANCH  25  36
ENDBRANCH  24  28
ENDBRANCH  23  24
ENDBRANCH   1  23
TORSDOF 7
