REMARK  Name = ZINC08566471
REMARK  9 active torsions:
REMARK  status: ('A' for Active; 'I' for Inactive)
REMARK    1  A    between atoms: C_1  and  O_2
REMARK    2  A    between atoms: O_2  and  C_3
REMARK    3  A    between atoms: C_5  and  C_18
REMARK    4  A    between atoms: C_8  and  O_9
REMARK    5  A    between atoms: O_9  and  C_10
REMARK    6  A    between atoms: C_10  and  C_11
REMARK    7  A    between atoms: C_21  and  C_32
REMARK    8  A    between atoms: C_27  and  N_31
REMARK    9  A    between atoms: C_28  and  C_29
REMARK                            x       y       z     vdW  Elec       q    Type
REMARK                         _______ _______ _______ _____ _____    ______ ____
ROOT
ATOM      1  C   UNL     1      -4.871   0.257   0.037  0.00  0.00    +0.102 C 
ATOM      2  C   UNL     1      -5.695  -0.081  -1.178  0.00  0.00    +0.054 A 
ATOM      3  C   UNL     1      -5.479   0.261  -2.516  0.00  0.00    +0.100 A 
ATOM      4  N   UNL     1      -6.460  -0.256  -3.231  0.00  0.00    -0.171 NA
ATOM      5  N   UNL     1      -7.327  -0.940  -2.364  0.00  0.00    -0.246 N 
ATOM      6  H   UNL     1      -8.132  -1.415  -2.620  0.00  0.00    +0.192 HD
ATOM      7  C   UNL     1      -6.841  -0.820  -1.111  0.00  0.00    +0.223 A 
ATOM      8  O   UNL     1      -7.330  -1.307   0.057  0.00  0.00    -0.423 OA
ATOM      9  C   UNL     1      -6.813  -0.819   1.203  0.00  0.00    +0.200 C 
ATOM     10  C   UNL     1      -5.679  -0.085   1.265  0.00  0.00    +0.098 C 
ENDROOT
BRANCH   1  13
ATOM     11  C   UNL     1      -1.201  -0.638   0.010  0.00  0.00    +0.162 A 
ATOM     12  C   UNL     1      -2.374   0.099   0.019  0.00  0.00    +0.054 A 
ATOM     13  C   UNL     1      -3.596  -0.546   0.027  0.00  0.00    -0.031 A 
ATOM     14  C   UNL     1      -3.652  -1.928   0.026  0.00  0.00    +0.008 A 
ATOM     15  C   UNL     1      -2.485  -2.669   0.017  0.00  0.00    +0.050 A 
ATOM     16  C   UNL     1      -1.257  -2.028   0.003  0.00  0.00    +0.162 A 
BRANCH  11  18
ATOM     17  C   UNL     1      -0.017   1.425   0.010  0.00  0.00    +0.277 C 
ATOM     18  O   UNL     1       0.002  -0.004   0.002  0.00  0.00    -0.491 OA
ENDBRANCH  11  18
BRANCH  16  19
ATOM     19  O   UNL     1      -0.108  -2.756  -0.012  0.00  0.00    -0.484 OA
BRANCH  19  20
ATOM     20  C   UNL     1      -0.242  -4.179  -0.018  0.00  0.00    +0.266 C 
BRANCH  20  21
ATOM     21  C   UNL     1       1.125  -4.812  -0.034  0.00  0.00    +0.008 A 
ATOM     22  C   UNL     1       2.256  -4.016  -0.035  0.00  0.00    +0.008 A 
ATOM     23  C   UNL     1       3.510  -4.596  -0.050  0.00  0.00    +0.000 A 
ATOM     24  C   UNL     1       3.635  -5.973  -0.064  0.00  0.00    +0.001 A 
ATOM     25  C   UNL     1       2.506  -6.770  -0.064  0.00  0.00    +0.020 A 
ATOM     26  C   UNL     1       1.250  -6.190  -0.043  0.00  0.00    +0.047 A 
ATOM     27 CL   UNL     1      -0.169  -7.190  -0.035  0.00  0.00    -0.083 Cl
ENDBRANCH  20  21
ENDBRANCH  19  20
ENDBRANCH  16  19
ENDBRANCH   1  13
BRANCH   3  28
ATOM     28  C   UNL     1      -4.346   1.063  -3.041  0.00  0.00    +0.003 A 
ATOM     29  C   UNL     1      -3.818   2.106  -2.282  0.00  0.00    +0.010 A 
ATOM     30  C   UNL     1      -2.764   2.849  -2.774  0.00  0.00    +0.001 A 
ATOM     31  C   UNL     1      -2.233   2.561  -4.018  0.00  0.00    +0.000 A 
ATOM     32  C   UNL     1      -2.753   1.527  -4.776  0.00  0.00    +0.001 A 
ATOM     33  C   UNL     1      -3.803   0.773  -4.290  0.00  0.00    +0.010 A 
ENDBRANCH   3  28
BRANCH   9  34
ATOM     34  N   UNL     1      -7.477  -1.082   2.376  0.00  0.00    -0.328 N 
ATOM     35  H   UNL     1      -8.293  -1.606   2.364  0.00  0.00    +0.145 HD
ATOM     36  H   UNL     1      -7.129  -0.745   3.216  0.00  0.00    +0.145 HD
ENDBRANCH   9  34
BRANCH  10  37
ATOM     37  C   UNL     1      -5.228   0.384   2.540  0.00  0.00    +0.101 C 
ATOM     38  N   UNL     1      -4.870   0.756   3.552  0.00  0.00    -0.191 NA
ENDBRANCH  10  37
TORSDOF 8
