REMARK  Name = ZINC21596006
REMARK  5 active torsions:
REMARK  status: ('A' for Active; 'I' for Inactive)
REMARK    1  A    between atoms: C_3  and  C_22
REMARK    2  A    between atoms: C_5  and  N_7
REMARK    3  A    between atoms: N_7  and  C_8
REMARK    4  A    between atoms: C_8  and  N_10
REMARK    5  A    between atoms: C_11  and  C_13
REMARK                            x       y       z     vdW  Elec       q    Type
REMARK                         _______ _______ _______ _____ _____    ______ ____
ROOT
ATOM      1  N   UNL     1       5.730   8.509  -0.006  0.00  0.00    -0.297 N 
ATOM      2  H   UNL     1       6.276   9.069   0.768  0.00  0.00    +0.154 HD
ENDROOT
BRANCH   1   7
ATOM      3  C   UNL     1       2.229   9.598   0.318  0.00  0.00    +0.003 A 
ATOM      4  C   UNL     1       1.556   8.423   0.054  0.00  0.00    +0.013 A 
ATOM      5  C   UNL     1       2.270   7.259  -0.234  0.00  0.00    +0.039 A 
ATOM      6  C   UNL     1       3.664   7.288  -0.249  0.00  0.00    +0.036 A 
ATOM      7  C   UNL     1       4.331   8.474   0.013  0.00  0.00    +0.033 A 
ATOM      8  C   UNL     1       3.611   9.628   0.299  0.00  0.00    +0.023 A 
BRANCH   5   9
ATOM      9  C   UNL     1       1.551   5.998  -0.517  0.00  0.00    +0.228 A 
ATOM     10  N   UNL     1       2.123   4.855  -0.798  0.00  0.00    -0.209 NA
ATOM     11  C   UNL     1       1.158   3.922  -0.999  0.00  0.00    +0.111 A 
ATOM     12  C   UNL     1       1.183   2.562  -1.319  0.00  0.00    +0.051 A 
ATOM     13  C   UNL     1      -0.001   1.871  -1.459  0.00  0.00    +0.043 A 
ATOM     14  C   UNL     1      -1.216   2.519  -1.287  0.00  0.00    +0.024 A 
ATOM     15  C   UNL     1      -1.256   3.860  -0.965  0.00  0.00    +0.050 A 
ATOM     16  C   UNL     1      -0.074   4.571  -0.821  0.00  0.00    +0.156 A 
ATOM     17  O   UNL     1       0.212   5.858  -0.523  0.00  0.00    -0.435 OA
ATOM     18 CL   UNL     1       0.028   0.182  -1.858  0.00  0.00    -0.083 Cl
ENDBRANCH   5   9
ENDBRANCH   1   7
BRANCH   1  19
ATOM     19  C   UNL     1       6.408   7.858  -0.971  0.00  0.00    +0.141 C 
ATOM     20  S   UNL     1       5.559   7.106  -2.254  0.00  0.00    -0.018 S 
BRANCH  19  21
ATOM     21  N   UNL     1       7.753   7.798  -0.927  0.00  0.00    -0.264 N 
ATOM     22  C   UNL     1       8.431   7.146  -1.892  0.00  0.00    +0.250 C 
ATOM     23  O   UNL     1       7.829   6.613  -2.803  0.00  0.00    -0.270 OA
ATOM     24  H   UNL     1       8.298   8.281  -0.102  0.00  0.00    +0.157 HD
BRANCH  22  25
ATOM     25  C   UNL     1       9.905   7.081  -1.843  0.00  0.00    +0.039 A 
ATOM     26  C   UNL     1      10.592   7.703  -0.783  0.00  0.00    +0.015 A 
ATOM     27  C   UNL     1      11.939   7.666  -0.700  0.00  0.00    +0.031 A 
ATOM     28  C   UNL     1      12.702   6.992  -1.692  0.00  0.00    +0.100 A 
ATOM     29  C   UNL     1      12.002   6.343  -2.797  0.00  0.00    +0.101 A 
ATOM     30  C   UNL     1      10.588   6.406  -2.834  0.00  0.00    +0.043 A 
ATOM     31  N   UNL     1      12.844   5.754  -3.646  0.00  0.00    -0.191 NA
ATOM     32  S   UNL     1      14.283   6.013  -3.084  0.00  0.00    +0.116 S 
ATOM     33  N   UNL     1      14.022   6.848  -1.784  0.00  0.00    -0.191 NA
ENDBRANCH  22  25
ENDBRANCH  19  21
ENDBRANCH   1  19
TORSDOF 5
