REMARK  Name = ZINC39227442
REMARK  6 active torsions:
REMARK  status: ('A' for Active; 'I' for Inactive)
REMARK    1  A    between atoms: C_1  and  C_2
REMARK    2  A    between atoms: C_2  and  C_3
REMARK    3  A    between atoms: C_2  and  N_4
REMARK    4  A    between atoms: C_15  and  C_20
REMARK    5  A    between atoms: C_24  and  C_26
REMARK    6  A    between atoms: N_28  and  C_29
REMARK                            x       y       z     vdW  Elec       q    Type
REMARK                         _______ _______ _______ _____ _____    ______ ____
ROOT
ATOM      1  N   UNL     1      -1.394  -0.510   0.019  0.00  0.00    +0.381 N 
ATOM      2  C   UNL     1      -1.362  -1.977   0.017  0.00  0.00    -0.075 C 
ATOM      3  C   UNL     1      -2.789  -2.522   0.108  0.00  0.00    +0.030 C 
ATOM      4  C   UNL     1      -3.598  -2.023  -1.092  0.00  0.00    +0.114 C 
ATOM      5  C   UNL     1      -3.561  -0.494  -1.125  0.00  0.00    +0.030 C 
ATOM      6  C   UNL     1      -2.105  -0.025  -1.171  0.00  0.00    -0.075 C 
ATOM      7  C   UNL     1      -5.053  -2.492  -0.955  0.00  0.00    +0.127 C 
ATOM      8  C   UNL     1      -5.801  -1.991  -2.179  0.00  0.00    +0.170 C 
ATOM      9  O   UNL     1      -6.930  -1.555  -2.102  0.00  0.00    -0.292 OA
ATOM     10  C   UNL     1      -5.082  -2.061  -3.464  0.00  0.00    +0.060 A 
ATOM     11  C   UNL     1      -5.757  -1.856  -4.667  0.00  0.00    +0.023 A 
ATOM     12  C   UNL     1      -5.055  -1.922  -5.864  0.00  0.00    -0.017 A 
ATOM     13  C   UNL     1      -3.684  -2.191  -5.856  0.00  0.00    +0.012 A 
ATOM     14  C   UNL     1      -3.018  -2.394  -4.668  0.00  0.00    +0.047 A 
ATOM     15  C   UNL     1      -3.704  -2.334  -3.461  0.00  0.00    +0.132 A 
ATOM     16  O   UNL     1      -3.042  -2.544  -2.298  0.00  0.00    -0.485 OA
ATOM     17  H   UNL     1      -1.869  -0.187   0.848  0.00  0.00    -0.081 HD
ENDROOT
BRANCH  12  18
ATOM     18  C   UNL     1      -5.762  -1.707  -7.152  0.00  0.00    -0.017 A 
ATOM     19  C   UNL     1      -7.130  -1.434  -7.160  0.00  0.00    +0.008 A 
ATOM     20  C   UNL     1      -7.790  -1.234  -8.357  0.00  0.00    +0.001 A 
ATOM     21  C   UNL     1      -7.102  -1.303  -9.552  0.00  0.00    +0.013 A 
ATOM     22  C   UNL     1      -5.733  -1.576  -9.556  0.00  0.00    +0.038 A 
ATOM     23  C   UNL     1      -5.061  -1.773  -8.351  0.00  0.00    +0.021 A 
BRANCH  22  24
ATOM     24  C   UNL     1      -4.996  -1.651 -10.836  0.00  0.00    +0.248 C 
ATOM     25  O   UNL     1      -3.804  -1.888 -10.838  0.00  0.00    -0.270 OA
ATOM     26  N   UNL     1      -5.646  -1.455 -12.000  0.00  0.00    -0.282 N 
ATOM     27  H   UNL     1      -6.609  -1.332 -12.003  0.00  0.00    +0.155 HD
BRANCH  26  28
ATOM     28  C   UNL     1      -4.934  -1.429 -13.203  0.00  0.00    +0.034 A 
ATOM     29  C   UNL     1      -5.326  -0.575 -14.226  0.00  0.00    +0.023 A 
ATOM     30  C   UNL     1      -4.620  -0.552 -15.413  0.00  0.00    +0.002 A 
ATOM     31  C   UNL     1      -3.524  -1.377 -15.583  0.00  0.00    +0.000 A 
ATOM     32  C   UNL     1      -3.131  -2.228 -14.567  0.00  0.00    +0.002 A 
ATOM     33  C   UNL     1      -3.829  -2.253 -13.376  0.00  0.00    +0.023 A 
ENDBRANCH  26  28
ENDBRANCH  22  24
ENDBRANCH  12  18
BRANCH   1  35
ATOM     34  C   UNL     1      -0.051   1.538   0.022  0.00  0.00    -0.014 C 
ATOM     35  C   UNL     1      -0.019   0.008   0.011  0.00  0.00    -0.075 C 
ATOM     36  C   UNL     1       0.723  -0.496   1.250  0.00  0.00    -0.014 C 
ENDBRANCH   1  35
TORSDOF 4
