REMARK  Name = ZINC54201117
REMARK  9 active torsions:
REMARK  status: ('A' for Active; 'I' for Inactive)
REMARK    1  A    between atoms: C_1  and  C_2
REMARK    2  A    between atoms: C_2  and  C_3
REMARK    3  A    between atoms: C_3  and  C_4
REMARK    4  A    between atoms: C_10  and  C_12
REMARK    5  A    between atoms: C_12  and  C_13
REMARK    6  A    between atoms: C_13  and  C_15
REMARK    7  A    between atoms: C_13  and  N_21
REMARK    8  A    between atoms: N_21  and  S_22
REMARK    9  A    between atoms: S_22  and  C_25
REMARK                            x       y       z     vdW  Elec       q    Type
REMARK                         _______ _______ _______ _____ _____    ______ ____
ROOT
ATOM      1  C   UNL     1      -1.316  -9.293   0.732  0.00  0.00    +0.115 C 
ENDROOT
BRANCH   1   2
ATOM      2  C   UNL     1      -1.175 -10.718   0.262  0.00  0.00    -0.028 A 
ATOM      3  C   UNL     1      -2.279 -11.401  -0.215  0.00  0.00    +0.005 A 
ATOM      4  C   UNL     1      -2.150 -12.708  -0.646  0.00  0.00    +0.000 A 
ATOM      5  C   UNL     1      -0.917 -13.332  -0.602  0.00  0.00    +0.000 A 
ATOM      6  C   UNL     1       0.186 -12.649  -0.126  0.00  0.00    +0.000 A 
ATOM      7  C   UNL     1       0.058 -11.341   0.302  0.00  0.00    +0.005 A 
ENDBRANCH   1   2
BRANCH   1   8
ATOM      8  N   UNL     1      -2.567  -9.147   1.480  0.00  0.00    -0.182 NA
ATOM      9  H   UNL     1      -3.397  -8.976   1.008  0.00  0.00    +0.149 HD
BRANCH   8  10
ATOM     10  S   UNL     1      -2.564  -9.275   3.131  0.00  0.00    +0.059 S 
ATOM     11  O   UNL     1      -3.903  -9.062   3.557  0.00  0.00    -0.153 OA
ATOM     12  O   UNL     1      -1.844 -10.459   3.445  0.00  0.00    -0.153 OA
BRANCH  10  13
ATOM     13  C   UNL     1      -1.617  -7.928   3.756  0.00  0.00    +0.105 A 
ATOM     14  C   UNL     1      -0.254  -8.069   3.943  0.00  0.00    +0.029 A 
ATOM     15  C   UNL     1       0.490  -7.013   4.433  0.00  0.00    +0.017 A 
ATOM     16  C   UNL     1      -0.129  -5.814   4.737  0.00  0.00    +0.018 A 
ATOM     17  C   UNL     1      -1.492  -5.673   4.551  0.00  0.00    +0.017 A 
ATOM     18  C   UNL     1      -2.235  -6.728   4.056  0.00  0.00    +0.029 A 
ATOM     19 BR   UNL     1       0.888  -4.368   5.408  0.00  0.00    -0.050 Br
ENDBRANCH  10  13
ENDBRANCH   8  10
ENDBRANCH   1   8
BRANCH   1  20
ATOM     20  C   UNL     1      -1.333  -8.357  -0.478  0.00  0.00    +0.121 C 
BRANCH  20  27
ATOM     21  C   UNL     1      -1.413  -2.041   0.005  0.00  0.00    +0.104 A 
ATOM     22  N   UNL     1      -1.398  -2.891   1.011  0.00  0.00    -0.145 NA
ATOM     23  N   UNL     1      -1.382  -4.131   0.768  0.00  0.00    -0.126 NA
ATOM     24  C   UNL     1      -1.381  -4.599  -0.465  0.00  0.00    +0.188 A 
ATOM     25  S   UNL     1      -1.410  -3.179  -1.373  0.00  0.00    -0.035 S 
ATOM     26  N   UNL     1      -1.366  -5.920  -0.901  0.00  0.00    -0.263 N 
ATOM     27  C   UNL     1      -1.349  -6.926  -0.004  0.00  0.00    +0.221 C 
ATOM     28  O   UNL     1      -1.348  -6.680   1.183  0.00  0.00    -0.275 OA
ATOM     29  H   UNL     1      -1.367  -6.117  -1.851  0.00  0.00    +0.157 HD
BRANCH  21  30
ATOM     30  C   UNL     1      -1.433  -0.534   0.013  0.00  0.00    +0.064 C 
BRANCH  30  32
ATOM     31  C   UNL     1      -0.019   1.526   0.010  0.00  0.00    +0.004 C 
ATOM     32  C   UNL     1       0.002  -0.004   0.002  0.00  0.00    +0.003 C 
ENDBRANCH  30  32
ENDBRANCH  21  30
ENDBRANCH  20  27
ENDBRANCH   1  20
TORSDOF 8
