REMARK  Name = ZINC12342071
REMARK  6 active torsions:
REMARK  status: ('A' for Active; 'I' for Inactive)
REMARK    1  A    between atoms: C_1  and  C_2
REMARK    2  A    between atoms: C_5  and  C_8
REMARK    3  A    between atoms: C_8  and  C_10
REMARK    4  A    between atoms: C_11  and  N_29
REMARK    5  A    between atoms: C_12  and  C_19
REMARK    6  A    between atoms: N_21  and  C_22
REMARK                            x       y       z     vdW  Elec       q    Type
REMARK                         _______ _______ _______ _____ _____    ______ ____
ROOT
ATOM      1  C   UNL     1       2.600   3.669   0.025  0.00  0.00    +0.116 A 
ATOM      2  C   UNL     1       3.463   2.581   0.143  0.00  0.00    +0.067 A 
ATOM      3  C   UNL     1       2.691   1.415  -0.022  0.00  0.00    +0.083 A 
ATOM      4  C   UNL     1       1.355   1.828  -0.240  0.00  0.00    +0.061 A 
ATOM      5  N   UNL     1       1.318   3.192  -0.208  0.00  0.00    -0.311 N 
ATOM      6  C   UNL     1       0.139   3.848  -0.392  0.00  0.00    +0.092 A 
ATOM      7  C   UNL     1      -1.009   3.164  -0.609  0.00  0.00    +0.018 A 
ATOM      8  C   UNL     1      -0.997   1.765  -0.651  0.00  0.00    +0.003 A 
ATOM      9  C   UNL     1       0.180   1.099  -0.462  0.00  0.00    +0.027 A 
ENDROOT
BRANCH   3  10
ATOM     10  C   UNL     1       3.177   0.037   0.023  0.00  0.00    +0.252 C 
ATOM     11  O   UNL     1       3.558  -0.508  -0.998  0.00  0.00    -0.270 OA
ATOM     12  N   UNL     1       3.204  -0.630   1.194  0.00  0.00    -0.281 N 
ATOM     13  H   UNL     1       2.972  -0.174   2.017  0.00  0.00    +0.155 HD
BRANCH  12  14
ATOM     14  C   UNL     1       3.568  -1.981   1.221  0.00  0.00    +0.034 A 
ATOM     15  C   UNL     1       3.243  -2.810   0.155  0.00  0.00    +0.024 A 
ATOM     16  C   UNL     1       3.609  -4.142   0.181  0.00  0.00    +0.017 A 
ATOM     17  C   UNL     1       4.287  -4.653   1.274  0.00  0.00    +0.018 A 
ATOM     18  C   UNL     1       4.606  -3.830   2.340  0.00  0.00    +0.017 A 
ATOM     19  C   UNL     1       4.248  -2.496   2.316  0.00  0.00    +0.024 A 
ATOM     20 BR   UNL     1       4.778  -6.478   1.311  0.00  0.00    -0.050 Br
ENDBRANCH  12  14
ENDBRANCH   3  10
BRANCH   2  21
ATOM     21  N   UNL     1       4.827   2.637   0.379  0.00  0.00    -0.356 N 
ATOM     22  H   UNL     1       5.254   3.489   0.557  0.00  0.00    +0.142 HD
ATOM     23  H   UNL     1       5.355   1.823   0.365  0.00  0.00    +0.142 HD
ENDBRANCH   2  21
BRANCH   1  24
ATOM     24  C   UNL     1       2.967   5.025   0.127  0.00  0.00    +0.212 C 
ATOM     25  O   UNL     1       2.913   5.592   1.205  0.00  0.00    -0.285 OA
BRANCH  24  30
ATOM     26  C   UNL     1       4.718   7.891  -4.547  0.00  0.00    +0.044 C 
ATOM     27  C   UNL     1       4.260   7.141  -3.323  0.00  0.00    -0.050 A 
ATOM     28  C   UNL     1       4.294   7.756  -2.085  0.00  0.00    +0.004 A 
ATOM     29  C   UNL     1       3.876   7.075  -0.961  0.00  0.00    +0.012 A 
ATOM     30  C   UNL     1       3.417   5.762  -1.075  0.00  0.00    +0.024 A 
ATOM     31  C   UNL     1       3.391   5.145  -2.326  0.00  0.00    +0.012 A 
ATOM     32  C   UNL     1       3.807   5.839  -3.443  0.00  0.00    +0.004 A 
ENDBRANCH  24  30
ENDBRANCH   1  24
TORSDOF 5
