REMARK  Name = ZINC15497709
REMARK  5 active torsions:
REMARK  status: ('A' for Active; 'I' for Inactive)
REMARK    1  A    between atoms: C_3  and  S_8
REMARK    2  A    between atoms: S_8  and  N_11
REMARK    3  A    between atoms: C_14  and  C_17
REMARK    4  A    between atoms: N_19  and  N_20
REMARK    5  A    between atoms: C_21  and  C_23
REMARK                            x       y       z     vdW  Elec       q    Type
REMARK                         _______ _______ _______ _____ _____    ______ ____
ROOT
ATOM      1  C   UNL     1       1.134   7.486   4.416  0.00  0.00    +0.232 C 
ATOM      2  O   UNL     1       2.030   8.269   4.184  0.00  0.00    -0.274 OA
ATOM      3  N   UNL     1       0.125   7.841   5.236  0.00  0.00    -0.234 N 
ATOM      4  H   UNL     1      -0.592   7.215   5.422  0.00  0.00    +0.173 HD
ENDROOT
BRANCH   1   8
ATOM      5  N   UNL     1       1.153   4.329   1.596  0.00  0.00    -0.177 NA
ATOM      6  C   UNL     1      -0.108   4.534   2.322  0.00  0.00    +0.110 C 
ATOM      7  C   UNL     1      -0.108   5.935   2.932  0.00  0.00    +0.030 C 
ATOM      8  C   UNL     1       1.148   6.116   3.788  0.00  0.00    +0.079 C 
ATOM      9  C   UNL     1       2.392   5.971   2.909  0.00  0.00    +0.030 C 
ATOM     10  C   UNL     1       2.421   4.565   2.300  0.00  0.00    +0.110 C 
BRANCH   5  11
ATOM     11  S   UNL     1       1.145   3.848   0.011  0.00  0.00    +0.061 S 
ATOM     12  O   UNL     1       2.379   4.274  -0.549  0.00  0.00    -0.153 OA
ATOM     13  O   UNL     1      -0.111   4.238  -0.526  0.00  0.00    -0.153 OA
BRANCH  11  16
ATOM     14  C   UNL     1       0.002  -0.004   0.002  0.00  0.00    +0.040 A 
ATOM     15  C   UNL     1      -0.017   1.378   0.010  0.00  0.00    +0.031 A 
ATOM     16  C   UNL     1       1.171   2.086   0.002  0.00  0.00    +0.106 A 
ATOM     17  C   UNL     1       2.378   1.413  -0.013  0.00  0.00    +0.031 A 
ATOM     18  C   UNL     1       2.399   0.031  -0.021  0.00  0.00    +0.040 A 
ATOM     19  C   UNL     1       1.211  -0.679  -0.013  0.00  0.00    +0.124 A 
ATOM     20  F   UNL     1       1.230  -2.030  -0.020  0.00  0.00    -0.205 F 
ENDBRANCH  11  16
ENDBRANCH   5  11
ENDBRANCH   1   8
BRANCH   3  21
ATOM     21  N   UNL     1       0.112   9.115   5.820  0.00  0.00    -0.230 N 
ATOM     22  C   UNL     1      -0.897   9.470   6.640  0.00  0.00    +0.267 C 
ATOM     23  O   UNL     1      -1.797   8.684   6.873  0.00  0.00    -0.268 OA
ATOM     24  H   UNL     1       0.829   9.741   5.634  0.00  0.00    +0.173 HD
BRANCH  22  25
ATOM     25  C   UNL     1      -0.910  10.802   7.251  0.00  0.00    +0.076 A 
ATOM     26  C   UNL     1      -1.837  11.361   8.102  0.00  0.00    +0.024 A 
ATOM     27  C   UNL     1      -1.611  12.660   8.571  0.00  0.00    -0.036 A 
ATOM     28  C   UNL     1      -0.524  13.296   8.102  0.00  0.00    -0.006 A 
ATOM     29  S   UNL     1       0.264  12.131   7.082  0.00  0.00    -0.088 S 
ATOM     30  C   UNL     1      -0.016  14.708   8.257  0.00  0.00    +0.043 C 
ATOM     31  C   UNL     1      -0.956  15.568   9.104  0.00  0.00    +0.005 C 
ATOM     32  C   UNL     1      -0.773  15.293  10.588  0.00  0.00    +0.000 C 
ATOM     33  C   UNL     1      -0.529  13.831  10.896  0.00  0.00    +0.000 C 
ATOM     34  C   UNL     1      -1.904  13.155  10.972  0.00  0.00    +0.005 C 
ATOM     35  C   UNL     1      -2.572  13.236   9.601  0.00  0.00    +0.036 C 
ENDBRANCH  22  25
ENDBRANCH   3  21
TORSDOF 5
