REMARK  Name = ZINC13077465
REMARK  9 active torsions:
REMARK  status: ('A' for Active; 'I' for Inactive)
REMARK    1  A    between atoms: C_1  and  C_2
REMARK    2  A    between atoms: C_5  and  C_8
REMARK    3  A    between atoms: N_10  and  C_11
REMARK    4  A    between atoms: C_15  and  C_17
REMARK    5  A    between atoms: C_20  and  C_27
REMARK    6  A    between atoms: C_30  and  O_33
REMARK    7  A    between atoms: O_33  and  C_34
REMARK    8  A    between atoms: C_34  and  C_36
REMARK    9  A    between atoms: C_34  and  C_37
REMARK                            x       y       z     vdW  Elec       q    Type
REMARK                         _______ _______ _______ _____ _____    ______ ____
ROOT
ATOM      1  C   UNL     1      -8.639   1.562   0.216  0.00  0.00    +0.167 C 
ATOM      2  C   UNL     1      -9.436   1.065  -0.960  0.00  0.00    +0.028 C 
ATOM      3  C   UNL     1     -10.491   0.269  -0.842  0.00  0.00    +0.039 C 
ATOM      4  N   UNL     1     -10.956  -0.170   0.405  0.00  0.00    -0.282 N 
ATOM      5  C   UNL     1     -10.440   0.459   1.527  0.00  0.00    +0.240 A 
ATOM      6  N   UNL     1      -9.358   1.278   1.451  0.00  0.00    -0.202 N 
ATOM      7  N   UNL     1      -9.140   1.728   2.752  0.00  0.00    -0.042 NA
ATOM      8  N   UNL     1     -10.051   1.179   3.489  0.00  0.00    -0.021 NA
ATOM      9  N   UNL     1     -10.817   0.430   2.773  0.00  0.00    -0.092 NA
ATOM     10  H   UNL     1     -11.610  -0.882   0.479  0.00  0.00    +0.155 HD
ENDROOT
BRANCH   1  15
ATOM     11  C   UNL     1      -4.906   0.971   0.179  0.00  0.00    +0.034 A 
ATOM     12  C   UNL     1      -4.846  -0.413   0.289  0.00  0.00    +0.023 A 
ATOM     13  C   UNL     1      -6.012  -1.147   0.384  0.00  0.00    +0.002 A 
ATOM     14  C   UNL     1      -7.238  -0.507   0.358  0.00  0.00    +0.006 A 
ATOM     15  C   UNL     1      -7.301   0.869   0.243  0.00  0.00    -0.017 A 
ATOM     16  C   UNL     1      -6.138   1.610   0.154  0.00  0.00    +0.029 A 
BRANCH  11  19
ATOM     17  C   UNL     1      -3.656   2.937   0.658  0.00  0.00    +0.248 C 
ATOM     18  O   UNL     1      -4.639   3.419   1.186  0.00  0.00    -0.270 OA
ATOM     19  N   UNL     1      -3.727   1.718   0.088  0.00  0.00    -0.281 N 
ATOM     20  H   UNL     1      -2.961   1.359  -0.386  0.00  0.00    +0.155 HD
BRANCH  17  25
ATOM     21  C   UNL     1       1.305   5.852   0.608  0.00  0.00    +0.044 C 
ATOM     22  C   UNL     1       0.005   5.090   0.618  0.00  0.00    -0.050 A 
ATOM     23  C   UNL     1      -1.112   5.642   1.219  0.00  0.00    +0.004 A 
ATOM     24  C   UNL     1      -2.305   4.950   1.232  0.00  0.00    +0.013 A 
ATOM     25  C   UNL     1      -2.382   3.687   0.642  0.00  0.00    +0.037 A 
ATOM     26  C   UNL     1      -1.253   3.139   0.032  0.00  0.00    +0.013 A 
ATOM     27  C   UNL     1      -0.066   3.841   0.026  0.00  0.00    +0.004 A 
ENDBRANCH  17  25
ENDBRANCH  11  19
ENDBRANCH   1  15
BRANCH   3  28
ATOM     28  C   UNL     1     -11.199  -0.168  -2.067  0.00  0.00    -0.004 A 
ATOM     29  C   UNL     1     -10.759   0.260  -3.320  0.00  0.00    +0.013 A 
ATOM     30  C   UNL     1     -11.418  -0.155  -4.458  0.00  0.00    +0.046 A 
ATOM     31  C   UNL     1     -12.525  -0.987  -4.357  0.00  0.00    +0.122 A 
ATOM     32  C   UNL     1     -12.969  -1.410  -3.112  0.00  0.00    +0.046 A 
ATOM     33  C   UNL     1     -12.312  -1.004  -1.970  0.00  0.00    +0.013 A 
BRANCH  31  34
ATOM     34  O   UNL     1     -13.175  -1.389  -5.481  0.00  0.00    -0.478 OA
BRANCH  34  35
ATOM     35  C   UNL     1     -14.361  -2.164  -5.301  0.00  0.00    +0.282 C 
ATOM     36  C   UNL     1     -15.550  -1.231  -5.064  0.00  0.00    +0.064 C 
BRANCH  35  37
ATOM     37  C   UNL     1     -14.612  -2.993  -6.535  0.00  0.00    +0.395 C 
ATOM     38  O   UNL     1     -13.852  -2.925  -7.473  0.00  0.00    -0.242 OA
ATOM     39  O   UNL     1     -15.679  -3.805  -6.594  0.00  0.00    -0.242 OA
ENDBRANCH  35  37
ENDBRANCH  34  35
ENDBRANCH  31  34
ENDBRANCH   3  28
TORSDOF 7
