REMARK  Name = ZINC49425712
REMARK  6 active torsions:
REMARK  status: ('A' for Active; 'I' for Inactive)
REMARK    1  A    between atoms: C_1  and  C_2
REMARK    2  A    between atoms: C_9  and  C_11
REMARK    3  A    between atoms: C_14  and  N_17
REMARK    4  A    between atoms: C_18  and  C_20
REMARK    5  A    between atoms: N_29  and  C_30
REMARK    6  A    between atoms: C_30  and  C_31
REMARK                            x       y       z     vdW  Elec       q    Type
REMARK                         _______ _______ _______ _____ _____    ______ ____
ROOT
ATOM      1  N   UNL     1       0.157 -10.275   2.435  0.00  0.00    -0.285 N 
ATOM      2  C   UNL     1       0.069 -11.178   1.438  0.00  0.00    +0.222 C 
ATOM      3  O   UNL     1       0.065 -10.806   0.283  0.00  0.00    -0.275 OA
ATOM      4  H   UNL     1       0.236 -10.575   3.354  0.00  0.00    +0.155 HD
ENDROOT
BRANCH   2   5
ATOM      5  C   UNL     1      -0.024 -12.648   1.757  0.00  0.00    +0.093 C 
ATOM      6  C   UNL     1      -0.115 -13.448   0.456  0.00  0.00    +0.016 C 
ATOM      7  C   UNL     1      -0.176 -14.943   0.778  0.00  0.00    +0.020 C 
ATOM      8  C   UNL     1      -1.429 -15.231   1.611  0.00  0.00    +0.109 C 
ATOM      9  N   UNL     1      -1.421 -14.358   2.794  0.00  0.00    -0.285 N 
ATOM     10  C   UNL     1      -1.275 -12.909   2.602  0.00  0.00    +0.122 C 
ATOM     11  C   UNL     1      -1.546 -14.878   4.031  0.00  0.00    +0.302 C 
ATOM     12  O   UNL     1      -1.631 -14.140   4.994  0.00  0.00    -0.253 OA
ATOM     13  N   UNL     1      -1.577 -16.214   4.201  0.00  0.00    -0.295 N 
ATOM     14  H   UNL     1      -1.584 -16.801   3.429  0.00  0.00    +0.151 HD
BRANCH  13  15
ATOM     15  C   UNL     1      -1.602 -16.781   5.552  0.00  0.00    +0.148 C 
BRANCH  15  16
ATOM     16  C   UNL     1      -1.635 -18.285   5.465  0.00  0.00    +0.007 A 
ATOM     17  C   UNL     1      -0.601 -19.161   5.431  0.00  0.00    +0.013 A 
ATOM     18  C   UNL     1      -0.871 -20.514   5.350  0.00  0.00    +0.008 A 
ATOM     19  C   UNL     1      -2.162 -20.925   5.308  0.00  0.00    +0.045 A 
ATOM     20  S   UNL     1      -3.046 -19.376   5.389  0.00  0.00    -0.100 S 
ENDBRANCH  15  16
ENDBRANCH  13  15
ENDBRANCH   2   5
BRANCH   1  24
ATOM     21  C   UNL     1       0.092  -6.199   1.570  0.00  0.00    +0.007 A 
ATOM     22  C   UNL     1      -0.643  -7.092   0.788  0.00  0.00    +0.012 A 
ATOM     23  C   UNL     1      -0.619  -8.439   1.076  0.00  0.00    +0.024 A 
ATOM     24  C   UNL     1       0.136  -8.909   2.145  0.00  0.00    +0.033 A 
ATOM     25  C   UNL     1       0.868  -8.023   2.926  0.00  0.00    +0.024 A 
ATOM     26  C   UNL     1       0.854  -6.675   2.639  0.00  0.00    +0.012 A 
BRANCH  21  35
ATOM     27  C   UNL     1      -0.081   1.473  -0.118  0.00  0.00    +0.044 C 
ATOM     28  C   UNL     1       0.141   0.088   0.433  0.00  0.00    -0.049 A 
ATOM     29  C   UNL     1       0.968  -0.104   1.531  0.00  0.00    +0.005 A 
ATOM     30  C   UNL     1       1.189  -1.341   2.051  0.00  0.00    +0.029 A 
ATOM     31  C   UNL     1       0.578  -2.486   1.484  0.00  0.00    +0.079 A 
ATOM     32  C   UNL     1      -0.259  -2.257   0.366  0.00  0.00    +0.040 A 
ATOM     33  C   UNL     1      -0.480  -1.002  -0.147  0.00  0.00    +0.020 A 
ATOM     34  S   UNL     1      -0.814  -3.896  -0.033  0.00  0.00    -0.067 S 
ATOM     35  C   UNL     1       0.068  -4.753   1.264  0.00  0.00    +0.109 A 
ATOM     36  N   UNL     1       0.691  -3.770   1.876  0.00  0.00    -0.239 NA
ENDBRANCH  21  35
ENDBRANCH   1  24
TORSDOF 5
