REMARK  Name = ZINC39606947
REMARK  8 active torsions:
REMARK  status: ('A' for Active; 'I' for Inactive)
REMARK    1  A    between atoms: C_1  and  C_2
REMARK    2  A    between atoms: C_9  and  C_14
REMARK    3  A    between atoms: C_14  and  O_16
REMARK    4  A    between atoms: O_16  and  C_17
REMARK    5  A    between atoms: C_17  and  C_19
REMARK    6  A    between atoms: C_17  and  C_20
REMARK    7  A    between atoms: N_22  and  C_23
REMARK    8  A    between atoms: C_26  and  N_29
REMARK                            x       y       z     vdW  Elec       q    Type
REMARK                         _______ _______ _______ _____ _____    ______ ____
ROOT
ATOM      1  C   UNL     1       8.875   0.910   0.513  0.00  0.00    +0.259 C 
ATOM      2  C   UNL     1       9.632  -0.420   0.509  0.00  0.00    +0.062 C 
ENDROOT
BRANCH   1   3
ATOM      3  C   UNL     1       9.543   1.865   1.469  0.00  0.00    +0.258 C 
ATOM      4  O   UNL     1       8.954   2.240   2.461  0.00  0.00    -0.271 OA
ATOM      5  N   UNL     1      10.793   2.301   1.222  0.00  0.00    -0.282 N 
ATOM      6  H   UNL     1      11.288   1.952   0.464  0.00  0.00    +0.155 HD
BRANCH   5   7
ATOM      7  C   UNL     1      11.379   3.260   2.059  0.00  0.00    +0.034 A 
ATOM      8  C   UNL     1      12.227   4.222   1.526  0.00  0.00    +0.025 A 
ATOM      9  C   UNL     1      12.804   5.167   2.351  0.00  0.00    +0.025 A 
ATOM     10  C   UNL     1      12.537   5.155   3.714  0.00  0.00    +0.030 A 
ATOM     11  C   UNL     1      11.689   4.192   4.247  0.00  0.00    +0.025 A 
ATOM     12  C   UNL     1      11.108   3.251   3.421  0.00  0.00    +0.025 A 
BRANCH  10  13
ATOM     13  N   UNL     1      13.121   6.112   4.550  0.00  0.00    -0.330 N 
ATOM     14  C   UNL     1      12.953   6.036   6.008  0.00  0.00    +0.105 C 
ATOM     15  C   UNL     1      14.335   6.065   6.667  0.00  0.00    +0.019 C 
ATOM     16  C   UNL     1      15.099   7.301   6.186  0.00  0.00    +0.003 C 
ATOM     17  C   UNL     1      15.288   7.228   4.669  0.00  0.00    +0.019 C 
ATOM     18  C   UNL     1      13.921   7.209   3.988  0.00  0.00    +0.105 C 
ENDBRANCH  10  13
ENDBRANCH   5   7
ENDBRANCH   1   3
BRANCH   1  19
ATOM     19  O   UNL     1       7.525   0.688   0.927  0.00  0.00    -0.449 OA
BRANCH  19  20
ATOM     20  C   UNL     1       6.627   0.414  -0.040  0.00  0.00    +0.340 C 
ATOM     21  O   UNL     1       6.979   0.365  -1.201  0.00  0.00    -0.245 OA
BRANCH  20  29
ATOM     22  C   UNL     1      -0.008   1.569  -0.107  0.00  0.00    +0.029 C 
ATOM     23  C   UNL     1       0.004   0.039  -0.093  0.00  0.00    +0.134 C 
ATOM     24  C   UNL     1       0.725  -0.471  -1.310  0.00  0.00    +0.230 C 
ATOM     25  O   UNL     1       0.067  -0.758  -2.288  0.00  0.00    -0.274 OA
ATOM     26  N   UNL     1       2.045  -0.623  -1.375  0.00  0.00    -0.284 N 
ATOM     27  C   UNL     1       2.959  -0.337  -0.363  0.00  0.00    +0.048 A 
ATOM     28  C   UNL     1       4.286  -0.110  -0.690  0.00  0.00    +0.039 A 
ATOM     29  C   UNL     1       5.216   0.173   0.313  0.00  0.00    +0.061 A 
ATOM     30  C   UNL     1       4.812   0.230   1.651  0.00  0.00    +0.016 A 
ATOM     31  C   UNL     1       3.492   0.006   1.976  0.00  0.00    +0.017 A 
ATOM     32  C   UNL     1       2.567  -0.274   0.979  0.00  0.00    +0.030 A 
ATOM     33  S   UNL     1       0.869  -0.550   1.394  0.00  0.00    -0.111 S 
ATOM     34  H   UNL     1       2.406  -0.968  -2.207  0.00  0.00    +0.155 HD
ENDBRANCH  20  29
ENDBRANCH  19  20
ENDBRANCH   1  19
TORSDOF 6
