REMARK  Name = ZINC08870635
REMARK  4 active torsions:
REMARK  status: ('A' for Active; 'I' for Inactive)
REMARK    1  A    between atoms: C_4  and  C_7
REMARK    2  A    between atoms: C_7  and  C_9
REMARK    3  A    between atoms: C_28  and  N_29
REMARK    4  A    between atoms: C_30  and  C_32
REMARK                            x       y       z     vdW  Elec       q    Type
REMARK                         _______ _______ _______ _____ _____    ______ ____
ROOT
ATOM      1  C   UNL     1       3.693  -2.192  -0.067  0.00  0.00    +0.177 C 
ATOM      2  C   UNL     1       4.965  -2.628  -0.764  0.00  0.00    -0.011 C 
ATOM      3  C   UNL     1       5.844  -3.420  -0.040  0.00  0.00    +0.012 A 
ATOM      4  C   UNL     1       7.096  -3.884  -0.638  0.00  0.00    +0.032 A 
ATOM      5  C   UNL     1       7.948  -4.670   0.110  0.00  0.00    +0.012 A 
ATOM      6  C   UNL     1       7.622  -5.019   1.424  0.00  0.00    +0.003 A 
ATOM      7  C   UNL     1       6.476  -4.616   2.027  0.00  0.00    +0.024 A 
ATOM      8  C   UNL     1       5.536  -3.808   1.342  0.00  0.00    +0.042 A 
ATOM      9  N   UNL     1       4.415  -3.418   1.942  0.00  0.00    -0.284 N 
ATOM     10  C   UNL     1       3.498  -2.662   1.359  0.00  0.00    +0.232 C 
ATOM     11  O   UNL     1       2.497  -2.344   1.971  0.00  0.00    -0.274 OA
ATOM     12  C   UNL     1       7.403  -3.493  -2.028  0.00  0.00    +0.196 C 
ATOM     13  O   UNL     1       8.431  -3.854  -2.568  0.00  0.00    -0.287 OA
ATOM     14  C   UNL     1       6.425  -2.649  -2.741  0.00  0.00    +0.051 A 
ATOM     15  C   UNL     1       5.237  -2.240  -2.092  0.00  0.00    -0.007 A 
ATOM     16  C   UNL     1       4.320  -1.437  -2.787  0.00  0.00    +0.009 A 
ATOM     17  C   UNL     1       4.580  -1.053  -4.090  0.00  0.00    +0.002 A 
ATOM     18  C   UNL     1       5.740  -1.451  -4.725  0.00  0.00    +0.024 A 
ATOM     19  C   UNL     1       6.669  -2.252  -4.059  0.00  0.00    +0.045 A 
ATOM     20  H   UNL     1       4.261  -3.703   2.857  0.00  0.00    +0.155 HD
ENDROOT
BRANCH  19  21
ATOM     21  N   UNL     1       7.835  -2.649  -4.702  0.00  0.00    -0.281 N 
ATOM     22  C   UNL     1       8.333  -1.909  -5.712  0.00  0.00    +0.248 C 
ATOM     23  O   UNL     1       7.821  -0.843  -5.995  0.00  0.00    -0.270 OA
ATOM     24  H   UNL     1       8.290  -3.459  -4.423  0.00  0.00    +0.155 HD
BRANCH  22  25
ATOM     25  C   UNL     1       9.502  -2.393  -6.476  0.00  0.00    +0.037 A 
ATOM     26  C   UNL     1      10.088  -3.619  -6.158  0.00  0.00    +0.013 A 
ATOM     27  C   UNL     1      11.179  -4.065  -6.876  0.00  0.00    +0.001 A 
ATOM     28  C   UNL     1      11.691  -3.300  -7.909  0.00  0.00    +0.000 A 
ATOM     29  C   UNL     1      11.114  -2.084  -8.230  0.00  0.00    +0.001 A 
ATOM     30  C   UNL     1      10.020  -1.629  -7.524  0.00  0.00    +0.013 A 
ENDBRANCH  22  25
ENDBRANCH  19  21
BRANCH   1  31
ATOM     31  C   UNL     1       3.655  -0.686  -0.068  0.00  0.00    +0.179 C 
ATOM     32  O   UNL     1       4.689  -0.053  -0.076  0.00  0.00    -0.291 OA
BRANCH  31  36
ATOM     33  C   UNL     1      -0.072   1.341  -0.050  0.00  0.00    +0.000 A 
ATOM     34  C   UNL     1       1.107   2.067  -0.057  0.00  0.00    +0.001 A 
ATOM     35  C   UNL     1       2.322   1.415  -0.063  0.00  0.00    +0.011 A 
ATOM     36  C   UNL     1       2.362   0.018  -0.061  0.00  0.00    +0.019 A 
ATOM     37  C   UNL     1       1.167  -0.709  -0.053  0.00  0.00    +0.011 A 
ATOM     38  C   UNL     1      -0.041  -0.043  -0.048  0.00  0.00    +0.001 A 
ENDBRANCH  31  36
ENDBRANCH   1  31
TORSDOF 4
