REMARK  Name = ZINC66890909
REMARK  9 active torsions:
REMARK  status: ('A' for Active; 'I' for Inactive)
REMARK    1  A    between atoms: C_1  and  C_2
REMARK    2  A    between atoms: C_5  and  N_9
REMARK    3  A    between atoms: C_6  and  C_8
REMARK    4  A    between atoms: C_10  and  C_12
REMARK    5  A    between atoms: C_12  and  C_14
REMARK    6  A    between atoms: C_12  and  N_15
REMARK    7  A    between atoms: C_18  and  N_21
REMARK    8  A    between atoms: C_22  and  C_24
REMARK    9  A    between atoms: C_28  and  C_29
REMARK                            x       y       z     vdW  Elec       q    Type
REMARK                         _______ _______ _______ _____ _____    ______ ____
ROOT
ATOM      1  N   UNL     1      -0.112  -6.835  -2.571  0.00  0.00    +0.387 N 
ATOM      2  C   UNL     1      -0.073  -8.302  -2.567  0.00  0.00    -0.076 C 
ATOM      3  C   UNL     1       0.032  -8.817  -4.004  0.00  0.00    +0.004 C 
ATOM      4  C   UNL     1      -1.184  -8.339  -4.802  0.00  0.00    +0.070 C 
ATOM      5  C   UNL     1      -1.256  -6.811  -4.737  0.00  0.00    +0.004 C 
ATOM      6  C   UNL     1      -1.314  -6.370  -3.273  0.00  0.00    -0.076 C 
ATOM      7  H   UNL     1       0.709  -6.480  -3.040  0.00  0.00    -0.081 HD
ENDROOT
BRANCH   4   8
ATOM      8  N   UNL     1      -1.052  -8.765  -6.198  0.00  0.00    -0.309 N 
ATOM      9  C   UNL     1      -2.152  -8.922  -6.961  0.00  0.00    +0.248 C 
ATOM     10  O   UNL     1      -3.254  -8.710  -6.491  0.00  0.00    -0.270 OA
ATOM     11  H   UNL     1      -0.174  -8.934  -6.572  0.00  0.00    +0.149 HD
BRANCH   9  12
ATOM     12  C   UNL     1      -2.019  -9.350  -8.365  0.00  0.00    +0.077 A 
ATOM     13  C   UNL     1      -0.775  -9.654  -9.088  0.00  0.00    +0.054 A 
ATOM     14  C   UNL     1      -1.146  -9.999 -10.330  0.00  0.00    +0.196 A 
ATOM     15  O   UNL     1      -2.483  -9.933 -10.425  0.00  0.00    -0.467 OA
ATOM     16  C   UNL     1      -3.025  -9.554  -9.264  0.00  0.00    +0.114 A 
ATOM     17  C   UNL     1      -4.497  -9.377  -8.994  0.00  0.00    +0.087 C 
ENDBRANCH   9  12
ENDBRANCH   4   8
BRANCH   1  18
ATOM     18  C   UNL     1      -0.134  -6.343  -1.187  0.00  0.00    +0.016 C 
ATOM     19  C   UNL     1       1.085  -6.880  -0.435  0.00  0.00    -0.004 C 
BRANCH  18  21
ATOM     20  N   UNL     1      -0.657  -4.148  -0.173  0.00  0.00    -0.287 N 
ATOM     21  C   UNL     1      -0.099  -4.836  -1.189  0.00  0.00    +0.203 C 
ATOM     22  O   UNL     1       0.432  -4.243  -2.104  0.00  0.00    -0.277 OA
ATOM     23  H   UNL     1      -1.025  -4.622   0.589  0.00  0.00    +0.155 HD
BRANCH  20  28
ATOM     24  C   UNL     1      -0.859   1.519  -0.360  0.00  0.00    +0.044 C 
ATOM     25  C   UNL     1      -0.805   0.013  -0.311  0.00  0.00    -0.050 A 
ATOM     26  C   UNL     1       0.226  -0.662  -0.938  0.00  0.00    +0.005 A 
ATOM     27  C   UNL     1       0.278  -2.041  -0.895  0.00  0.00    +0.024 A 
ATOM     28  C   UNL     1      -0.707  -2.750  -0.219  0.00  0.00    +0.036 A 
ATOM     29  C   UNL     1      -1.740  -2.070   0.410  0.00  0.00    -0.029 A 
ATOM     30  C   UNL     1      -1.784  -0.690   0.367  0.00  0.00    +0.008 A 
ATOM     31  C   UNL     1      -2.811  -2.835   1.144  0.00  0.00    +0.045 C 
ENDBRANCH  20  28
ENDBRANCH  18  21
ENDBRANCH   1  18
TORSDOF 5
