REMARK  Name = ZINC08965442
REMARK  15 active torsions:
REMARK  status: ('A' for Active; 'I' for Inactive)
REMARK    1  A    between atoms: C_1  and  C_2
REMARK    2  A    between atoms: C_3  and  C_34
REMARK    3  A    between atoms: C_4  and  C_32
REMARK    4  A    between atoms: C_5  and  S_9
REMARK    5  A    between atoms: C_7  and  C_8
REMARK    6  A    between atoms: S_9  and  C_10
REMARK    7  A    between atoms: C_10  and  C_11
REMARK    8  A    between atoms: C_12  and  C_26
REMARK    9  A    between atoms: C_13  and  C_21
REMARK   10  A    between atoms: C_15  and  C_19
REMARK   11  A    between atoms: C_16  and  N_18
REMARK   12  A    between atoms: C_26  and  O_28
REMARK   13  A    between atoms: O_28  and  C_29
REMARK   14  A    between atoms: C_29  and  C_30
REMARK   15  A    between atoms: C_29  and  C_31
REMARK                            x       y       z     vdW  Elec       q    Type
REMARK                         _______ _______ _______ _____ _____    ______ ____
ROOT
ATOM      1  C   UNL     1       3.524   2.073   5.074  0.00  0.00    +0.128 C 
ATOM      2  C   UNL     1       3.464   1.119   6.012  0.00  0.00    +0.088 C 
ATOM      3  C   UNL     1       3.960   1.370   7.410  0.00  0.00    +0.111 C 
ATOM      4  C   UNL     1       4.833   2.596   7.427  0.00  0.00    +0.099 C 
ATOM      5  C   UNL     1       4.815   3.474   6.395  0.00  0.00    +0.198 C 
ATOM      6  O   UNL     1       4.028   3.291   5.323  0.00  0.00    -0.444 OA
ENDROOT
BRANCH   3   7
ATOM      7  C   UNL     1       2.784   1.580   8.329  0.00  0.00    +0.003 A 
ATOM      8  C   UNL     1       2.421   0.871   9.425  0.00  0.00    +0.012 A 
ATOM      9  C   UNL     1       1.290   1.250  10.124  0.00  0.00    +0.008 A 
ATOM     10  C   UNL     1       0.578   2.320   9.692  0.00  0.00    +0.045 A 
ATOM     11  S   UNL     1       1.513   2.832   8.260  0.00  0.00    -0.101 S 
ENDBRANCH   3   7
BRANCH   5  12
ATOM     12  N   UNL     1       5.627   4.579   6.444  0.00  0.00    -0.328 N 
ATOM     13  H   UNL     1       6.205   4.723   7.211  0.00  0.00    +0.145 HD
ATOM     14  H   UNL     1       5.625   5.216   5.713  0.00  0.00    +0.145 HD
ENDBRANCH   5  12
BRANCH   4  15
ATOM     15  C   UNL     1       5.694   2.837   8.546  0.00  0.00    +0.101 C 
ATOM     16  N   UNL     1       6.376   3.027   9.434  0.00  0.00    -0.191 NA
ENDBRANCH   4  15
BRANCH   2  17
ATOM     17  C   UNL     1       2.924  -0.149   5.682  0.00  0.00    +0.340 C 
ATOM     18  O   UNL     1       2.162  -0.259   4.740  0.00  0.00    -0.245 OA
BRANCH  17  19
ATOM     19  O   UNL     1       3.255  -1.234   6.412  0.00  0.00    -0.459 OA
BRANCH  19  20
ATOM     20  C   UNL     1       2.674  -2.480   6.023  0.00  0.00    +0.171 C 
ATOM     21  C   UNL     1       3.629  -3.621   6.378  0.00  0.00    +0.052 C 
ATOM     22  C   UNL     1       1.348  -2.676   6.761  0.00  0.00    +0.052 C 
ENDBRANCH  19  20
ENDBRANCH  17  19
ENDBRANCH   2  17
BRANCH   1  23
ATOM     23  C   UNL     1       3.014   1.765   3.690  0.00  0.00    +0.150 C 
BRANCH  23  24
ATOM     24  S   UNL     1       1.403   2.554   3.451  0.00  0.00    -0.097 S 
BRANCH  24  29
ATOM     25  C   UNL     1       0.319   0.773  -2.177  0.00  0.00    +0.046 C 
ATOM     26  C   UNL     1       0.547   1.241  -0.763  0.00  0.00    -0.025 A 
ATOM     27  C   UNL     1      -0.399   2.027  -0.128  0.00  0.00    -0.026 A 
ATOM     28  C   UNL     1      -0.145   2.444   1.183  0.00  0.00    +0.087 A 
ATOM     29  C   UNL     1       1.054   2.045   1.801  0.00  0.00    +0.115 A 
ATOM     30  N   UNL     1       1.923   1.287   1.148  0.00  0.00    -0.244 NA
ATOM     31  C   UNL     1       1.700   0.884  -0.088  0.00  0.00    +0.043 A 
ATOM     32  C   UNL     1       2.725   0.022  -0.780  0.00  0.00    +0.066 C 
ATOM     33  C   UNL     1      -1.669   2.428  -0.833  0.00  0.00    +0.045 C 
BRANCH  28  34
ATOM     34  C   UNL     1      -1.087   3.264   1.884  0.00  0.00    +0.102 C 
ATOM     35  N   UNL     1      -1.835   3.913   2.439  0.00  0.00    -0.191 NA
ENDBRANCH  28  34
ENDBRANCH  24  29
ENDBRANCH  23  24
ENDBRANCH   1  23
TORSDOF 10
