REMARK  Name = ZINC00626669
REMARK  10 active torsions:
REMARK  status: ('A' for Active; 'I' for Inactive)
REMARK    1  A    between atoms: C_1  and  C_2
REMARK    2  A    between atoms: C_3  and  C_26
REMARK    3  A    between atoms: C_4  and  C_16
REMARK    4  A    between atoms: C_10  and  C_14
REMARK    5  A    between atoms: C_10  and  C_15
REMARK    6  A    between atoms: C_18  and  O_24
REMARK    7  A    between atoms: C_19  and  O_23
REMARK    8  A    between atoms: O_24  and  C_25
REMARK    9  A    between atoms: C_26  and  O_28
REMARK   10  A    between atoms: O_28  and  C_29
REMARK                            x       y       z     vdW  Elec       q    Type
REMARK                         _______ _______ _______ _____ _____    ______ ____
ROOT
ATOM      1  C   UNL     1       2.428   1.296   0.091  0.00  0.00    +0.061 C 
ATOM      2  C   UNL     1       1.135   2.069   0.049  0.00  0.00    +0.016 C 
ATOM      3  C   UNL     1      -0.018   1.428  -0.208  0.00  0.00    +0.065 C 
ATOM      4  C   UNL     1      -1.324   2.164  -0.256  0.00  0.00    +0.092 C 
ATOM      5  C   UNL     1      -1.106   3.647  -0.409  0.00  0.00    +0.024 C 
ATOM      6  C   UNL     1       0.097   4.199  -0.144  0.00  0.00    +0.016 C 
ATOM      7  N   UNL     1       1.143   3.418   0.270  0.00  0.00    -0.321 N 
ATOM      8  C   UNL     1       0.323   5.682  -0.300  0.00  0.00    +0.058 C 
ATOM      9  C   UNL     1      -0.981   6.433  -0.020  0.00  0.00    -0.023 C 
ATOM     10  C   UNL     1      -2.052   5.927  -0.991  0.00  0.00    +0.086 C 
ATOM     11  C   UNL     1      -2.189   4.436  -0.835  0.00  0.00    +0.162 C 
ATOM     12  O   UNL     1      -3.254   3.906  -1.082  0.00  0.00    -0.292 OA
ATOM     13  C   UNL     1      -1.426   6.169   1.420  0.00  0.00    +0.011 C 
ATOM     14  C   UNL     1      -0.764   7.934  -0.224  0.00  0.00    +0.011 C 
ATOM     15  H   UNL     1       1.995   3.886   0.785  0.00  0.00    +0.152 HD
ENDROOT
BRANCH   4  16
ATOM     16  C   UNL     1      -2.083   1.909   1.020  0.00  0.00    -0.030 A 
ATOM     17  C   UNL     1      -3.329   1.311   0.975  0.00  0.00    +0.054 A 
ATOM     18  C   UNL     1      -4.029   1.076   2.147  0.00  0.00    +0.163 A 
ATOM     19  C   UNL     1      -3.475   1.443   3.370  0.00  0.00    +0.173 A 
ATOM     20  C   UNL     1      -2.226   2.042   3.409  0.00  0.00    +0.063 A 
ATOM     21  C   UNL     1      -1.530   2.269   2.235  0.00  0.00    +0.023 A 
ATOM     22 BR   UNL     1      -1.468   2.542   5.069  0.00  0.00    -0.046 Br
BRANCH  19  23
ATOM     23  O   UNL     1      -4.158   1.215   4.524  0.00  0.00    -0.503 OA
ATOM     24  H   UNL     1      -3.719   1.505   5.489  0.00  0.00    +0.292 HD
ENDBRANCH  19  23
BRANCH  18  25
ATOM     25  O   UNL     1      -5.254   0.489   2.103  0.00  0.00    -0.491 OA
ATOM     26  C   UNL     1      -5.761   0.139   0.813  0.00  0.00    +0.277 C 
ENDBRANCH  18  25
ENDBRANCH   4  16
BRANCH   3  27
ATOM     27  C   UNL     1       0.001   0.033  -0.442  0.00  0.00    +0.338 C 
ATOM     28  O   UNL     1       1.063  -0.554  -0.532  0.00  0.00    -0.245 OA
BRANCH  27  29
ATOM     29  O   UNL     1      -1.158  -0.646  -0.566  0.00  0.00    -0.458 OA
BRANCH  29  30
ATOM     30  C   UNL     1      -1.064  -2.053  -0.801  0.00  0.00    +0.177 C 
ATOM     31  C   UNL     1      -1.089  -2.338  -2.317  0.00  0.00    +0.044 C 
ATOM     32  C   UNL     1      -1.907  -3.647  -2.444  0.00  0.00    +0.004 C 
ATOM     33  C   UNL     1      -3.008  -3.467  -1.370  0.00  0.00    +0.004 C 
ATOM     34  C   UNL     1      -2.284  -2.771  -0.199  0.00  0.00    +0.044 C 
ENDBRANCH  29  30
ENDBRANCH  27  29
ENDBRANCH   3  27
TORSDOF 6
