REMARK  Name = ZINC38649799
REMARK  13 active torsions:
REMARK  status: ('A' for Active; 'I' for Inactive)
REMARK    1  A    between atoms: C_1  and  C_2
REMARK    2  A    between atoms: C_2  and  C_4
REMARK    3  A    between atoms: C_2  and  O_31
REMARK    4  A    between atoms: C_4  and  O_6
REMARK    5  A    between atoms: O_6  and  C_7
REMARK    6  A    between atoms: C_14  and  N_30
REMARK    7  A    between atoms: C_15  and  C_28
REMARK    8  A    between atoms: C_16  and  C_18
REMARK    9  A    between atoms: C_21  and  C_24
REMARK   10  A    between atoms: C_24  and  C_25
REMARK   11  A    between atoms: C_24  and  C_26
REMARK   12  A    between atoms: C_24  and  C_27
REMARK   13  A    between atoms: O_31  and  C_32
REMARK                            x       y       z     vdW  Elec       q    Type
REMARK                         _______ _______ _______ _____ _____    ______ ____
ROOT
ATOM      1  C   UNL     1       1.085  -0.487  -3.618  0.00  0.00    +0.135 A 
ATOM      2  C   UNL     1       2.190  -1.302  -3.410  0.00  0.00    +0.047 A 
ATOM      3  C   UNL     1       2.925  -1.755  -4.487  0.00  0.00    +0.012 A 
ATOM      4  C   UNL     1       2.566  -1.400  -5.776  0.00  0.00    +0.008 A 
ATOM      5  C   UNL     1       1.464  -0.587  -5.989  0.00  0.00    +0.138 A 
ATOM      6  C   UNL     1       0.719  -0.136  -4.907  0.00  0.00    +0.093 A 
ATOM      7  O   UNL     1       1.096  -0.229  -7.244  0.00  0.00    -0.441 OA
ATOM      8  C   UNL     1       1.532  -0.938  -8.298  0.00  0.00    +0.199 C 
ATOM      9  C   UNL     1       2.611  -1.752  -8.218  0.00  0.00    +0.098 C 
ATOM     10  C   UNL     1       3.382  -1.903  -6.937  0.00  0.00    +0.098 C 
ENDROOT
BRANCH  10  11
ATOM     11  C   UNL     1       4.662  -1.113  -7.028  0.00  0.00    -0.035 A 
ATOM     12  C   UNL     1       4.617   0.256  -7.212  0.00  0.00    +0.005 A 
ATOM     13  C   UNL     1       5.791   0.981  -7.295  0.00  0.00    +0.004 A 
ATOM     14  C   UNL     1       7.010   0.337  -7.195  0.00  0.00    -0.042 A 
ATOM     15  C   UNL     1       7.055  -1.032  -7.010  0.00  0.00    +0.004 A 
ATOM     16  C   UNL     1       5.881  -1.756  -6.922  0.00  0.00    +0.005 A 
BRANCH  14  17
ATOM     17  C   UNL     1       8.290   1.128  -7.287  0.00  0.00    -0.013 C 
ATOM     18  C   UNL     1       8.328   2.169  -6.166  0.00  0.00    +0.015 C 
ATOM     19  C   UNL     1       9.484   0.182  -7.145  0.00  0.00    +0.015 C 
ATOM     20  C   UNL     1       8.356   1.835  -8.642  0.00  0.00    +0.015 C 
ENDBRANCH  14  17
ENDBRANCH  10  11
BRANCH   8  21
ATOM     21  N   UNL     1       0.863  -0.835  -9.492  0.00  0.00    -0.328 N 
ATOM     22  H   UNL     1       0.088  -0.257  -9.566  0.00  0.00    +0.145 HD
ATOM     23  H   UNL     1       1.165  -1.341 -10.263  0.00  0.00    +0.145 HD
ENDBRANCH   8  21
BRANCH   9  24
ATOM     24  C   UNL     1       3.026  -2.484  -9.377  0.00  0.00    +0.101 C 
ATOM     25  N   UNL     1       3.355  -3.064 -10.296  0.00  0.00    -0.191 NA
ENDBRANCH   9  24
BRANCH   1  26
ATOM     26  O   UNL     1       0.360  -0.041  -2.559  0.00  0.00    -0.423 OA
BRANCH  26  27
ATOM     27  C   UNL     1       0.876   0.950  -1.815  0.00  0.00    +0.353 C 
ATOM     28  O   UNL     1       1.910   1.480  -2.148  0.00  0.00    -0.246 OA
BRANCH  27  30
ATOM     29  C   UNL     1      -1.184   2.016  -0.937  0.00  0.00    +0.064 C 
ATOM     30  C   UNL     1       0.167   1.402  -0.564  0.00  0.00    +0.279 C 
BRANCH  30  31
ATOM     31  O   UNL     1       0.964   2.377   0.110  0.00  0.00    -0.475 OA
BRANCH  31  32
ATOM     32  C   UNL     1       0.774   2.511   1.450  0.00  0.00    +0.157 A 
ATOM     33  C   UNL     1      -0.237   1.804   2.082  0.00  0.00    +0.048 A 
ATOM     34  C   UNL     1      -0.428   1.941   3.443  0.00  0.00    +0.004 A 
ATOM     35  C   UNL     1       0.386   2.784   4.176  0.00  0.00    +0.003 A 
ATOM     36  C   UNL     1       1.395   3.492   3.550  0.00  0.00    +0.042 A 
ATOM     37  C   UNL     1       1.596   3.353   2.188  0.00  0.00    +0.165 A 
ATOM     38  F   UNL     1       2.586   4.040   1.577  0.00  0.00    -0.202 F 
ENDBRANCH  31  32
ENDBRANCH  30  31
ENDBRANCH  27  30
ENDBRANCH  26  27
ENDBRANCH   1  26
TORSDOF 9
