REMARK  Name = ZINC29794920
REMARK  6 active torsions:
REMARK  status: ('A' for Active; 'I' for Inactive)
REMARK    1  A    between atoms: C_3  and  C_18
REMARK    2  A    between atoms: C_5  and  S_7
REMARK    3  A    between atoms: S_7  and  N_10
REMARK    4  A    between atoms: N_10  and  C_11
REMARK    5  A    between atoms: N_20  and  C_21
REMARK    6  A    between atoms: C_24  and  C_27
REMARK                            x       y       z     vdW  Elec       q    Type
REMARK                         _______ _______ _______ _____ _____    ______ ____
ROOT
ATOM      1  C   UNL     1       3.034  15.219   0.627  0.00  0.00    +0.003 A 
ATOM      2  C   UNL     1       2.606  13.907   0.644  0.00  0.00    +0.013 A 
ATOM      3  C   UNL     1       3.541  12.871   0.646  0.00  0.00    +0.039 A 
ATOM      4  C   UNL     1       4.905  13.170   0.636  0.00  0.00    +0.042 A 
ATOM      5  C   UNL     1       5.319  14.485   0.614  0.00  0.00    +0.109 A 
ATOM      6  C   UNL     1       4.387  15.508   0.612  0.00  0.00    +0.029 A 
ENDROOT
BRANCH   3   7
ATOM      7  C   UNL     1       3.090  11.464   0.664  0.00  0.00    +0.248 C 
ATOM      8  O   UNL     1       3.906  10.563   0.665  0.00  0.00    -0.270 OA
ATOM      9  N   UNL     1       1.772  11.178   0.679  0.00  0.00    -0.282 N 
ATOM     10  H   UNL     1       1.033  11.989   0.592  0.00  0.00    +0.155 HD
BRANCH   9  11
ATOM     11  C   UNL     1       1.345   9.853   0.806  0.00  0.00    +0.034 A 
ATOM     12  C   UNL     1       2.085   8.956   1.567  0.00  0.00    +0.024 A 
ATOM     13  C   UNL     1       1.666   7.648   1.694  0.00  0.00    +0.012 A 
ATOM     14  C   UNL     1       0.499   7.227   1.057  0.00  0.00    +0.002 A 
ATOM     15  C   UNL     1      -0.237   8.127   0.289  0.00  0.00    +0.012 A 
ATOM     16  C   UNL     1       0.183   9.435   0.170  0.00  0.00    +0.024 A 
BRANCH  14  17
ATOM     17  C   UNL     1       0.047   5.820   1.191  0.00  0.00    +0.090 A 
ATOM     18  C   UNL     1      -1.062   5.284   0.625  0.00  0.00    +0.121 A 
ATOM     19  N   UNL     1      -1.119   3.945   0.999  0.00  0.00    -0.300 N 
ATOM     20  C   UNL     1      -1.939   2.857   0.793  0.00  0.00    +0.100 A 
ATOM     21  C   UNL     1      -1.657   1.676   1.341  0.00  0.00    +0.067 A 
ATOM     22  S   UNL     1      -0.150   2.033   2.231  0.00  0.00    -0.058 S 
ATOM     23  C   UNL     1      -0.013   3.749   1.785  0.00  0.00    +0.178 A 
ATOM     24  N   UNL     1       0.668   4.852   1.895  0.00  0.00    -0.221 NA
ENDBRANCH  14  17
ENDBRANCH   9  11
ENDBRANCH   3   7
BRANCH   5  25
ATOM     25  S   UNL     1       7.040  14.865   0.594  0.00  0.00    +0.072 S 
ATOM     26  O   UNL     1       7.686  13.785  -0.067  0.00  0.00    -0.150 OA
ATOM     27  O   UNL     1       7.154  16.209   0.147  0.00  0.00    -0.150 OA
BRANCH  25  28
ATOM     28  N   UNL     1       7.564  14.841   2.164  0.00  0.00    -0.216 N 
ATOM     29  H   UNL     1       8.321  14.109   2.480  0.00  0.00    +0.174 HD
BRANCH  28  30
ATOM     30  C   UNL     1       7.045  15.754   3.088  0.00  0.00    +0.048 A 
ATOM     31  C   UNL     1       6.920  17.094   2.747  0.00  0.00    +0.027 A 
ATOM     32  C   UNL     1       6.403  17.992   3.660  0.00  0.00    +0.040 A 
ATOM     33  C   UNL     1       6.019  17.559   4.918  0.00  0.00    +0.124 A 
ATOM     34  C   UNL     1       6.148  16.224   5.261  0.00  0.00    +0.040 A 
ATOM     35  C   UNL     1       6.660  15.321   4.350  0.00  0.00    +0.027 A 
ATOM     36  F   UNL     1       5.517  18.440   5.810  0.00  0.00    -0.205 F 
ENDBRANCH  28  30
ENDBRANCH  25  28
ENDBRANCH   5  25
TORSDOF 6
