REMARK  Name = ZINC49853205
REMARK  7 active torsions:
REMARK  status: ('A' for Active; 'I' for Inactive)
REMARK    1  A    between atoms: C_1  and  C_2
REMARK    2  A    between atoms: C_4  and  N_19
REMARK    3  A    between atoms: N_5  and  C_7
REMARK    4  A    between atoms: C_13  and  C_15
REMARK    5  A    between atoms: C_15  and  C_16
REMARK    6  A    between atoms: C_15  and  C_17
REMARK    7  A    between atoms: C_15  and  C_18
REMARK                            x       y       z     vdW  Elec       q    Type
REMARK                         _______ _______ _______ _____ _____    ______ ____
ROOT
ATOM      1  C   UNL     1       1.688   1.758   3.085  0.00  0.00    +0.068 C 
ATOM      2  C   UNL     1       1.065   0.503   2.532  0.00  0.00    +0.075 A 
ATOM      3  C   UNL     1       0.252   0.425   1.397  0.00  0.00    +0.075 A 
ATOM      4  C   UNL     1      -0.108  -0.878   1.230  0.00  0.00    +0.128 A 
ATOM      5  N   UNL     1       0.465  -1.591   2.233  0.00  0.00    -0.246 N 
ATOM      6  N   UNL     1       1.197  -0.700   3.029  0.00  0.00    -0.173 NA
ATOM      7  I   UNL     1      -0.311   2.028   0.171  0.00  0.00    -0.038 I 
ENDROOT
BRANCH   5   8
ATOM      8  C   UNL     1       0.344  -3.036   2.444  0.00  0.00    +0.113 C 
ATOM      9  C   UNL     1      -0.462  -3.300   3.717  0.00  0.00    +0.027 C 
ATOM     10  C   UNL     1       0.253  -2.669   4.913  0.00  0.00    +0.002 C 
ATOM     11  C   UNL     1       1.647  -3.283   5.056  0.00  0.00    +0.000 C 
ATOM     12  C   UNL     1       2.453  -3.018   3.782  0.00  0.00    +0.006 C 
ATOM     13  C   UNL     1       1.738  -3.650   2.586  0.00  0.00    +0.019 C 
BRANCH  13  14
ATOM     14  C   UNL     1       2.544  -3.386   1.313  0.00  0.00    -0.033 C 
ATOM     15  C   UNL     1       2.837  -1.888   1.195  0.00  0.00    +0.011 C 
ATOM     16  C   UNL     1       3.862  -4.160   1.374  0.00  0.00    +0.011 C 
ATOM     17  C   UNL     1       1.739  -3.845   0.095  0.00  0.00    +0.011 C 
ENDBRANCH  13  14
ENDBRANCH   5   8
BRANCH   4  18
ATOM     18  N   UNL     1      -0.915  -1.386   0.215  0.00  0.00    -0.342 N 
ATOM     19  H   UNL     1      -1.278  -0.791  -0.459  0.00  0.00    +0.144 HD
ATOM     20  H   UNL     1      -1.115  -2.334   0.183  0.00  0.00    +0.144 HD
ENDBRANCH   4  18
TORSDOF 3
