REMARK  Name = ZINC39657178
REMARK  6 active torsions:
REMARK  status: ('A' for Active; 'I' for Inactive)
REMARK    1  A    between atoms: C_1  and  C_2
REMARK    2  A    between atoms: C_6  and  C_7
REMARK    3  A    between atoms: C_11  and  C_20
REMARK    4  A    between atoms: N_22  and  C_23
REMARK    5  A    between atoms: C_23  and  C_25
REMARK    6  A    between atoms: C_23  and  C_26
REMARK                            x       y       z     vdW  Elec       q    Type
REMARK                         _______ _______ _______ _____ _____    ______ ____
ROOT
ATOM      1  C   UNL     1       0.030  -0.284   2.560  0.00  0.00    +0.254 C 
ATOM      2  O   UNL     1       0.119   0.905   2.803  0.00  0.00    -0.269 OA
ATOM      3  N   UNL     1      -0.050  -1.174   3.569  0.00  0.00    -0.296 N 
ATOM      4  C   UNL     1      -0.041  -2.653   3.479  0.00  0.00    +0.121 C 
ATOM      5  C   UNL     1       0.813  -3.113   4.682  0.00  0.00    +0.100 C 
ATOM      6  C   UNL     1       0.724  -1.955   5.691  0.00  0.00    -0.004 C 
ATOM      7  C   UNL     1      -0.162  -0.894   5.021  0.00  0.00    +0.115 C 
ATOM      8  C   UNL     1       0.084  -2.435   6.990  0.00  0.00    -0.010 C 
ATOM      9  C   UNL     1       0.060  -1.282   7.997  0.00  0.00    -0.082 C 
ATOM     10  N   UNL     1       1.430  -0.817   8.246  0.00  0.00    +0.379 N 
ATOM     11  C   UNL     1       2.005  -0.272   7.010  0.00  0.00    -0.082 C 
ATOM     12  C   UNL     1       2.112  -1.382   5.961  0.00  0.00    -0.010 C 
ATOM     13  H   UNL     1       1.417  -0.099   8.954  0.00  0.00    -0.086 HD
ATOM     14  H   UNL     1       1.994  -1.591   8.565  0.00  0.00    -0.086 HD
ENDROOT
BRANCH   1  20
ATOM     15  C   UNL     1      -0.013   1.502   0.009  0.00  0.00    +0.045 C 
ATOM     16  C   UNL     1      -0.009  -0.004   0.000  0.00  0.00    -0.031 A 
ATOM     17  C   UNL     1      -0.018  -0.729  -1.168  0.00  0.00    +0.011 A 
ATOM     18  C   UNL     1      -0.012  -2.083  -1.103  0.00  0.00    +0.046 A 
ATOM     19  S   UNL     1       0.006  -2.417   0.543  0.00  0.00    -0.092 S 
ATOM     20  C   UNL     1       0.012  -0.749   1.170  0.00  0.00    +0.077 A 
ENDBRANCH   1  20
BRANCH   5  21
ATOM     21  C   UNL     1       0.245  -4.375   5.277  0.00  0.00    +0.219 C 
ATOM     22  O   UNL     1      -0.932  -4.635   5.138  0.00  0.00    -0.275 OA
ATOM     23  N   UNL     1       1.044  -5.216   5.963  0.00  0.00    -0.308 N 
ATOM     24  H   UNL     1       1.985  -5.009   6.073  0.00  0.00    +0.149 HD
BRANCH  23  25
ATOM     25  C   UNL     1       0.491  -6.444   6.541  0.00  0.00    +0.100 C 
ATOM     26  C   UNL     1       0.484  -7.548   5.482  0.00  0.00    +0.033 C 
BRANCH  25  27
ATOM     27  C   UNL     1       1.339  -6.874   7.710  0.00  0.00    -0.027 A 
ATOM     28  C   UNL     1       2.716  -6.763   7.643  0.00  0.00    +0.006 A 
ATOM     29  C   UNL     1       3.494  -7.158   8.715  0.00  0.00    +0.015 A 
ATOM     30  C   UNL     1       2.895  -7.663   9.855  0.00  0.00    +0.018 A 
ATOM     31  C   UNL     1       1.518  -7.773   9.922  0.00  0.00    +0.015 A 
ATOM     32  C   UNL     1       0.740  -7.374   8.851  0.00  0.00    +0.006 A 
ATOM     33 BR   UNL     1       3.959  -8.203  11.323  0.00  0.00    -0.050 Br
ENDBRANCH  25  27
ENDBRANCH  23  25
ENDBRANCH   5  21
TORSDOF 4
