REMARK  Name = ZINC20452125
REMARK  12 active torsions:
REMARK  status: ('A' for Active; 'I' for Inactive)
REMARK    1  A    between atoms: C_1  and  C_2
REMARK    2  A    between atoms: C_2  and  C_3
REMARK    3  A    between atoms: C_2  and  C_4
REMARK    4  A    between atoms: C_7  and  C_10
REMARK    5  A    between atoms: C_10  and  N_11
REMARK    6  A    between atoms: N_11  and  C_12
REMARK    7  A    between atoms: C_15  and  C_27
REMARK    8  A    between atoms: N_17  and  C_19
REMARK    9  A    between atoms: C_19  and  C_20
REMARK   10  A    between atoms: N_29  and  C_30
REMARK   11  A    between atoms: C_30  and  C_31
REMARK   12  A    between atoms: C_31  and  C_32
REMARK                            x       y       z     vdW  Elec       q    Type
REMARK                         _______ _______ _______ _____ _____    ______ ____
ROOT
ATOM      1  C   UNL     1       2.469   9.710   2.616  0.00  0.00    -0.055 C 
ATOM      2  C   UNL     1       2.373   8.302   1.972  0.00  0.00    +0.014 C 
ATOM      3  C   UNL     1       1.096   7.737   2.641  0.00  0.00    +0.142 C 
ATOM      4  N   UNL     1       1.137   8.246   4.029  0.00  0.00    -0.289 NA
ATOM      5  C   UNL     1       1.963   9.469   4.054  0.00  0.00    +0.070 C 
ENDROOT
BRANCH   3   6
ATOM      6  C   UNL     1       1.122   6.231   2.633  0.00  0.00    +0.230 C 
ATOM      7  O   UNL     1       1.142   5.619   3.680  0.00  0.00    -0.274 OA
ATOM      8  N   UNL     1       1.123   5.563   1.463  0.00  0.00    -0.314 N 
ATOM      9  H   UNL     1       1.104   6.117   0.513  0.00  0.00    +0.149 HD
BRANCH   8  10
ATOM     10  C   UNL     1       1.148   4.098   1.455  0.00  0.00    +0.109 C 
BRANCH  10  11
ATOM     11  C   UNL     1       1.143   3.595   0.010  0.00  0.00    +0.054 C 
BRANCH  11  12
ATOM     12  C   UNL     1       1.169   2.089   0.002  0.00  0.00    -0.042 A 
ATOM     13  C   UNL     1      -0.017   1.378   0.010  0.00  0.00    +0.007 A 
ATOM     14  C   UNL     1       0.002  -0.004   0.002  0.00  0.00    +0.050 A 
ATOM     15  C   UNL     1       1.211  -0.681  -0.013  0.00  0.00    +0.166 A 
ATOM     16  C   UNL     1       2.405   0.035  -0.021  0.00  0.00    +0.166 A 
ATOM     17  C   UNL     1       2.379   1.420  -0.013  0.00  0.00    +0.053 A 
ATOM     18  O   UNL     1       3.444  -0.851  -0.036  0.00  0.00    -0.453 OA
ATOM     19  C   UNL     1       2.881  -2.111   0.375  0.00  0.00    +0.466 C 
ATOM     20  O   UNL     1       1.501  -2.015  -0.024  0.00  0.00    -0.453 OA
ENDBRANCH  11  12
ENDBRANCH  10  11
ENDBRANCH   8  10
ENDBRANCH   3   6
BRANCH   1  21
ATOM     21  N   UNL     1       3.859  10.185   2.623  0.00  0.00    +0.384 N 
ATOM     22  H   UNL     1       4.361   9.820   1.716  0.00  0.00    -0.085 HD
ATOM     23  H   UNL     1       4.365   9.780   3.511  0.00  0.00    -0.085 HD
BRANCH  21  24
ATOM     24  C   UNL     1       3.913  11.653   2.656  0.00  0.00    -0.046 C 
BRANCH  24  28
ATOM     25  C   UNL     1       7.990  12.927   2.674  0.00  0.00    -0.045 A 
ATOM     26  C   UNL     1       7.328  12.747   1.475  0.00  0.00    +0.004 A 
ATOM     27  C   UNL     1       6.008  12.335   1.469  0.00  0.00    +0.002 A 
ATOM     28  C   UNL     1       5.352  12.102   2.663  0.00  0.00    -0.064 A 
ATOM     29  C   UNL     1       6.013  12.287   3.862  0.00  0.00    +0.002 A 
ATOM     30  C   UNL     1       7.333  12.695   3.868  0.00  0.00    +0.004 A 
BRANCH  25  32
ATOM     31  C   UNL     1       9.545  14.705   3.431  0.00  0.00    +0.012 C 
ATOM     32  C   UNL     1       9.429  13.377   2.681  0.00  0.00    +0.013 C 
ATOM     33  C   UNL     1      10.290  12.321   3.377  0.00  0.00    +0.012 C 
ENDBRANCH  25  32
ENDBRANCH  24  28
ENDBRANCH  21  24
ENDBRANCH   1  21
BRANCH   4  34
ATOM     34  C   UNL     1      -0.217   8.511   4.533  0.00  0.00    +0.120 C 
BRANCH  34  35
ATOM     35  C   UNL     1      -0.156   8.789   6.013  0.00  0.00    -0.032 A 
ATOM     36  C   UNL     1       0.016  10.083   6.467  0.00  0.00    +0.005 A 
ATOM     37  C   UNL     1       0.072  10.339   7.824  0.00  0.00    +0.002 A 
ATOM     38  C   UNL     1      -0.045   9.300   8.729  0.00  0.00    +0.020 A 
ATOM     39  C   UNL     1      -0.218   8.005   8.275  0.00  0.00    +0.041 A 
ATOM     40  C   UNL     1      -0.279   7.750   6.917  0.00  0.00    +0.025 A 
ATOM     41 CL   UNL     1      -0.366   6.700   9.411  0.00  0.00    -0.084 Cl
ENDBRANCH  34  35
ENDBRANCH   4  34
TORSDOF 10
