REMARK  Name = ZINC16751460
REMARK  5 active torsions:
REMARK  status: ('A' for Active; 'I' for Inactive)
REMARK    1  A    between atoms: C_4  and  C_7
REMARK    2  A    between atoms: N_8  and  N_9
REMARK    3  A    between atoms: C_12  and  C_25
REMARK    4  A    between atoms: C_13  and  N_15
REMARK    5  A    between atoms: C_16  and  C_18
REMARK                            x       y       z     vdW  Elec       q    Type
REMARK                         _______ _______ _______ _____ _____    ______ ____
ROOT
ATOM      1  N   UNL     1      -0.932   5.341   0.040  0.00  0.00    -0.215 N 
ATOM      2  C   UNL     1      -0.474   4.034   0.028  0.00  0.00    +0.180 A 
ATOM      3  N   UNL     1       0.767   3.586   0.014  0.00  0.00    -0.222 NA
ATOM      4  C   UNL     1       1.030   2.281   0.004  0.00  0.00    +0.102 A 
ATOM      5  C   UNL     1      -0.017   1.389   0.010  0.00  0.00    +0.101 A 
ATOM      6  S   UNL     1      -1.409   2.511   0.021  0.00  0.00    -0.035 S 
ATOM      7  H   UNL     1      -0.300   6.077   0.038  0.00  0.00    +0.176 HD
ENDROOT
BRANCH   4   8
ATOM      8  C   UNL     1       2.429   1.796  -0.011  0.00  0.00    +0.003 A 
ATOM      9  C   UNL     1       2.775   0.632   0.677  0.00  0.00    +0.011 A 
ATOM     10  C   UNL     1       4.079   0.182   0.654  0.00  0.00    +0.020 A 
ATOM     11  C   UNL     1       5.046   0.890  -0.040  0.00  0.00    +0.041 A 
ATOM     12  C   UNL     1       4.710   2.048  -0.720  0.00  0.00    +0.020 A 
ATOM     13  C   UNL     1       3.408   2.504  -0.709  0.00  0.00    +0.011 A 
ATOM     14 CL   UNL     1       6.686   0.322  -0.058  0.00  0.00    -0.084 Cl
ENDBRANCH   4   8
BRANCH   5  15
ATOM     15  N   UNL     1       0.002  -0.004   0.002  0.00  0.00    -0.274 N 
ATOM     16  C   UNL     1      -1.156  -0.694   0.009  0.00  0.00    +0.249 C 
ATOM     17  O   UNL     1      -2.217  -0.100   0.023  0.00  0.00    -0.270 OA
ATOM     18  H   UNL     1       0.849  -0.478  -0.009  0.00  0.00    +0.156 HD
BRANCH  16  19
ATOM     19  C   UNL     1      -1.136  -2.171   0.001  0.00  0.00    +0.037 A 
ATOM     20  C   UNL     1       0.081  -2.856  -0.020  0.00  0.00    +0.014 A 
ATOM     21  C   UNL     1       0.093  -4.235  -0.021  0.00  0.00    +0.016 A 
ATOM     22  C   UNL     1      -1.098  -4.940  -0.014  0.00  0.00    +0.018 A 
ATOM     23  C   UNL     1      -2.308  -4.267   0.001  0.00  0.00    +0.016 A 
ATOM     24  C   UNL     1      -2.334  -2.889   0.009  0.00  0.00    +0.014 A 
ATOM     25 BR   UNL     1      -1.073  -6.831  -0.024  0.00  0.00    -0.050 Br
ENDBRANCH  16  19
ENDBRANCH   5  15
BRANCH   1  27
ATOM     26  C   UNL     1      -2.739   6.827   0.065  0.00  0.00    +0.138 C 
ATOM     27  N   UNL     1      -2.309   5.601   0.054  0.00  0.00    -0.188 NA
BRANCH  26  31
ATOM     28  C   UNL     1      -6.909   7.614   0.109  0.00  0.00    +0.000 A 
ATOM     29  C   UNL     1      -6.010   8.665   0.106  0.00  0.00    +0.001 A 
ATOM     30  C   UNL     1      -4.653   8.417   0.092  0.00  0.00    +0.009 A 
ATOM     31  C   UNL     1      -4.187   7.100   0.080  0.00  0.00    -0.005 A 
ATOM     32  C   UNL     1      -5.101   6.043   0.077  0.00  0.00    +0.009 A 
ATOM     33  C   UNL     1      -6.455   6.306   0.098  0.00  0.00    +0.001 A 
ENDBRANCH  26  31
ENDBRANCH   1  27
TORSDOF 5
