REMARK  Name = ZINC43736727
REMARK  10 active torsions:
REMARK  status: ('A' for Active; 'I' for Inactive)
REMARK    1  A    between atoms: C_1  and  C_2
REMARK    2  A    between atoms: N_6  and  O_7
REMARK    3  A    between atoms: O_7  and  C_8
REMARK    4  A    between atoms: C_8  and  C_9
REMARK    5  A    between atoms: N_11  and  CA_12
REMARK    6  A    between atoms: CA_12  and  C_14
REMARK    7  A    between atoms: CA_12  and  C_20
REMARK    8  A    between atoms: C_33  and  C_42
REMARK    9  A    between atoms: C_38  and  C_39
REMARK   10  A    between atoms: C_38  and  O_41
REMARK                            x       y       z     vdW  Elec       q    Type
REMARK                         _______ _______ _______ _____ _____    ______ ____
ROOT
ATOM      1  C   UNL     1      -0.019   1.530   0.011  0.00  0.00    +0.016 C 
ATOM      2  C   UNL     1       0.002  -0.004   0.002  0.00  0.00    -0.007 C 
ATOM      3  C   UNL     1       0.721  -0.404  -1.277  0.00  0.00    +0.017 C 
ATOM      4  C   UNL     1       2.214  -0.084  -1.214  0.00  0.00    +0.059 C 
ATOM      5  C   UNL     1       2.799  -0.789  -0.008  0.00  0.00    +0.080 C 
ATOM      6  N   UNL     1       3.963  -1.364  -0.067  0.00  0.00    -0.089 NA
ATOM      7  C   UNL     1       2.008  -0.800   1.232  0.00  0.00    +0.026 C 
ATOM      8  C   UNL     1       0.735  -0.416   1.232  0.00  0.00    -0.062 C 
ATOM      9  C   UNL     1       0.011  -0.381   2.564  0.00  0.00    +0.031 C 
ATOM     10  C   UNL     1      -1.301  -1.133   2.418  0.00  0.00    +0.008 C 
ATOM     11  C   UNL     1      -2.161  -0.590   1.288  0.00  0.00    -0.003 C 
ATOM     12  C   UNL     1      -1.445  -0.424  -0.030  0.00  0.00    +0.002 C 
ATOM     13  C   UNL     1      -1.718  -1.590  -0.972  0.00  0.00    +0.005 C 
ATOM     14  C   UNL     1      -3.193  -1.595  -1.406  0.00  0.00    +0.011 C 
ATOM     15  C   UNL     1      -4.070  -1.246  -0.227  0.00  0.00    +0.011 C 
ATOM     16  C   UNL     1      -3.325  -1.556   1.089  0.00  0.00    +0.002 C 
ATOM     17  C   UNL     1      -4.442  -1.420   2.136  0.00  0.00    +0.008 C 
ATOM     18  C   UNL     1      -5.691  -2.002   1.424  0.00  0.00    +0.049 C 
ATOM     19  C   UNL     1      -5.331  -2.114  -0.078  0.00  0.00    +0.132 C 
ATOM     20  C   UNL     1      -4.508   0.219  -0.296  0.00  0.00    +0.015 C 
ENDROOT
BRANCH  19  21
ATOM     21  C   UNL     1      -6.417  -1.577  -0.908  0.00  0.00    -0.070 C 
ATOM     22  C   UNL     1      -7.285  -1.148  -1.572  0.00  0.00    +0.007 C 
ENDBRANCH  19  21
BRANCH  19  23
ATOM     23  O   UNL     1      -5.051  -3.469  -0.420  0.00  0.00    -0.376 OA
ATOM     24  H   UNL     1      -5.812  -4.060  -0.343  0.00  0.00    +0.211 HD
ENDBRANCH  19  23
BRANCH   6  25
ATOM     25  O   UNL     1       4.489  -2.016   1.074  0.00  0.00    -0.384 OA
BRANCH  25  26
ATOM     26  C   UNL     1       5.775  -2.604   0.866  0.00  0.00    +0.358 C 
BRANCH  26  27
ATOM     27  C   UNL     1       6.236  -3.267   2.139  0.00  0.00    +0.254 C 
ATOM     28  O   UNL     1       5.532  -3.240   3.126  0.00  0.00    -0.272 OA
ATOM     29  N   UNL     1       7.430  -3.891   2.179  0.00  0.00    -0.296 N 
ATOM     30  H   UNL     1       7.993  -3.913   1.390  0.00  0.00    +0.150 HD
BRANCH  29  31
ATOM     31  CA  UNL     1       7.878  -4.536   3.416  0.00  0.00    +0.217 C 
BRANCH  31  32
ATOM     32  C   UNL     1       9.383  -4.606   3.430  0.00  0.00    -0.016 A 
ATOM     33  C   UNL     1      10.071  -4.905   2.269  0.00  0.00    +0.006 A 
ATOM     34  C   UNL     1      11.452  -4.970   2.282  0.00  0.00    +0.000 A 
ATOM     35  C   UNL     1      12.144  -4.734   3.455  0.00  0.00    +0.000 A 
ATOM     36  C   UNL     1      11.456  -4.434   4.615  0.00  0.00    +0.000 A 
ATOM     37  C   UNL     1      10.075  -4.365   4.602  0.00  0.00    +0.006 A 
ENDBRANCH  31  32
BRANCH  31  38
ATOM     38  C   UNL     1       7.309  -5.930   3.490  0.00  0.00    +0.380 C 
ATOM     39  O   UNL     1       6.751  -6.413   2.520  0.00  0.00    -0.244 OA
ATOM     40  OXT UNL     1       7.407  -6.574   4.521  0.00  0.00    -0.244 OA
ENDBRANCH  31  38
ENDBRANCH  29  31
ENDBRANCH  26  27
ENDBRANCH  25  26
ENDBRANCH   6  25
TORSDOF 8
