REMARK  Name = ZINC35510985
REMARK  12 active torsions:
REMARK  status: ('A' for Active; 'I' for Inactive)
REMARK    1  A    between atoms: C_1  and  C_2
REMARK    2  A    between atoms: C_3  and  C_9
REMARK    3  A    between atoms: C_4  and  C_8
REMARK    4  A    between atoms: N_5  and  C_7
REMARK    5  A    between atoms: C_9  and  C_10
REMARK    6  A    between atoms: C_10  and  C_11
REMARK    7  A    between atoms: C_11  and  N_12
REMARK    8  A    between atoms: N_12  and  C_13
REMARK    9  A    between atoms: N_12  and  C_14
REMARK   10  A    between atoms: C_17  and  N_23
REMARK   11  A    between atoms: C_19  and  C_20
REMARK   12  A    between atoms: C_24  and  C_26
REMARK                            x       y       z     vdW  Elec       q    Type
REMARK                         _______ _______ _______ _____ _____    ______ ____
ROOT
ATOM      1  C   UNL     1       3.440   1.715  -4.837  0.00  0.00    +0.044 A 
ATOM      2  C   UNL     1       4.022   2.044  -3.618  0.00  0.00    +0.026 A 
ATOM      3  C   UNL     1       4.654   3.258  -3.458  0.00  0.00    +0.025 A 
ATOM      4  C   UNL     1       4.715   4.165  -4.513  0.00  0.00    +0.035 A 
ATOM      5  C   UNL     1       4.142   3.854  -5.732  0.00  0.00    +0.040 A 
ATOM      6  C   UNL     1       3.503   2.622  -5.907  0.00  0.00    +0.086 A 
ENDROOT
BRANCH   4   7
ATOM      7  N   UNL     1       5.360   5.397  -4.339  0.00  0.00    -0.281 N 
ATOM      8  C   UNL     1       4.907   6.491  -4.981  0.00  0.00    +0.248 C 
ATOM      9  O   UNL     1       3.884   6.432  -5.636  0.00  0.00    -0.270 OA
ATOM     10  H   UNL     1       6.132   5.462  -3.756  0.00  0.00    +0.155 HD
BRANCH   8  11
ATOM     11  C   UNL     1       5.654   7.763  -4.891  0.00  0.00    +0.037 A 
ATOM     12  C   UNL     1       6.832   7.832  -4.145  0.00  0.00    +0.014 A 
ATOM     13  C   UNL     1       7.525   9.022  -4.065  0.00  0.00    +0.016 A 
ATOM     14  C   UNL     1       7.054  10.147  -4.721  0.00  0.00    +0.018 A 
ATOM     15  C   UNL     1       5.886  10.084  -5.462  0.00  0.00    +0.016 A 
ATOM     16  C   UNL     1       5.187   8.899  -5.556  0.00  0.00    +0.014 A 
ATOM     17 BR   UNL     1       8.009  11.774  -4.606  0.00  0.00    -0.050 Br
ENDBRANCH   8  11
ENDBRANCH   4   7
BRANCH   6  18
ATOM     18  C   UNL     1       2.896   2.281  -7.202  0.00  0.00    +0.388 C 
ATOM     19  O   UNL     1       2.952   3.074  -8.132  0.00  0.00    -0.241 OA
ATOM     20  O   UNL     1       2.334   1.204  -7.350  0.00  0.00    -0.241 OA
ENDBRANCH   6  18
BRANCH   1  21
ATOM     21  N   UNL     1       2.803   0.491  -4.997  0.00  0.00    -0.332 N 
ATOM     22  C   UNL     1       3.562  -0.675  -5.457  0.00  0.00    +0.129 C 
BRANCH  21  23
ATOM     23  C   UNL     1       1.373   0.365  -4.705  0.00  0.00    +0.105 C 
BRANCH  23  24
ATOM     24  C   UNL     1       1.184  -0.018  -3.236  0.00  0.00    +0.024 C 
BRANCH  24  25
ATOM     25  C   UNL     1      -0.309  -0.149  -2.931  0.00  0.00    +0.040 C 
BRANCH  25  28
ATOM     26  C   UNL     1      -0.627   1.866  -0.506  0.00  0.00    +0.068 C 
ATOM     27  C   UNL     1      -0.636   0.362  -0.413  0.00  0.00    +0.063 A 
ATOM     28  C   UNL     1      -0.495  -0.527  -1.484  0.00  0.00    -0.004 A 
ATOM     29  C   UNL     1      -0.556  -1.786  -0.991  0.00  0.00    +0.039 A 
ATOM     30  N   UNL     1      -0.730  -1.697   0.345  0.00  0.00    -0.271 N 
ATOM     31  N   UNL     1      -0.771  -0.338   0.684  0.00  0.00    -0.176 NA
ATOM     32  C   UNL     1      -0.848  -2.822   1.275  0.00  0.00    +0.172 C 
ATOM     33  C   UNL     1      -0.450  -3.059  -1.790  0.00  0.00    +0.065 C 
ENDBRANCH  25  28
ENDBRANCH  24  25
ENDBRANCH  23  24
ENDBRANCH  21  23
ENDBRANCH   1  21
TORSDOF 8
