REMARK  Name = ZINC41006882
REMARK  11 active torsions:
REMARK  status: ('A' for Active; 'I' for Inactive)
REMARK    1  A    between atoms: C_1  and  C_2
REMARK    2  A    between atoms: C_2  and  C_3
REMARK    3  A    between atoms: C_2  and  O_4
REMARK    4  A    between atoms: O_4  and  C_5
REMARK    5  A    between atoms: C_8  and  C_11
REMARK    6  A    between atoms: C_13  and  C_32
REMARK    7  A    between atoms: C_18  and  C_30
REMARK    8  A    between atoms: C_18  and  O_31
REMARK    9  A    between atoms: C_19  and  C_21
REMARK   10  A    between atoms: N_23  and  C_24
REMARK   11  A    between atoms: N_34  and  C_35
REMARK                            x       y       z     vdW  Elec       q    Type
REMARK                         _______ _______ _______ _____ _____    ______ ____
ROOT
ATOM      1  C   UNL     1      -2.534  -5.490  -2.074  0.00  0.00    +0.053 C 
ATOM      2  C   UNL     1      -3.114  -6.481  -1.058  0.00  0.00    +0.149 C 
ATOM      3  C   UNL     1      -3.598  -7.705  -1.803  0.00  0.00    +0.148 C 
ATOM      4  O   UNL     1      -3.256  -8.812  -1.464  0.00  0.00    -0.296 OA
ATOM      5  C   UNL     1      -4.523  -7.507  -2.983  0.00  0.00    +0.110 C 
ATOM      6  C   UNL     1      -3.893  -6.479  -3.929  0.00  0.00    +0.082 C 
ATOM      7  C   UNL     1      -3.579  -5.199  -3.153  0.00  0.00    +0.115 C 
ATOM      8  C   UNL     1      -2.600  -7.051  -4.515  0.00  0.00    +0.042 C 
ENDROOT
BRANCH   1  12
ATOM      9  C   UNL     1      -1.490  -1.855  -0.085  0.00  0.00    +0.121 A 
ATOM     10  C   UNL     1      -0.667  -2.967   0.022  0.00  0.00    +0.046 A 
ATOM     11  C   UNL     1      -1.007  -4.141  -0.622  0.00  0.00    +0.007 A 
ATOM     12  C   UNL     1      -2.166  -4.208  -1.373  0.00  0.00    -0.042 A 
ATOM     13  C   UNL     1      -2.988  -3.102  -1.481  0.00  0.00    +0.007 A 
ATOM     14  C   UNL     1      -2.655  -1.927  -0.834  0.00  0.00    +0.046 A 
BRANCH   9  15
ATOM     15  O   UNL     1      -1.158  -0.699   0.548  0.00  0.00    -0.489 OA
BRANCH  15  17
ATOM     16  C   UNL     1      -2.028   1.171   1.807  0.00  0.00    +0.051 C 
ATOM     17  C   UNL     1      -2.119   0.358   0.514  0.00  0.00    +0.167 C 
ATOM     18  C   UNL     1      -1.835   1.268  -0.682  0.00  0.00    +0.051 C 
ENDBRANCH  15  17
ENDBRANCH   9  15
ENDBRANCH   1  12
BRANCH   7  19
ATOM     19  C   UNL     1      -3.043  -4.157  -4.101  0.00  0.00    +0.224 C 
ATOM     20  O   UNL     1      -1.935  -3.694  -3.929  0.00  0.00    -0.275 OA
ATOM     21  N   UNL     1      -3.795  -3.740  -5.139  0.00  0.00    -0.285 N 
ATOM     22  H   UNL     1      -4.704  -4.064  -5.241  0.00  0.00    +0.155 HD
BRANCH  21  23
ATOM     23  C   UNL     1      -3.264  -2.841  -6.070  0.00  0.00    +0.033 A 
ATOM     24  C   UNL     1      -4.083  -1.889  -6.663  0.00  0.00    +0.023 A 
ATOM     25  C   UNL     1      -3.556  -1.002  -7.582  0.00  0.00    +0.002 A 
ATOM     26  C   UNL     1      -2.215  -1.062  -7.912  0.00  0.00    +0.000 A 
ATOM     27  C   UNL     1      -1.397  -2.010  -7.324  0.00  0.00    +0.002 A 
ATOM     28  C   UNL     1      -1.916  -2.895  -6.400  0.00  0.00    +0.023 A 
ENDBRANCH  21  23
ENDBRANCH   7  19
BRANCH   2  29
ATOM     29  C   UNL     1      -4.265  -5.840  -0.327  0.00  0.00    +0.228 C 
ATOM     30  O   UNL     1      -4.591  -4.701  -0.588  0.00  0.00    -0.275 OA
ATOM     31  N   UNL     1      -4.931  -6.532   0.619  0.00  0.00    -0.285 N 
ATOM     32  H   UNL     1      -4.628  -7.416   0.876  0.00  0.00    +0.155 HD
BRANCH  31  33
ATOM     33  C   UNL     1      -6.061  -5.974   1.228  0.00  0.00    +0.033 A 
ATOM     34  C   UNL     1      -6.333  -6.239   2.563  0.00  0.00    +0.023 A 
ATOM     35  C   UNL     1      -7.449  -5.688   3.162  0.00  0.00    +0.002 A 
ATOM     36  C   UNL     1      -8.295  -4.872   2.432  0.00  0.00    +0.000 A 
ATOM     37  C   UNL     1      -8.026  -4.607   1.102  0.00  0.00    +0.002 A 
ATOM     38  C   UNL     1      -6.909  -5.150   0.499  0.00  0.00    +0.023 A 
ENDBRANCH  31  33
ENDBRANCH   2  29
BRANCH   6  39
ATOM     39  O   UNL     1      -4.806  -6.183  -4.988  0.00  0.00    -0.388 OA
ATOM     40  H   UNL     1      -5.051  -6.951  -5.523  0.00  0.00    +0.210 HD
ENDBRANCH   6  39
TORSDOF 8
