REMARK  Name = ZINC39675308
REMARK  10 active torsions:
REMARK  status: ('A' for Active; 'I' for Inactive)
REMARK    1  A    between atoms: C_1  and  C_2
REMARK    2  A    between atoms: C_2  and  C_4
REMARK    3  A    between atoms: C_2  and  N_14
REMARK    4  A    between atoms: C_4  and  C_5
REMARK    5  A    between atoms: C_5  and  C_6
REMARK    6  A    between atoms: C_9  and  O_12
REMARK    7  A    between atoms: O_12  and  C_13
REMARK    8  A    between atoms: C_15  and  C_17
REMARK    9  A    between atoms: C_28  and  C_30
REMARK   10  A    between atoms: C_30  and  C_36
REMARK                            x       y       z     vdW  Elec       q    Type
REMARK                         _______ _______ _______ _____ _____    ______ ____
ROOT
ATOM      1  C   UNL     1       1.287  -1.310   3.849  0.00  0.00    +0.100 C 
ATOM      2  C   UNL     1       2.312  -0.164   3.998  0.00  0.00    +0.121 C 
ATOM      3  N   UNL     1       1.717   0.742   5.009  0.00  0.00    -0.300 N 
ATOM      4  C   UNL     1       1.110  -0.170   6.009  0.00  0.00    +0.115 C 
ATOM      5  C   UNL     1       0.502  -1.313   5.172  0.00  0.00    -0.004 C 
ATOM      6  C   UNL     1       0.683  -2.647   5.890  0.00  0.00    -0.010 C 
ATOM      7  C   UNL     1      -0.153  -2.648   7.174  0.00  0.00    -0.082 C 
ATOM      8  N   UNL     1      -1.566  -2.436   6.840  0.00  0.00    +0.379 N 
ATOM      9  C   UNL     1      -1.745  -1.111   6.233  0.00  0.00    -0.082 C 
ATOM     10  C   UNL     1      -0.977  -1.046   4.910  0.00  0.00    -0.010 C 
ATOM     11  C   UNL     1       1.726   2.089   5.018  0.00  0.00    +0.222 C 
ATOM     12  O   UNL     1       2.199   2.699   4.082  0.00  0.00    -0.275 OA
ATOM     13  H   UNL     1      -1.866  -3.146   6.188  0.00  0.00    -0.086 HD
ATOM     14  H   UNL     1      -2.122  -2.498   7.679  0.00  0.00    -0.086 HD
ENDROOT
BRANCH  11  15
ATOM     15  C   UNL     1       1.148   2.839   6.191  0.00  0.00    +0.044 C 
ATOM     16  C   UNL     1      -0.364   2.609   6.248  0.00  0.00    +0.016 C 
ATOM     17  C   UNL     1      -1.006   3.113   4.954  0.00  0.00    +0.001 C 
ATOM     18  C   UNL     1      -0.723   4.608   4.793  0.00  0.00    +0.000 C 
ATOM     19  C   UNL     1       0.789   4.838   4.736  0.00  0.00    +0.001 C 
ATOM     20  C   UNL     1       1.431   4.334   6.030  0.00  0.00    +0.016 C 
ATOM     21  C   UNL     1       1.790   2.334   7.485  0.00  0.00    +0.021 C 
ENDBRANCH  11  15
BRANCH   1  23
ATOM     22  N   UNL     1      -0.178  -2.066   2.005  0.00  0.00    -0.312 N 
ATOM     23  C   UNL     1       0.361  -1.039   2.691  0.00  0.00    +0.218 C 
ATOM     24  O   UNL     1       0.102   0.103   2.377  0.00  0.00    -0.275 OA
ATOM     25  H   UNL     1       0.029  -2.979   2.256  0.00  0.00    +0.149 HD
BRANCH  22  27
ATOM     26  C   UNL     1      -0.254  -1.578  -0.391  0.00  0.00    +0.028 C 
ATOM     27  C   UNL     1      -1.078  -1.802   0.879  0.00  0.00    +0.070 C 
BRANCH  27  28
ATOM     28  C   UNL     1      -2.008  -3.000   0.678  0.00  0.00    +0.026 C 
BRANCH  28  29
ATOM     29  C   UNL     1      -2.919  -3.148   1.899  0.00  0.00    +0.037 C 
BRANCH  29  30
ATOM     30  C   UNL     1      -3.836  -4.328   1.701  0.00  0.00    -0.047 A 
ATOM     31  C   UNL     1      -5.063  -4.154   1.088  0.00  0.00    +0.007 A 
ATOM     32  C   UNL     1      -5.905  -5.234   0.906  0.00  0.00    +0.046 A 
ATOM     33  C   UNL     1      -5.518  -6.494   1.338  0.00  0.00    +0.120 A 
ATOM     34  C   UNL     1      -4.286  -6.666   1.953  0.00  0.00    +0.046 A 
ATOM     35  C   UNL     1      -3.446  -5.584   2.128  0.00  0.00    +0.007 A 
BRANCH  33  36
ATOM     36  O   UNL     1      -6.345  -7.558   1.161  0.00  0.00    -0.495 OA
ATOM     37  C   UNL     1      -5.881  -8.825   1.631  0.00  0.00    +0.277 C 
ENDBRANCH  33  36
ENDBRANCH  29  30
ENDBRANCH  28  29
ENDBRANCH  27  28
ENDBRANCH  22  27
ENDBRANCH   1  23
TORSDOF 7
