REMARK  Name = ZINC33113665
REMARK  12 active torsions:
REMARK  status: ('A' for Active; 'I' for Inactive)
REMARK    1  A    between atoms: C_1  and  C_2
REMARK    2  A    between atoms: C_2  and  O_3
REMARK    3  A    between atoms: O_3  and  C_4
REMARK    4  A    between atoms: C_4  and  C_6
REMARK    5  A    between atoms: C_11  and  O_19
REMARK    6  A    between atoms: C_14  and  N_15
REMARK    7  A    between atoms: C_16  and  C_18
REMARK    8  A    between atoms: O_19  and  C_20
REMARK    9  A    between atoms: C_20  and  C_22
REMARK   10  A    between atoms: C_20  and  C_23
REMARK   11  A    between atoms: N_25  and  C_26
REMARK   12  A    between atoms: C_31  and  C_32
REMARK                            x       y       z     vdW  Elec       q    Type
REMARK                         _______ _______ _______ _____ _____    ______ ____
ROOT
ATOM      1  C   UNL     1       3.629  -0.904  -0.026  0.00  0.00    +0.095 A 
ATOM      2  C   UNL     1       2.448  -0.033  -0.014  0.00  0.00    +0.009 A 
ATOM      3  C   UNL     1       2.404   1.379  -0.009  0.00  0.00    +0.011 A 
ATOM      4  C   UNL     1       1.206   2.045   0.002  0.00  0.00    +0.019 A 
ATOM      5  C   UNL     1       0.001   1.357   0.010  0.00  0.00    +0.061 A 
ATOM      6  C   UNL     1       0.009  -0.029   0.005  0.00  0.00    +0.150 A 
ATOM      7  C   UNL     1       1.215  -0.706  -0.006  0.00  0.00    +0.065 A 
ATOM      8  S   UNL     1       1.650  -2.426  -0.015  0.00  0.00    -0.069 S 
ATOM      9  C   UNL     1       3.425  -2.274  -0.028  0.00  0.00    +0.087 A 
ATOM     10 BR   UNL     1      -1.637   2.302   0.018  0.00  0.00    -0.046 Br
ENDROOT
BRANCH   9  11
ATOM     11  N   UNL     1       4.372  -3.281  -0.038  0.00  0.00    -0.280 N 
ATOM     12  C   UNL     1       3.983  -4.571  -0.040  0.00  0.00    +0.214 C 
ATOM     13  O   UNL     1       2.803  -4.849  -0.032  0.00  0.00    -0.276 OA
ATOM     14  C   UNL     1       5.015  -5.670  -0.051  0.00  0.00    +0.109 C 
ATOM     15  H   UNL     1       5.443  -3.029  -0.046  0.00  0.00    +0.155 HD
ENDBRANCH   9  11
BRANCH   1  16
ATOM     16  C   UNL     1       4.937  -0.360  -0.034  0.00  0.00    +0.342 C 
ATOM     17  O   UNL     1       5.507  -0.130   1.016  0.00  0.00    -0.245 OA
BRANCH  16  18
ATOM     18  O   UNL     1       5.551  -0.097  -1.206  0.00  0.00    -0.461 OA
BRANCH  18  20
ATOM     19  C   UNL     1       7.399   0.680  -2.557  0.00  0.00    +0.048 C 
ATOM     20  C   UNL     1       6.870   0.451  -1.140  0.00  0.00    +0.229 C 
ENDBRANCH  18  20
ENDBRANCH  16  18
ENDBRANCH   1  16
BRANCH   6  21
ATOM     21  O   UNL     1      -1.162  -0.720   0.012  0.00  0.00    -0.478 OA
BRANCH  21  22
ATOM     22  C   UNL     1      -1.731  -1.045  -1.258  0.00  0.00    +0.256 C 
ATOM     23  C   UNL     1      -1.201  -2.404  -1.721  0.00  0.00    +0.062 C 
BRANCH  22  24
ATOM     24  C   UNL     1      -3.232  -1.106  -1.136  0.00  0.00    +0.258 C 
ATOM     25  O   UNL     1      -3.762  -0.892  -0.067  0.00  0.00    -0.271 OA
ATOM     26  N   UNL     1      -3.984  -1.399  -2.215  0.00  0.00    -0.282 N 
ATOM     27  H   UNL     1      -3.512  -1.504  -3.203  0.00  0.00    +0.155 HD
BRANCH  26  28
ATOM     28  C   UNL     1      -5.366  -1.570  -2.079  0.00  0.00    +0.036 A 
ATOM     29  C   UNL     1      -5.903  -1.951  -0.856  0.00  0.00    +0.023 A 
ATOM     30  C   UNL     1      -7.268  -2.113  -0.723  0.00  0.00    +0.002 A 
ATOM     31  C   UNL     1      -8.099  -1.907  -1.809  0.00  0.00    +0.000 A 
ATOM     32  C   UNL     1      -7.567  -1.533  -3.030  0.00  0.00    +0.005 A 
ATOM     33  C   UNL     1      -6.203  -1.364  -3.167  0.00  0.00    -0.029 A 
ATOM     34  C   UNL     1      -5.624  -0.957  -4.498  0.00  0.00    +0.045 C 
ENDBRANCH  26  28
ENDBRANCH  22  24
ENDBRANCH  21  22
ENDBRANCH   6  21
TORSDOF 8
