REMARK  Name = ZINC13002436
REMARK  4 active torsions:
REMARK  status: ('A' for Active; 'I' for Inactive)
REMARK    1  A    between atoms: C_1  and  C_2
REMARK    2  A    between atoms: N_4  and  C_5
REMARK    3  A    between atoms: C_8  and  N_11
REMARK    4  A    between atoms: C_12  and  C_14
REMARK                            x       y       z     vdW  Elec       q    Type
REMARK                         _______ _______ _______ _____ _____    ______ ____
ROOT
ATOM      1  C   UNL     1      -5.382   7.551  -0.176  0.00  0.00    +0.033 A 
ATOM      2  C   UNL     1      -5.957   6.290  -0.083  0.00  0.00    +0.025 A 
ATOM      3  C   UNL     1      -5.155   5.170  -0.001  0.00  0.00    +0.025 A 
ATOM      4  C   UNL     1      -3.773   5.303  -0.010  0.00  0.00    +0.034 A 
ATOM      5  C   UNL     1      -3.197   6.564  -0.097  0.00  0.00    +0.025 A 
ATOM      6  C   UNL     1      -3.999   7.684  -0.185  0.00  0.00    +0.025 A 
ENDROOT
BRANCH   1  10
ATOM      7  C   UNL     1      -6.731  10.918  -1.188  0.00  0.00    +0.109 C 
ATOM      8  C   UNL     1      -5.809   9.738  -1.012  0.00  0.00    +0.214 C 
ATOM      9  O   UNL     1      -4.720   9.734  -1.546  0.00  0.00    -0.276 OA
ATOM     10  N   UNL     1      -6.196   8.688  -0.261  0.00  0.00    -0.286 N 
ATOM     11  H   UNL     1      -7.037   8.719   0.220  0.00  0.00    +0.155 HD
ENDBRANCH   1  10
BRANCH   4  12
ATOM     12  N   UNL     1      -2.959   4.167   0.075  0.00  0.00    -0.280 N 
ATOM     13  C   UNL     1      -3.345   3.017  -0.513  0.00  0.00    +0.265 C 
ATOM     14  O   UNL     1      -4.436   2.942  -1.046  0.00  0.00    -0.268 OA
ATOM     15  H   UNL     1      -2.118   4.207   0.557  0.00  0.00    +0.155 HD
BRANCH  13  16
ATOM     16  C   UNL     1      -2.448   1.857  -0.512  0.00  0.00    +0.103 A 
ATOM     17  C   UNL     1      -2.710   0.624  -1.072  0.00  0.00    +0.047 A 
ATOM     18  C   UNL     1      -1.589  -0.180  -0.839  0.00  0.00    +0.036 A 
ATOM     19  C   UNL     1      -0.682   0.559  -0.155  0.00  0.00    +0.098 A 
ATOM     20  N   UNL     1      -1.195   1.798   0.054  0.00  0.00    -0.356 N 
ATOM     21  H   UNL     1      -0.751   2.521   0.523  0.00  0.00    +0.165 HD
ATOM     22 BR   UNL     1      -1.377  -1.979  -1.381  0.00  0.00    -0.049 Br
ENDBRANCH  13  16
ENDBRANCH   4  12
TORSDOF 3
