REMARK  Name = ZINC00627372
REMARK  5 active torsions:
REMARK  status: ('A' for Active; 'I' for Inactive)
REMARK    1  A    between atoms: C_10  and  N_11
REMARK    2  A    between atoms: C_12  and  C_14
REMARK    3  A    between atoms: C_19  and  N_20
REMARK    4  A    between atoms: C_21  and  C_23
REMARK    5  A    between atoms: C_29  and  C_31
REMARK                            x       y       z     vdW  Elec       q    Type
REMARK                         _______ _______ _______ _____ _____    ______ ____
ROOT
ATOM      1  C   UNL     1       1.119   2.861   0.132  0.00  0.00    +0.058 A 
ATOM      2  C   UNL     1      -0.169   3.395   0.213  0.00  0.00    +0.015 A 
ATOM      3  C   UNL     1      -1.263   2.558   0.181  0.00  0.00    +0.001 A 
ATOM      4  C   UNL     1      -1.093   1.188   0.064  0.00  0.00    +0.002 A 
ATOM      5  C   UNL     1       0.174   0.646  -0.012  0.00  0.00    +0.024 A 
ATOM      6  C   UNL     1       1.288   1.473   0.018  0.00  0.00    +0.046 A 
ENDROOT
BRANCH   1   8
ATOM      7  N   UNL     1       2.134   5.073   0.375  0.00  0.00    -0.281 N 
ATOM      8  C   UNL     1       2.295   3.751   0.165  0.00  0.00    +0.250 C 
ATOM      9  O   UNL     1       3.409   3.293   0.003  0.00  0.00    -0.270 OA
ATOM     10  H   UNL     1       1.253   5.429   0.570  0.00  0.00    +0.155 HD
BRANCH   7  20
ATOM     11  C   UNL     1       2.854   9.826  -1.161  0.00  0.00    +0.001 A 
ATOM     12  C   UNL     1       1.742   8.988  -1.108  0.00  0.00    +0.001 A 
ATOM     13  C   UNL     1       1.845   7.716  -0.632  0.00  0.00    +0.010 A 
ATOM     14  C   UNL     1       3.089   7.240  -0.187  0.00  0.00    +0.003 A 
ATOM     15  C   UNL     1       4.220   8.091  -0.241  0.00  0.00    -0.016 A 
ATOM     16  C   UNL     1       4.075   9.398  -0.739  0.00  0.00    +0.008 A 
ATOM     17  C   UNL     1       5.465   7.616   0.203  0.00  0.00    +0.008 A 
ATOM     18  C   UNL     1       5.577   6.345   0.680  0.00  0.00    +0.002 A 
ATOM     19  C   UNL     1       4.472   5.502   0.744  0.00  0.00    +0.024 A 
ATOM     20  C   UNL     1       3.234   5.928   0.313  0.00  0.00    +0.041 A 
ENDBRANCH   7  20
ENDBRANCH   1   8
BRANCH   6  21
ATOM     21  N   UNL     1       2.567   0.928  -0.063  0.00  0.00    -0.285 N 
ATOM     22  C   UNL     1       2.831  -0.261   0.514  0.00  0.00    +0.221 C 
ATOM     23  O   UNL     1       1.936  -0.895   1.032  0.00  0.00    -0.275 OA
ATOM     24  H   UNL     1       3.268   1.404  -0.535  0.00  0.00    +0.155 HD
BRANCH  22  25
ATOM     25  C   UNL     1       4.237  -0.804   0.514  0.00  0.00    +0.093 C 
ATOM     26  C   UNL     1       4.720  -0.980  -0.927  0.00  0.00    +0.040 C 
ATOM     27  C   UNL     1       6.002  -1.759  -0.951  0.00  0.00    -0.030 C 
ATOM     28  C   UNL     1       6.434  -2.474   0.037  0.00  0.00    -0.030 C 
ATOM     29  C   UNL     1       5.719  -2.616   1.349  0.00  0.00    +0.042 C 
ATOM     30  C   UNL     1       4.261  -2.173   1.204  0.00  0.00    +0.118 C 
BRANCH  30  31
ATOM     31  C   UNL     1       3.627  -2.065   2.567  0.00  0.00    +0.360 C 
ATOM     32  O   UNL     1       3.198  -1.003   2.951  0.00  0.00    -0.246 OA
ATOM     33  O   UNL     1       3.539  -3.148   3.354  0.00  0.00    -0.246 OA
ENDBRANCH  30  31
ENDBRANCH  22  25
ENDBRANCH   6  21
TORSDOF 5
