REMARK  Name = ZINC52880491
REMARK  5 active torsions:
REMARK  status: ('A' for Active; 'I' for Inactive)
REMARK    1  A    between atoms: C_1  and  C_2
REMARK    2  A    between atoms: C_2  and  C_3
REMARK    3  A    between atoms: C_2  and  C_9
REMARK    4  A    between atoms: C_2  and  N_12
REMARK    5  A    between atoms: C_19  and  N_22
REMARK                            x       y       z     vdW  Elec       q    Type
REMARK                         _______ _______ _______ _____ _____    ______ ____
ROOT
ATOM      1  N   UNL     1       0.730  -0.626  -0.747  0.00  0.00    -0.280 N 
ATOM      2  C   UNL     1       0.691  -0.498  -2.088  0.00  0.00    +0.303 C 
ATOM      3  O   UNL     1      -0.045   0.324  -2.600  0.00  0.00    -0.253 OA
ATOM      4  N   UNL     1       1.467  -1.282  -2.863  0.00  0.00    -0.287 N 
ATOM      5  C   UNL     1       2.439  -2.203  -2.259  0.00  0.00    +0.109 C 
ATOM      6  C   UNL     1       3.817  -1.937  -2.872  0.00  0.00    +0.017 C 
ATOM      7  C   UNL     1       3.721  -2.036  -4.396  0.00  0.00    -0.013 C 
ATOM      8  C   UNL     1       2.747  -0.977  -4.917  0.00  0.00    -0.057 C 
ATOM      9  C   UNL     1       1.353  -1.236  -4.327  0.00  0.00    +0.093 C 
ATOM     10  H   UNL     1       1.370  -1.227  -0.336  0.00  0.00    +0.152 HD
ENDROOT
BRANCH   8  11
ATOM     11  N   UNL     1       2.679  -1.052  -6.383  0.00  0.00    +0.381 N 
ATOM     12  H   UNL     1       2.358  -1.967  -6.658  0.00  0.00    -0.090 HD
ATOM     13  H   UNL     1       2.038  -0.353  -6.726  0.00  0.00    -0.090 HD
ATOM     14  H   UNL     1       3.596  -0.886  -6.771  0.00  0.00    -0.090 HD
ENDBRANCH   8  11
BRANCH   1  16
ATOM     15  C   UNL     1       0.057   1.639  -0.115  0.00  0.00    +0.049 C 
ATOM     16  C   UNL     1      -0.195   0.144   0.089  0.00  0.00    +0.160 C 
BRANCH  16  17
ATOM     17  C   UNL     1       0.025  -0.209   1.537  0.00  0.00    -0.013 A 
ATOM     18  C   UNL     1      -0.202   0.735   2.521  0.00  0.00    +0.006 A 
ATOM     19  C   UNL     1      -0.001   0.411   3.850  0.00  0.00    +0.000 A 
ATOM     20  C   UNL     1       0.428  -0.857   4.195  0.00  0.00    +0.000 A 
ATOM     21  C   UNL     1       0.655  -1.802   3.211  0.00  0.00    +0.000 A 
ATOM     22  C   UNL     1       0.449  -1.479   1.883  0.00  0.00    +0.006 A 
ENDBRANCH  16  17
BRANCH  16  23
ATOM     23  C   UNL     1      -1.614  -0.184  -0.298  0.00  0.00    +0.383 C 
ATOM     24  O   UNL     1      -1.833  -0.986  -1.190  0.00  0.00    -0.244 OA
ATOM     25  O   UNL     1      -2.543   0.353   0.280  0.00  0.00    -0.244 OA
ENDBRANCH  16  23
ENDBRANCH   1  16
TORSDOF 4
