REMARK  Name = ZINC66096428
REMARK  12 active torsions:
REMARK  status: ('A' for Active; 'I' for Inactive)
REMARK    1  A    between atoms: C_1  and  C_2
REMARK    2  A    between atoms: C_2  and  C_4
REMARK    3  A    between atoms: C_2  and  N_10
REMARK    4  A    between atoms: C_11  and  C_13
REMARK    5  A    between atoms: C_17  and  N_19
REMARK    6  A    between atoms: C_20  and  C_22
REMARK    7  A    between atoms: C_22  and  N_23
REMARK    8  A    between atoms: N_23  and  C_24
REMARK    9  A    between atoms: C_28  and  C_30
REMARK   10  A    between atoms: N_32  and  C_33
REMARK   11  A    between atoms: N_32  and  C_34
REMARK   12  A    between atoms: C_34  and  C_35
REMARK                            x       y       z     vdW  Elec       q    Type
REMARK                         _______ _______ _______ _____ _____    ______ ____
ROOT
ATOM      1  N   UNL     1      -0.112  -1.802   7.184  0.00  0.00    -0.284 N 
ATOM      2  C   UNL     1       0.550  -2.321   8.237  0.00  0.00    +0.234 C 
ATOM      3  O   UNL     1       1.752  -2.471   8.183  0.00  0.00    -0.274 OA
ATOM      4  H   UNL     1      -1.061  -1.612   7.253  0.00  0.00    +0.155 HD
ENDROOT
BRANCH   1   9
ATOM      5  C   UNL     1       2.358  -2.017   4.456  0.00  0.00    +0.038 A 
ATOM      6  C   UNL     1       1.909  -0.992   3.620  0.00  0.00    +0.013 A 
ATOM      7  C   UNL     1       0.801  -0.250   3.974  0.00  0.00    +0.003 A 
ATOM      8  C   UNL     1       0.131  -0.517   5.153  0.00  0.00    +0.023 A 
ATOM      9  C   UNL     1       0.569  -1.535   5.991  0.00  0.00    +0.034 A 
ATOM     10  C   UNL     1       1.679  -2.290   5.643  0.00  0.00    +0.036 A 
BRANCH   5  12
ATOM     11  N   UNL     1       4.199  -2.548   2.932  0.00  0.00    -0.305 N 
ATOM     12  C   UNL     1       3.545  -2.814   4.080  0.00  0.00    +0.245 C 
ATOM     13  O   UNL     1       3.931  -3.709   4.806  0.00  0.00    -0.270 OA
ATOM     14  H   UNL     1       3.892  -1.834   2.353  0.00  0.00    +0.150 HD
BRANCH  11  16
ATOM     15  C   UNL     1       4.928  -4.610   1.838  0.00  0.00    +0.033 C 
ATOM     16  C   UNL     1       5.376  -3.338   2.560  0.00  0.00    +0.100 C 
BRANCH  16  17
ATOM     17  C   UNL     1       6.258  -2.526   1.647  0.00  0.00    -0.027 A 
ATOM     18  C   UNL     1       5.692  -1.726   0.671  0.00  0.00    +0.005 A 
ATOM     19  C   UNL     1       6.501  -0.981  -0.166  0.00  0.00    +0.000 A 
ATOM     20  C   UNL     1       7.875  -1.036  -0.029  0.00  0.00    +0.000 A 
ATOM     21  C   UNL     1       8.441  -1.835   0.947  0.00  0.00    +0.000 A 
ATOM     22  C   UNL     1       7.632  -2.576   1.788  0.00  0.00    +0.005 A 
ENDBRANCH  16  17
ENDBRANCH  11  16
ENDBRANCH   5  12
ENDBRANCH   1   9
BRANCH   2  23
ATOM     23  C   UNL     1      -0.204  -2.715   9.481  0.00  0.00    +0.198 C 
BRANCH  23  24
ATOM     24  N   UNL     1       0.734  -3.249  10.471  0.00  0.00    -0.335 N 
ATOM     25  H   UNL     1       1.681  -3.301  10.265  0.00  0.00    +0.147 HD
BRANCH  24  26
ATOM     26  C   UNL     1       0.266  -3.684  11.714  0.00  0.00    +0.028 A 
ATOM     27  C   UNL     1      -1.091  -3.615  12.008  0.00  0.00    +0.023 A 
ATOM     28  C   UNL     1      -1.560  -4.043  13.236  0.00  0.00    +0.003 A 
ATOM     29  C   UNL     1      -0.683  -4.543  14.178  0.00  0.00    +0.013 A 
ATOM     30  C   UNL     1       0.681  -4.617  13.892  0.00  0.00    +0.039 A 
ATOM     31  C   UNL     1       1.153  -4.189  12.651  0.00  0.00    +0.036 A 
BRANCH  30  32
ATOM     32  C   UNL     1       1.622  -5.151  14.900  0.00  0.00    +0.247 C 
ATOM     33  O   UNL     1       2.620  -5.747  14.544  0.00  0.00    -0.270 OA
ATOM     34  N   UNL     1       1.373  -4.978  16.213  0.00  0.00    -0.296 N 
ATOM     35  C   UNL     1       0.233  -4.164  16.641  0.00  0.00    +0.132 C 
BRANCH  34  36
ATOM     36  C   UNL     1       2.243  -5.604  17.212  0.00  0.00    +0.142 C 
BRANCH  36  37
ATOM     37  C   UNL     1       3.368  -4.662  17.559  0.00  0.00    -0.030 A 
ATOM     38  C   UNL     1       4.547  -4.700  16.839  0.00  0.00    +0.005 A 
ATOM     39  C   UNL     1       5.579  -3.836  17.157  0.00  0.00    +0.000 A 
ATOM     40  C   UNL     1       5.431  -2.935  18.195  0.00  0.00    +0.000 A 
ATOM     41  C   UNL     1       4.251  -2.897  18.914  0.00  0.00    +0.000 A 
ATOM     42  C   UNL     1       3.218  -3.758  18.593  0.00  0.00    +0.005 A 
ENDBRANCH  36  37
ENDBRANCH  34  36
ENDBRANCH  30  32
ENDBRANCH  24  26
ENDBRANCH  23  24
ENDBRANCH   2  23
TORSDOF 10
