REMARK  Name = ZINC61593949
REMARK  5 active torsions:
REMARK  status: ('A' for Active; 'I' for Inactive)
REMARK    1  A    between atoms: C_1  and  C_2
REMARK    2  A    between atoms: C_2  and  N_3
REMARK    3  A    between atoms: C_9  and  S_10
REMARK    4  A    between atoms: S_10  and  C_11
REMARK    5  A    between atoms: C_16  and  N_17
REMARK                            x       y       z     vdW  Elec       q    Type
REMARK                         _______ _______ _______ _____ _____    ______ ____
ROOT
ATOM      1  C   UNL     1      -1.801  -1.054   4.496  0.00  0.00    +0.038 A 
ATOM      2  C   UNL     1      -0.693  -1.373   5.276  0.00  0.00    +0.018 A 
ATOM      3  C   UNL     1      -0.871  -1.721   6.602  0.00  0.00    +0.018 A 
ATOM      4  C   UNL     1      -2.139  -1.748   7.134  0.00  0.00    +0.041 A 
ATOM      5  C   UNL     1      -3.288  -1.433   6.376  0.00  0.00    +0.100 A 
ATOM      6  C   UNL     1      -3.080  -1.075   5.024  0.00  0.00    +0.065 A 
ATOM      7  N   UNL     1      -4.436  -1.520   7.081  0.00  0.00    -0.246 NA
ATOM      8  C   UNL     1      -4.454  -1.863   8.335  0.00  0.00    +0.157 A 
ATOM      9  S   UNL     1      -2.837  -2.121   8.722  0.00  0.00    -0.075 S 
ENDROOT
BRANCH   6  10
ATOM     10  N   UNL     1      -4.173  -0.744   4.214  0.00  0.00    -0.355 N 
ATOM     11  H   UNL     1      -4.033  -0.501   3.285  0.00  0.00    +0.142 HD
ATOM     12  H   UNL     1      -5.071  -0.757   4.582  0.00  0.00    +0.142 HD
ENDBRANCH   6  10
BRANCH   1  13
ATOM     13  S   UNL     1      -1.570  -0.611   2.806  0.00  0.00    -0.048 S 
BRANCH  13  20
ATOM     14  N   UNL     1      -2.171  -2.148   0.546  0.00  0.00    -0.271 N 
ATOM     15  C   UNL     1      -2.581  -3.395   0.242  0.00  0.00    +0.345 A 
ATOM     16  O   UNL     1      -2.769  -3.838  -0.877  0.00  0.00    -0.245 OA
ATOM     17  N   UNL     1      -2.746  -4.064   1.402  0.00  0.00    -0.226 N 
ATOM     18  H   UNL     1      -3.035  -4.985   1.498  0.00  0.00    +0.194 HD
ATOM     19  N   UNL     1      -2.421  -3.184   2.444  0.00  0.00    -0.144 NA
ATOM     20  C   UNL     1      -2.075  -2.045   1.916  0.00  0.00    +0.197 A 
BRANCH  14  22
ATOM     21  C   UNL     1      -0.397  -1.157  -0.815  0.00  0.00    +0.027 C 
ATOM     22  C   UNL     1      -1.873  -1.085  -0.417  0.00  0.00    +0.125 C 
ENDBRANCH  14  22
ENDBRANCH  13  20
ENDBRANCH   1  13
TORSDOF 4
