REMARK  Name = ZINC39686701
REMARK  8 active torsions:
REMARK  status: ('A' for Active; 'I' for Inactive)
REMARK    1  A    between atoms: C_1  and  C_2
REMARK    2  A    between atoms: C_2  and  C_4
REMARK    3  A    between atoms: C_2  and  N_13
REMARK    4  A    between atoms: C_4  and  C_5
REMARK    5  A    between atoms: C_10  and  O_11
REMARK    6  A    between atoms: O_11  and  C_12
REMARK    7  A    between atoms: C_14  and  C_16
REMARK    8  A    between atoms: C_27  and  C_29
REMARK                            x       y       z     vdW  Elec       q    Type
REMARK                         _______ _______ _______ _____ _____    ______ ____
ROOT
ATOM      1  C   UNL     1       2.574  -1.090   1.858  0.00  0.00    +0.100 C 
ATOM      2  C   UNL     1       2.482  -2.509   2.462  0.00  0.00    +0.121 C 
ATOM      3  N   UNL     1       3.653  -3.229   1.908  0.00  0.00    -0.300 N 
ATOM      4  C   UNL     1       4.743  -2.224   1.921  0.00  0.00    +0.115 C 
ATOM      5  C   UNL     1       4.061  -0.905   1.508  0.00  0.00    -0.004 C 
ATOM      6  C   UNL     1       4.648   0.263   2.294  0.00  0.00    -0.010 C 
ATOM      7  C   UNL     1       6.110   0.463   1.886  0.00  0.00    -0.082 C 
ATOM      8  N   UNL     1       6.185   0.730   0.444  0.00  0.00    +0.379 N 
ATOM      9  C   UNL     1       5.705  -0.436  -0.307  0.00  0.00    -0.082 C 
ATOM     10  C   UNL     1       4.225  -0.674   0.009  0.00  0.00    -0.010 C 
ATOM     11  C   UNL     1       3.712  -4.508   1.487  0.00  0.00    +0.219 C 
ATOM     12  O   UNL     1       2.708  -5.186   1.465  0.00  0.00    -0.275 OA
ATOM     13  H   UNL     1       5.614   1.531   0.222  0.00  0.00    -0.086 HD
ATOM     14  H   UNL     1       7.143   0.922   0.189  0.00  0.00    -0.086 HD
ENDROOT
BRANCH  11  15
ATOM     15  C   UNL     1       5.028  -5.094   1.044  0.00  0.00    +0.079 C 
ATOM     16  C   UNL     1       4.773  -6.301   0.133  0.00  0.00    +0.017 C 
ATOM     17  C   UNL     1       6.114  -6.765  -0.443  0.00  0.00    +0.027 C 
ATOM     18  C   UNL     1       7.125  -6.911   0.657  0.00  0.00    -0.031 C 
ATOM     19  C   UNL     1       6.998  -6.387   1.833  0.00  0.00    -0.030 C 
ATOM     20  C   UNL     1       5.820  -5.564   2.267  0.00  0.00    +0.039 C 
ENDBRANCH  11  15
BRANCH   1  22
ATOM     21  N   UNL     1       1.182   0.189   0.263  0.00  0.00    -0.312 N 
ATOM     22  C   UNL     1       1.727  -0.992   0.616  0.00  0.00    +0.218 C 
ATOM     23  O   UNL     1       1.535  -1.976  -0.066  0.00  0.00    -0.275 OA
ATOM     24  H   UNL     1       1.270   0.958   0.848  0.00  0.00    +0.149 HD
BRANCH  21  26
ATOM     25  C   UNL     1       1.397   0.853  -2.081  0.00  0.00    +0.028 C 
ATOM     26  C   UNL     1       0.455   0.311  -1.003  0.00  0.00    +0.074 C 
BRANCH  26  27
ATOM     27  C   UNL     1      -0.722   1.272  -0.825  0.00  0.00    +0.060 C 
BRANCH  27  28
ATOM     28  C   UNL     1      -1.719   0.673   0.133  0.00  0.00    -0.004 A 
ATOM     29  C   UNL     1      -2.760  -0.100  -0.345  0.00  0.00    +0.007 A 
ATOM     30  C   UNL     1      -3.675  -0.649   0.533  0.00  0.00    +0.000 A 
ATOM     31  C   UNL     1      -3.551  -0.428   1.892  0.00  0.00    +0.004 A 
ATOM     32  C   UNL     1      -2.512   0.343   2.376  0.00  0.00    +0.046 A 
ATOM     33  C   UNL     1      -1.589   0.892   1.497  0.00  0.00    +0.123 A 
BRANCH  33  34
ATOM     34  O   UNL     1      -0.563   1.646   1.970  0.00  0.00    -0.495 OA
ATOM     35  C   UNL     1      -0.492   1.830   3.386  0.00  0.00    +0.277 C 
ENDBRANCH  33  34
ENDBRANCH  27  28
ENDBRANCH  26  27
ENDBRANCH  21  26
ENDBRANCH   1  22
TORSDOF 6
