REMARK  Name = ZINC38620632
REMARK  7 active torsions:
REMARK  status: ('A' for Active; 'I' for Inactive)
REMARK    1  A    between atoms: C_5  and  N_7
REMARK    2  A    between atoms: N_10  and  C_13
REMARK    3  A    between atoms: C_13  and  C_15
REMARK    4  A    between atoms: C_13  and  C_29
REMARK    5  A    between atoms: C_15  and  N_16
REMARK    6  A    between atoms: C_17  and  C_19
REMARK    7  A    between atoms: C_22  and  C_25
REMARK                            x       y       z     vdW  Elec       q    Type
REMARK                         _______ _______ _______ _____ _____    ______ ____
ROOT
ATOM      1  C   UNL     1      -0.647  -5.834  -0.045  0.00  0.00    +0.104 C 
ENDROOT
BRANCH   1   2
ATOM      2  C   UNL     1      -0.450  -6.551  -1.356  0.00  0.00    -0.025 A 
ATOM      3  C   UNL     1       0.821  -6.695  -1.879  0.00  0.00    +0.009 A 
ATOM      4  C   UNL     1       1.007  -7.353  -3.081  0.00  0.00    +0.050 A 
ATOM      5  C   UNL     1      -0.082  -7.868  -3.765  0.00  0.00    +0.166 A 
ATOM      6  C   UNL     1      -1.363  -7.723  -3.238  0.00  0.00    +0.167 A 
ATOM      7  C   UNL     1      -1.541  -7.067  -2.030  0.00  0.00    +0.054 A 
ATOM      8  O   UNL     1      -2.254  -8.309  -4.089  0.00  0.00    -0.453 OA
ATOM      9  C   UNL     1      -1.553  -8.456  -5.338  0.00  0.00    +0.466 C 
ATOM     10  O   UNL     1      -0.171  -8.546  -4.946  0.00  0.00    -0.453 OA
ENDBRANCH   1   2
BRANCH   1  14
ATOM     11  N   UNL     1       1.058  -2.006   0.200  0.00  0.00    -0.325 N 
ATOM     12  C   UNL     1       1.174  -2.866   1.387  0.00  0.00    +0.120 C 
ATOM     13  C   UNL     1       0.110  -3.966   1.297  0.00  0.00    +0.104 C 
ATOM     14  N   UNL     1       0.239  -4.663   0.010  0.00  0.00    -0.291 NA
ATOM     15  C   UNL     1      -0.017  -3.755  -1.115  0.00  0.00    +0.104 C 
ATOM     16  C   UNL     1       1.035  -2.647  -1.124  0.00  0.00    +0.120 C 
BRANCH  11  21
ATOM     17  C   UNL     1      -0.363   1.364   0.575  0.00  0.00    +0.002 A 
ATOM     18  C   UNL     1       0.785   2.134   0.576  0.00  0.00    +0.003 A 
ATOM     19  C   UNL     1       2.025   1.534   0.452  0.00  0.00    +0.040 A 
ATOM     20  C   UNL     1       2.120   0.161   0.328  0.00  0.00    +0.144 A 
ATOM     21  C   UNL     1       0.967  -0.617   0.326  0.00  0.00    +0.065 A 
ATOM     22  C   UNL     1      -0.276  -0.009   0.451  0.00  0.00    +0.026 A 
ATOM     23  F   UNL     1       3.331  -0.426   0.206  0.00  0.00    -0.204 F 
ENDBRANCH  11  21
ENDBRANCH   1  14
BRANCH   1  24
ATOM     24  C   UNL     1      -0.314  -6.781   1.109  0.00  0.00    +0.128 C 
BRANCH  24  25
ATOM     25  N   UNL     1      -1.256  -7.903   1.107  0.00  0.00    -0.310 N 
ATOM     26  C   UNL     1      -1.208  -8.824   2.090  0.00  0.00    +0.244 C 
ATOM     27  O   UNL     1      -0.384  -8.724   2.978  0.00  0.00    -0.270 OA
ATOM     28  H   UNL     1      -1.913  -7.983   0.399  0.00  0.00    +0.149 HD
BRANCH  26  29
ATOM     29  C   UNL     1      -2.158  -9.957   2.088  0.00  0.00    +0.037 A 
ATOM     30  C   UNL     1      -3.102 -10.078   1.067  0.00  0.00    +0.013 A 
ATOM     31  C   UNL     1      -3.986 -11.138   1.071  0.00  0.00    +0.013 A 
ATOM     32  C   UNL     1      -3.938 -12.079   2.084  0.00  0.00    +0.055 A 
ATOM     33  C   UNL     1      -3.005 -11.964   3.100  0.00  0.00    +0.013 A 
ATOM     34  C   UNL     1      -2.112 -10.912   3.104  0.00  0.00    +0.013 A 
BRANCH  32  35
ATOM     35  C   UNL     1      -4.906 -13.233   2.082  0.00  0.00    +0.417 C 
ATOM     36  F   UNL     1      -4.351 -14.306   1.377  0.00  0.00    -0.166 F 
ATOM     37  F   UNL     1      -5.167 -13.626   3.400  0.00  0.00    -0.166 F 
ATOM     38  F   UNL     1      -6.100 -12.839   1.469  0.00  0.00    -0.166 F 
ENDBRANCH  32  35
ENDBRANCH  26  29
ENDBRANCH  24  25
ENDBRANCH   1  24
TORSDOF 7
