REMARK  Name = ZINC56344573
REMARK  6 active torsions:
REMARK  status: ('A' for Active; 'I' for Inactive)
REMARK    1  A    between atoms: C_4  and  O_23
REMARK    2  A    between atoms: C_5  and  N_7
REMARK    3  A    between atoms: C_8  and  C_10
REMARK    4  A    between atoms: C_14  and  N_16
REMARK    5  A    between atoms: N_19  and  C_20
REMARK    6  A    between atoms: O_23  and  C_24
REMARK                            x       y       z     vdW  Elec       q    Type
REMARK                         _______ _______ _______ _____ _____    ______ ____
ROOT
ATOM      1  N   UNL     1       1.226  -2.073   0.002  0.00  0.00    -0.279 N 
ATOM      2  C   UNL     1       0.076  -2.768   0.107  0.00  0.00    +0.248 C 
ATOM      3  O   UNL     1      -0.989  -2.182   0.122  0.00  0.00    -0.270 OA
ATOM      4  H   UNL     1       2.069  -2.542  -0.092  0.00  0.00    +0.155 HD
ENDROOT
BRANCH   1   9
ATOM      5  C   UNL     1       0.137   1.376   0.674  0.00  0.00    +0.002 A 
ATOM      6  C   UNL     1       1.155   2.097   0.078  0.00  0.00    +0.004 A 
ATOM      7  C   UNL     1       2.200   1.439  -0.545  0.00  0.00    +0.048 A 
ATOM      8  C   UNL     1       2.228   0.054  -0.574  0.00  0.00    +0.151 A 
ATOM      9  C   UNL     1       1.202  -0.673   0.027  0.00  0.00    +0.076 A 
ATOM     10  C   UNL     1       0.158  -0.005   0.651  0.00  0.00    +0.027 A 
BRANCH   8  11
ATOM     11  O   UNL     1       3.254  -0.594  -1.187  0.00  0.00    -0.404 OA
BRANCH  11  12
ATOM     12  C   UNL     1       4.270   0.215  -1.782  0.00  0.00    +0.575 C 
ATOM     13  F   UNL     1       4.864   1.015  -0.799  0.00  0.00    -0.133 F 
ATOM     14  F   UNL     1       5.241  -0.607  -2.364  0.00  0.00    -0.133 F 
ATOM     15  F   UNL     1       3.700   1.031  -2.765  0.00  0.00    -0.133 F 
ENDBRANCH  11  12
ENDBRANCH   8  11
ENDBRANCH   1   9
BRANCH   2  16
ATOM     16  C   UNL     1       0.110  -4.242   0.204  0.00  0.00    +0.039 A 
ATOM     17  C   UNL     1       1.332  -4.917   0.192  0.00  0.00    +0.013 A 
ATOM     18  C   UNL     1       1.361  -6.294   0.283  0.00  0.00    +0.003 A 
ATOM     19  C   UNL     1       0.182  -7.009   0.386  0.00  0.00    +0.023 A 
ATOM     20  C   UNL     1      -1.039  -6.347   0.398  0.00  0.00    +0.035 A 
ATOM     21  C   UNL     1      -1.079  -4.964   0.313  0.00  0.00    +0.036 A 
BRANCH  20  22
ATOM     22  N   UNL     1      -2.230  -7.076   0.502  0.00  0.00    -0.269 N 
ATOM     23  C   UNL     1      -3.334  -6.659  -0.148  0.00  0.00    +0.304 C 
ATOM     24  O   UNL     1      -3.322  -5.604  -0.753  0.00  0.00    -0.253 OA
ATOM     25  N   UNL     1      -4.453  -7.410  -0.127  0.00  0.00    -0.296 N 
ATOM     26  H   UNL     1      -2.260  -7.882   1.041  0.00  0.00    +0.156 HD
ATOM     27  H   UNL     1      -4.463  -8.252   0.356  0.00  0.00    +0.151 HD
BRANCH  25  28
ATOM     28  C   UNL     1      -5.654  -6.957  -0.833  0.00  0.00    +0.075 C 
ATOM     29  C   UNL     1      -6.995  -7.100  -0.110  0.00  0.00    +0.024 C 
ATOM     30  C   UNL     1      -6.655  -8.024  -1.282  0.00  0.00    +0.024 C 
ENDBRANCH  25  28
ENDBRANCH  20  22
ENDBRANCH   2  16
TORSDOF 6
