REMARK  Name = ZINC59960710
REMARK  6 active torsions:
REMARK  status: ('A' for Active; 'I' for Inactive)
REMARK    1  A    between atoms: C_4  and  C_28
REMARK    2  A    between atoms: C_6  and  N_7
REMARK    3  A    between atoms: C_8  and  C_10
REMARK    4  A    between atoms: N_12  and  N_13
REMARK    5  A    between atoms: C_14  and  C_15
REMARK    6  A    between atoms: C_18  and  C_20
REMARK                            x       y       z     vdW  Elec       q    Type
REMARK                         _______ _______ _______ _____ _____    ______ ____
ROOT
ATOM      1  C   UNL     1      -3.642  -0.837   0.246  0.00  0.00    +0.318 C 
ATOM      2  O   UNL     1      -3.620  -2.052   0.239  0.00  0.00    -0.263 OA
ATOM      3  N   UNL     1      -4.816  -0.185   0.363  0.00  0.00    -0.199 N 
ATOM      4  H   UNL     1      -4.833   0.785   0.368  0.00  0.00    +0.178 HD
ENDROOT
BRANCH   1   6
ATOM      5  N   UNL     1      -1.198  -0.721   0.010  0.00  0.00    -0.278 N 
ATOM      6  C   UNL     1      -2.372  -0.068   0.126  0.00  0.00    +0.305 C 
ATOM      7  O   UNL     1      -2.393   1.146   0.133  0.00  0.00    -0.265 OA
ATOM      8  H   UNL     1      -1.186  -1.687  -0.073  0.00  0.00    +0.155 HD
BRANCH   5  14
ATOM      9  C   UNL     1       0.122   1.155   0.763  0.00  0.00    +0.025 A 
ATOM     10  C   UNL     1       1.309   1.861   0.759  0.00  0.00    +0.022 A 
ATOM     11  C   UNL     1       2.379   1.414   0.004  0.00  0.00    +0.053 A 
ATOM     12  C   UNL     1       2.262   0.259  -0.750  0.00  0.00    +0.075 A 
ATOM     13  C   UNL     1       1.078  -0.451  -0.750  0.00  0.00    +0.037 A 
ATOM     14  C   UNL     1       0.002  -0.004   0.008  0.00  0.00    +0.034 A 
ATOM     15 CL   UNL     1       3.870   2.303   0.001  0.00  0.00    -0.083 Cl
BRANCH  12  16
ATOM     16  C   UNL     1       3.429  -0.225  -1.572  0.00  0.00    +0.419 C 
ATOM     17  F   UNL     1       3.073  -1.401  -2.241  0.00  0.00    -0.166 F 
ATOM     18  F   UNL     1       3.779   0.756  -2.507  0.00  0.00    -0.166 F 
ATOM     19  F   UNL     1       4.519  -0.478  -0.732  0.00  0.00    -0.166 F 
ENDBRANCH  12  16
ENDBRANCH   5  14
ENDBRANCH   1   6
BRANCH   3  20
ATOM     20  N   UNL     1      -6.011  -0.907   0.476  0.00  0.00    -0.184 NA
ATOM     21  C   UNL     1      -7.146  -0.276   0.589  0.00  0.00    +0.176 C 
BRANCH  21  22
ATOM     22  C   UNL     1      -8.393  -1.031   0.707  0.00  0.00    +0.148 A 
ATOM     23  C   UNL     1      -9.657  -0.492   0.826  0.00  0.00    +0.051 A 
ATOM     24  C   UNL     1     -10.549  -1.569   0.909  0.00  0.00    +0.050 A 
ATOM     25  C   UNL     1      -9.806  -2.711   0.839  0.00  0.00    +0.136 A 
ATOM     26  O   UNL     1      -8.508  -2.375   0.712  0.00  0.00    -0.454 OA
BRANCH  25  27
ATOM     27  C   UNL     1     -10.337  -4.087   0.889  0.00  0.00    +0.020 A 
ATOM     28  C   UNL     1     -11.711  -4.304   1.013  0.00  0.00    +0.031 A 
ATOM     29  C   UNL     1     -12.202  -5.594   1.059  0.00  0.00    +0.043 A 
ATOM     30  C   UNL     1     -11.335  -6.671   0.982  0.00  0.00    +0.040 A 
ATOM     31  C   UNL     1      -9.971  -6.463   0.859  0.00  0.00    +0.043 A 
ATOM     32  C   UNL     1      -9.468  -5.178   0.807  0.00  0.00    +0.031 A 
ATOM     33 CL   UNL     1      -8.893  -7.819   0.764  0.00  0.00    -0.083 Cl
ATOM     34 CL   UNL     1     -13.909  -5.866   1.214  0.00  0.00    -0.083 Cl
ENDBRANCH  25  27
ENDBRANCH  21  22
ENDBRANCH   3  20
TORSDOF 6
