REMARK  Name = ZINC66967348
REMARK  8 active torsions:
REMARK  status: ('A' for Active; 'I' for Inactive)
REMARK    1  A    between atoms: C_1  and  C_2
REMARK    2  A    between atoms: C_4  and  C_21
REMARK    3  A    between atoms: C_7  and  N_8
REMARK    4  A    between atoms: N_11  and  C_12
REMARK    5  A    between atoms: C_12  and  C_14
REMARK    6  A    between atoms: C_12  and  C_15
REMARK    7  A    between atoms: N_19  and  C_20
REMARK    8  A    between atoms: C_28  and  C_30
REMARK                            x       y       z     vdW  Elec       q    Type
REMARK                         _______ _______ _______ _____ _____    ______ ____
ROOT
ATOM      1  C   UNL     1       0.762   1.291   0.222  0.00  0.00    +0.045 C 
ATOM      2  C   UNL     1       0.267  -0.128   0.108  0.00  0.00    -0.028 A 
ATOM      3  C   UNL     1       0.378  -0.801  -1.088  0.00  0.00    +0.018 A 
ATOM      4  C   UNL     1      -0.082  -2.117  -1.192  0.00  0.00    +0.037 A 
ATOM      5  C   UNL     1      -0.652  -2.745  -0.081  0.00  0.00    +0.015 A 
ATOM      6  C   UNL     1      -0.759  -2.066   1.111  0.00  0.00    +0.024 A 
ATOM      7  C   UNL     1      -0.296  -0.758   1.214  0.00  0.00    +0.038 A 
ENDROOT
BRANCH   4   8
ATOM      8  C   UNL     1       0.035  -2.841  -2.473  0.00  0.00    +0.247 C 
ATOM      9  O   UNL     1      -0.074  -2.240  -3.523  0.00  0.00    -0.270 OA
ATOM     10  N   UNL     1       0.263  -4.170  -2.477  0.00  0.00    -0.295 N 
ATOM     11  C   UNL     1       0.524  -4.889  -1.222  0.00  0.00    +0.108 C 
ATOM     12  C   UNL     1      -0.454  -6.063  -1.114  0.00  0.00    +0.019 C 
ATOM     13  C   UNL     1      -0.345  -6.930  -2.370  0.00  0.00    +0.003 C 
ATOM     14  C   UNL     1      -0.721  -6.100  -3.599  0.00  0.00    +0.022 C 
ATOM     15  C   UNL     1       0.248  -4.928  -3.736  0.00  0.00    +0.073 C 
ATOM     16  C   UNL     1      -0.209  -4.017  -4.877  0.00  0.00    +0.028 C 
ENDBRANCH   4   8
BRANCH   7  17
ATOM     17  N   UNL     1      -0.401  -0.075   2.425  0.00  0.00    -0.269 N 
ATOM     18  C   UNL     1      -1.370  -0.405   3.302  0.00  0.00    +0.304 C 
ATOM     19  O   UNL     1      -2.103  -1.347   3.073  0.00  0.00    -0.252 OA
ATOM     20  N   UNL     1      -1.525   0.310   4.434  0.00  0.00    -0.290 N 
ATOM     21  H   UNL     1       0.223   0.637   2.636  0.00  0.00    +0.156 HD
ATOM     22  H   UNL     1      -0.940   1.062   4.617  0.00  0.00    +0.151 HD
BRANCH  20  23
ATOM     23  C   UNL     1      -2.578  -0.049   5.388  0.00  0.00    +0.139 C 
ATOM     24  C   UNL     1      -2.066  -1.145   6.324  0.00  0.00    +0.036 C 
BRANCH  23  25
ATOM     25  C   UNL     1      -2.958   1.165   6.196  0.00  0.00    +0.153 A 
ATOM     26  N   UNL     1      -2.137   2.022   6.738  0.00  0.00    -0.133 NA
ATOM     27  N   UNL     1      -2.805   2.933   7.353  0.00  0.00    -0.138 NA
ATOM     28  C   UNL     1      -4.083   2.699   7.231  0.00  0.00    +0.224 A 
ATOM     29  N   UNL     1      -4.217   1.573   6.488  0.00  0.00    -0.319 N 
ATOM     30  C   UNL     1      -5.469   0.926   6.086  0.00  0.00    +0.151 C 
ENDBRANCH  23  25
ENDBRANCH  20  23
ENDBRANCH   7  17
TORSDOF 4
