REMARK  Name = ZINC32527496
REMARK  8 active torsions:
REMARK  status: ('A' for Active; 'I' for Inactive)
REMARK    1  A    between atoms: C_1  and  C_2
REMARK    2  A    between atoms: C_4  and  C_31
REMARK    3  A    between atoms: C_8  and  C_30
REMARK    4  A    between atoms: N_12  and  C_13
REMARK    5  A    between atoms: C_13  and  C_14
REMARK    6  A    between atoms: C_14  and  C_15
REMARK    7  A    between atoms: N_17  and  C_18
REMARK    8  A    between atoms: C_19  and  C_27
REMARK                            x       y       z     vdW  Elec       q    Type
REMARK                         _______ _______ _______ _____ _____    ______ ____
ROOT
ATOM      1  C   UNL     1       5.080   3.741  -0.808  0.00  0.00    +0.219 C 
ATOM      2  O   UNL     1       5.435   4.175   0.267  0.00  0.00    -0.275 OA
ATOM      3  N   UNL     1       5.704   4.139  -1.935  0.00  0.00    -0.279 N 
ATOM      4  H   UNL     1       5.382   3.746  -2.910  0.00  0.00    +0.155 HD
ENDROOT
BRANCH   3   5
ATOM      5  C   UNL     1       6.751   5.045  -1.864  0.00  0.00    +0.084 A 
ATOM      6  C   UNL     1       7.513   5.565  -2.901  0.00  0.00    +0.068 A 
ATOM      7  C   UNL     1       8.560   6.511  -2.555  0.00  0.00    -0.023 A 
ATOM      8  C   UNL     1       8.684   6.776  -1.237  0.00  0.00    -0.004 A 
ATOM      9  S   UNL     1       7.431   5.797  -0.459  0.00  0.00    -0.077 S 
ATOM     10  C   UNL     1       9.671   7.698  -0.589  0.00  0.00    +0.043 C 
ATOM     11  C   UNL     1      10.774   8.019  -1.609  0.00  0.00    +0.005 C 
ATOM     12  C   UNL     1      10.120   8.404  -2.939  0.00  0.00    +0.005 C 
ATOM     13  C   UNL     1       9.476   7.172  -3.578  0.00  0.00    +0.037 C 
BRANCH   6  14
ATOM     14  C   UNL     1       7.267   5.178  -4.293  0.00  0.00    +0.244 C 
ATOM     15  O   UNL     1       6.483   5.814  -4.973  0.00  0.00    -0.270 OA
ATOM     16  N   UNL     1       7.909   4.117  -4.821  0.00  0.00    -0.325 N 
ATOM     17  H   UNL     1       7.725   3.826  -5.865  0.00  0.00    +0.145 HD
ATOM     18  H   UNL     1       8.618   3.541  -4.207  0.00  0.00    +0.145 HD
ENDBRANCH   6  14
ENDBRANCH   3   5
BRANCH   1  19
ATOM     19  C   UNL     1       3.942   2.756  -0.885  0.00  0.00    +0.118 C 
BRANCH  19  20
ATOM     20  C   UNL     1       3.415   2.475   0.523  0.00  0.00    +0.134 C 
BRANCH  20  32
ATOM     21  C   UNL     1      -3.277   2.517  -0.118  0.00  0.00    +0.044 C 
ATOM     22  C   UNL     1      -1.799   2.270   0.031  0.00  0.00    -0.050 A 
ATOM     23  C   UNL     1      -0.912   3.325   0.079  0.00  0.00    +0.008 A 
ATOM     24  C   UNL     1       0.456   3.123   0.217  0.00  0.00    -0.026 A 
ATOM     25  C   UNL     1       0.978   1.841   0.310  0.00  0.00    +0.055 A 
ATOM     26  C   UNL     1       0.049   0.761   0.258  0.00  0.00    +0.002 A 
ATOM     27  C   UNL     1      -1.323   0.995   0.119  0.00  0.00    +0.013 A 
ATOM     28  C   UNL     1       0.517  -0.623   0.349  0.00  0.00    -0.036 A 
ATOM     29  C   UNL     1       1.844  -0.860   0.484  0.00  0.00    +0.074 A 
ATOM     30  C   UNL     1       2.726   0.229   0.530  0.00  0.00    +0.252 A 
ATOM     31  O   UNL     1       3.924   0.026   0.650  0.00  0.00    -0.268 OA
ATOM     32  N   UNL     1       2.307   1.516   0.448  0.00  0.00    -0.307 N 
ATOM     33  C   UNL     1      -0.442  -1.786   0.298  0.00  0.00    +0.044 C 
ATOM     34  C   UNL     1       1.253   4.405   0.248  0.00  0.00    +0.046 C 
ENDBRANCH  20  32
ENDBRANCH  19  20
ENDBRANCH   1  19
TORSDOF 5
