REMARK  Name = ZINC50208585
REMARK  4 active torsions:
REMARK  status: ('A' for Active; 'I' for Inactive)
REMARK    1  A    between atoms: C_1  and  C_2
REMARK    2  A    between atoms: C_5  and  C_8
REMARK    3  A    between atoms: C_10  and  C_13
REMARK    4  A    between atoms: C_18  and  N_19
REMARK                            x       y       z     vdW  Elec       q    Type
REMARK                         _______ _______ _______ _____ _____    ______ ____
ROOT
ATOM      1  C   UNL     1       0.682  -4.662  -0.565  0.00  0.00    +0.202 A 
ATOM      2  N   UNL     1       0.617  -5.296   0.615  0.00  0.00    -0.187 NA
ATOM      3  C   UNL     1       0.386  -6.575   0.424  0.00  0.00    +0.261 A 
ATOM      4  O   UNL     1       0.298  -6.793  -0.901  0.00  0.00    -0.332 OA
ATOM      5  N   UNL     1       0.488  -5.533  -1.526  0.00  0.00    -0.056 NA
ENDROOT
BRANCH   1  10
ATOM      6  C   UNL     1       1.635   0.972  -1.293  0.00  0.00    +0.044 C 
ATOM      7  C   UNL     1       1.386  -0.502  -1.102  0.00  0.00    -0.050 A 
ATOM      8  C   UNL     1       1.197  -1.317  -2.204  0.00  0.00    +0.004 A 
ATOM      9  C   UNL     1       0.968  -2.667  -2.035  0.00  0.00    +0.012 A 
ATOM     10  C   UNL     1       0.928  -3.210  -0.753  0.00  0.00    +0.022 A 
ATOM     11  C   UNL     1       1.120  -2.385   0.353  0.00  0.00    +0.012 A 
ATOM     12  C   UNL     1       1.353  -1.036   0.173  0.00  0.00    +0.004 A 
ENDBRANCH   1  10
BRANCH   3  13
ATOM     13  C   UNL     1       0.248  -7.597   1.479  0.00  0.00    +0.061 A 
ATOM     14  C   UNL     1       1.170  -7.653   2.527  0.00  0.00    +0.030 A 
ATOM     15  C   UNL     1       1.036  -8.611   3.510  0.00  0.00    +0.019 A 
ATOM     16  C   UNL     1      -0.010  -9.519   3.464  0.00  0.00    +0.017 A 
ATOM     17  C   UNL     1      -0.928  -9.476   2.434  0.00  0.00    +0.024 A 
ATOM     18  C   UNL     1      -0.812  -8.515   1.439  0.00  0.00    +0.037 A 
ATOM     19 BR   UNL     1       2.285  -8.685   4.928  0.00  0.00    -0.050 Br
BRANCH  18  20
ATOM     20  N   UNL     1      -1.740  -8.466   0.403  0.00  0.00    -0.357 N 
ATOM     21  H   UNL     1      -1.709  -7.742  -0.242  0.00  0.00    +0.142 HD
ATOM     22  H   UNL     1      -2.418  -9.155   0.327  0.00  0.00    +0.142 HD
ENDBRANCH  18  20
ENDBRANCH   3  13
TORSDOF 3
