REMARK  Name = ZINC66107053
REMARK  10 active torsions:
REMARK  status: ('A' for Active; 'I' for Inactive)
REMARK    1  A    between atoms: C_4  and  O_31
REMARK    2  A    between atoms: C_5  and  N_7
REMARK    3  A    between atoms: C_8  and  C_10
REMARK    4  A    between atoms: C_10  and  N_11
REMARK    5  A    between atoms: N_11  and  C_12
REMARK    6  A    between atoms: C_16  and  C_18
REMARK    7  A    between atoms: N_20  and  C_21
REMARK    8  A    between atoms: C_25  and  C_27
REMARK    9  A    between atoms: O_31  and  C_32
REMARK   10  A    between atoms: C_32  and  C_33
REMARK                            x       y       z     vdW  Elec       q    Type
REMARK                         _______ _______ _______ _____ _____    ______ ____
ROOT
ATOM      1  N   UNL     1      -1.273  -4.750   0.833  0.00  0.00    -0.335 N 
ATOM      2  H   UNL     1      -2.019  -4.143   0.960  0.00  0.00    +0.147 HD
ENDROOT
BRANCH   1   3
ATOM      3  C   UNL     1      -1.497  -6.127   0.759  0.00  0.00    +0.028 A 
ATOM      4  C   UNL     1      -0.427  -6.996   0.582  0.00  0.00    +0.023 A 
ATOM      5  C   UNL     1      -0.643  -8.359   0.507  0.00  0.00    +0.003 A 
ATOM      6  C   UNL     1      -1.922  -8.866   0.607  0.00  0.00    +0.013 A 
ATOM      7  C   UNL     1      -3.004  -8.002   0.785  0.00  0.00    +0.039 A 
ATOM      8  C   UNL     1      -2.785  -6.626   0.867  0.00  0.00    +0.036 A 
BRANCH   7   9
ATOM      9  C   UNL     1      -4.376  -8.542   0.892  0.00  0.00    +0.248 C 
ATOM     10  O   UNL     1      -5.316  -7.788   1.046  0.00  0.00    -0.270 OA
ATOM     11  N   UNL     1      -4.584  -9.872   0.818  0.00  0.00    -0.281 N 
ATOM     12  H   UNL     1      -3.829 -10.479   0.770  0.00  0.00    +0.155 HD
BRANCH  11  13
ATOM     13  C   UNL     1      -5.888 -10.376   0.809  0.00  0.00    +0.034 A 
ATOM     14  C   UNL     1      -6.168 -11.594   1.416  0.00  0.00    +0.023 A 
ATOM     15  C   UNL     1      -7.457 -12.089   1.405  0.00  0.00    +0.002 A 
ATOM     16  C   UNL     1      -8.469 -11.374   0.792  0.00  0.00    +0.012 A 
ATOM     17  C   UNL     1      -8.194 -10.161   0.186  0.00  0.00    +0.057 A 
ATOM     18  C   UNL     1      -6.908  -9.658   0.198  0.00  0.00    +0.035 A 
BRANCH  17  19
ATOM     19  C   UNL     1      -9.300  -9.386  -0.482  0.00  0.00    +0.417 C 
ATOM     20  F   UNL     1     -10.503 -10.089  -0.359  0.00  0.00    -0.166 F 
ATOM     21  F   UNL     1      -9.427  -8.134   0.130  0.00  0.00    -0.166 F 
ATOM     22  F   UNL     1      -8.996  -9.214  -1.837  0.00  0.00    -0.166 F 
ENDBRANCH  17  19
ENDBRANCH  11  13
ENDBRANCH   7   9
ENDBRANCH   1   3
BRANCH   1  23
ATOM     23  C   UNL     1       0.089  -4.221   0.719  0.00  0.00    +0.198 C 
BRANCH  23  25
ATOM     24  N   UNL     1       1.201  -2.012   0.754  0.00  0.00    -0.281 N 
ATOM     25  C   UNL     1       0.056  -2.719   0.831  0.00  0.00    +0.234 C 
ATOM     26  O   UNL     1      -1.001  -2.146   0.991  0.00  0.00    -0.274 OA
ATOM     27  H   UNL     1       2.035  -2.462   0.549  0.00  0.00    +0.155 HD
BRANCH  24  32
ATOM     28  C   UNL     1       0.134   1.319   1.896  0.00  0.00    +0.002 A 
ATOM     29  C   UNL     1       1.154   2.109   1.398  0.00  0.00    +0.004 A 
ATOM     30  C   UNL     1       2.192   1.537   0.687  0.00  0.00    +0.047 A 
ATOM     31  C   UNL     1       2.213   0.169   0.470  0.00  0.00    +0.142 A 
ATOM     32  C   UNL     1       1.185  -0.628   0.971  0.00  0.00    +0.076 A 
ATOM     33  C   UNL     1       0.147  -0.047   1.684  0.00  0.00    +0.027 A 
BRANCH  31  34
ATOM     34  O   UNL     1       3.232  -0.395  -0.231  0.00  0.00    -0.488 OA
BRANCH  34  35
ATOM     35  C   UNL     1       4.251   0.483  -0.715  0.00  0.00    +0.260 C 
BRANCH  35  36
ATOM     36  C   UNL     1       5.305  -0.326  -1.472  0.00  0.00    +0.156 C 
ATOM     37  C   UNL     1       6.371   0.618  -2.083  0.00  0.00    +0.037 C 
ATOM     38  C   UNL     1       7.585  -0.344  -2.198  0.00  0.00    +0.031 C 
ATOM     39  C   UNL     1       7.404  -1.250  -0.961  0.00  0.00    +0.160 C 
ATOM     40  O   UNL     1       6.027  -1.176  -0.567  0.00  0.00    -0.373 OA
ENDBRANCH  35  36
ENDBRANCH  34  35
ENDBRANCH  31  34
ENDBRANCH  24  32
ENDBRANCH  23  25
ENDBRANCH   1  23
TORSDOF 10
