REMARK  Name = ZINC04292481
REMARK  13 active torsions:
REMARK  status: ('A' for Active; 'I' for Inactive)
REMARK    1  A    between atoms: C_1  and  C_2
REMARK    2  A    between atoms: C_2  and  O_3
REMARK    3  A    between atoms: O_3  and  C_4
REMARK    4  A    between atoms: C_4  and  C_6
REMARK    5  A    between atoms: C_7  and  C_19
REMARK    6  A    between atoms: C_8  and  C_18
REMARK    7  A    between atoms: N_9  and  C_11
REMARK    8  A    between atoms: C_14  and  C_17
REMARK    9  A    between atoms: C_19  and  C_21
REMARK   10  A    between atoms: C_22  and  S_33
REMARK   11  A    between atoms: C_23  and  C_26
REMARK   12  A    between atoms: C_29  and  C_32
REMARK   13  A    between atoms: S_33  and  C_36
REMARK                            x       y       z     vdW  Elec       q    Type
REMARK                         _______ _______ _______ _____ _____    ______ ____
ROOT
ATOM      1  C   UNL     1      -3.720   1.449   2.774  0.00  0.00    +0.179 A 
ATOM      2  C   UNL     1      -2.872   0.618   1.997  0.00  0.00    +0.171 A 
ATOM      3  C   UNL     1      -2.866  -0.569   2.676  0.00  0.00    +0.193 A 
ATOM      4  O   UNL     1      -3.651  -0.392   3.754  0.00  0.00    -0.352 OA
ATOM      5  N   UNL     1      -4.116   0.723   3.792  0.00  0.00    -0.072 NA
ENDROOT
BRANCH   3   6
ATOM      6  C   UNL     1      -2.139  -1.800   2.302  0.00  0.00    +0.022 A 
ATOM      7  C   UNL     1      -2.379  -2.408   1.069  0.00  0.00    +0.012 A 
ATOM      8  C   UNL     1      -1.693  -3.555   0.724  0.00  0.00    +0.004 A 
ATOM      9  C   UNL     1      -0.778  -4.108   1.601  0.00  0.00    -0.050 A 
ATOM     10  C   UNL     1      -0.540  -3.513   2.828  0.00  0.00    +0.004 A 
ATOM     11  C   UNL     1      -1.215  -2.364   3.183  0.00  0.00    +0.012 A 
ATOM     12  C   UNL     1      -0.037  -5.363   1.220  0.00  0.00    +0.044 C 
ENDBRANCH   3   6
BRANCH   2  13
ATOM     13  S   UNL     1      -2.029   1.018   0.503  0.00  0.00    +0.031 S 
ATOM     14  O   UNL     1      -2.885   1.888  -0.226  0.00  0.00    -0.164 OA
ATOM     15  O   UNL     1      -1.551  -0.207  -0.035  0.00  0.00    -0.164 OA
BRANCH  13  16
ATOM     16  C   UNL     1      -0.609   1.963   0.943  0.00  0.00    +0.094 A 
ATOM     17  C   UNL     1       0.590   1.327   1.207  0.00  0.00    +0.027 A 
ATOM     18  C   UNL     1       1.706   2.068   1.547  0.00  0.00    +0.002 A 
ATOM     19  C   UNL     1       1.622   3.446   1.628  0.00  0.00    +0.000 A 
ATOM     20  C   UNL     1       0.422   4.082   1.369  0.00  0.00    +0.002 A 
ATOM     21  C   UNL     1      -0.694   3.340   1.029  0.00  0.00    +0.027 A 
ENDBRANCH  13  16
ENDBRANCH   2  13
BRANCH   1  22
ATOM     22  C   UNL     1      -4.087   2.858   2.491  0.00  0.00    +0.220 C 
ATOM     23  O   UNL     1      -3.710   3.390   1.465  0.00  0.00    -0.285 OA
BRANCH  22  25
ATOM     24  C   UNL     1      -4.422   4.503   4.516  0.00  0.00    +0.181 A 
ATOM     25  C   UNL     1      -4.907   3.613   3.453  0.00  0.00    +0.079 A 
ATOM     26  C   UNL     1      -6.285   3.629   3.530  0.00  0.00    +0.054 A 
ATOM     27  N   UNL     1      -6.632   4.440   4.546  0.00  0.00    -0.236 N 
ATOM     28  N   UNL     1      -5.483   4.971   5.139  0.00  0.00    -0.159 NA
ATOM     29  C   UNL     1      -7.232   2.869   2.638  0.00  0.00    +0.066 C 
BRANCH  27  30
ATOM     30  C   UNL     1      -7.947   4.716   4.946  0.00  0.00    +0.066 A 
ATOM     31  C   UNL     1      -8.885   3.694   5.004  0.00  0.00    +0.028 A 
ATOM     32  C   UNL     1     -10.178   3.968   5.404  0.00  0.00    +0.005 A 
ATOM     33  C   UNL     1     -10.542   5.260   5.734  0.00  0.00    -0.050 A 
ATOM     34  C   UNL     1      -9.612   6.281   5.671  0.00  0.00    +0.005 A 
ATOM     35  C   UNL     1      -8.315   6.013   5.278  0.00  0.00    +0.028 A 
ATOM     36  C   UNL     1     -11.956   5.557   6.163  0.00  0.00    +0.044 C 
ENDBRANCH  27  30
BRANCH  24  37
ATOM     37  C   UNL     1      -3.014   4.813   4.826  0.00  0.00    +0.360 C 
ATOM     38  O   UNL     1      -2.121   4.240   4.234  0.00  0.00    -0.243 OA
BRANCH  37  39
ATOM     39  O   UNL     1      -2.717   5.730   5.767  0.00  0.00    -0.460 OA
BRANCH  39  41
ATOM     40  C   UNL     1      -1.172   7.048   7.112  0.00  0.00    +0.048 C 
ATOM     41  C   UNL     1      -1.310   5.984   6.021  0.00  0.00    +0.229 C 
ENDBRANCH  39  41
ENDBRANCH  37  39
ENDBRANCH  24  37
ENDBRANCH  22  25
ENDBRANCH   1  22
TORSDOF 9
