REMARK  Name = ZINC45527476
REMARK  9 active torsions:
REMARK  status: ('A' for Active; 'I' for Inactive)
REMARK    1  A    between atoms: C_1  and  C_2
REMARK    2  A    between atoms: C_2  and  O_3
REMARK    3  A    between atoms: O_3  and  C_4
REMARK    4  A    between atoms: C_4  and  C_6
REMARK    5  A    between atoms: C_11  and  S_12
REMARK    6  A    between atoms: S_12  and  N_15
REMARK    7  A    between atoms: N_15  and  C_16
REMARK    8  A    between atoms: C_20  and  C_23
REMARK    9  A    between atoms: C_21  and  C_22
REMARK                            x       y       z     vdW  Elec       q    Type
REMARK                         _______ _______ _______ _____ _____    ______ ____
ROOT
ATOM      1  C   UNL     1      -1.869  -7.537   1.129  0.00  0.00    +0.078 A 
ATOM      2  C   UNL     1      -0.688  -7.756   0.429  0.00  0.00    +0.027 A 
ATOM      3  C   UNL     1      -0.137  -9.023   0.376  0.00  0.00    +0.003 A 
ATOM      4  C   UNL     1      -0.755 -10.077   1.016  0.00  0.00    +0.013 A 
ATOM      5  C   UNL     1      -1.941  -9.867   1.721  0.00  0.00    +0.042 A 
ATOM      6  C   UNL     1      -2.494  -8.588   1.780  0.00  0.00    -0.014 A 
ATOM      7  C   UNL     1      -3.772  -8.352   2.544  0.00  0.00    +0.046 C 
ENDROOT
BRANCH   5   8
ATOM      8  C   UNL     1      -2.605 -10.995   2.408  0.00  0.00    +0.247 C 
ATOM      9  O   UNL     1      -2.885 -10.909   3.588  0.00  0.00    -0.270 OA
ATOM     10  N   UNL     1      -2.901 -12.120   1.726  0.00  0.00    -0.293 N 
ATOM     11  C   UNL     1      -3.648 -13.209   2.372  0.00  0.00    +0.113 C 
ATOM     12  C   UNL     1      -5.001 -13.356   1.659  0.00  0.00    +0.061 C 
ATOM     13  C   UNL     1      -4.778 -13.263   0.185  0.00  0.00    -0.004 A 
ATOM     14  C   UNL     1      -3.683 -12.786  -0.467  0.00  0.00    -0.020 A 
ATOM     15  C   UNL     1      -3.728 -12.801  -1.860  0.00  0.00    +0.013 A 
ATOM     16  C   UNL     1      -4.822 -13.279  -2.496  0.00  0.00    +0.046 A 
ATOM     17  S   UNL     1      -5.870 -13.745  -1.127  0.00  0.00    -0.101 S 
ATOM     18  C   UNL     1      -2.488 -12.271   0.324  0.00  0.00    +0.144 C 
ENDBRANCH   5   8
BRANCH   1  19
ATOM     19  N   UNL     1      -2.421  -6.255   1.181  0.00  0.00    -0.096 NA
BRANCH  19  20
ATOM     20  S   UNL     1      -1.674  -4.998   0.403  0.00  0.00    +0.111 S 
ATOM     21  O   UNL     1      -1.755  -5.276  -0.988  0.00  0.00    -0.147 OA
ATOM     22  O   UNL     1      -0.435  -4.789   1.067  0.00  0.00    -0.147 OA
BRANCH  20  28
ATOM     23  C   UNL     1      -2.165  -2.230   0.756  0.00  0.00    +0.123 A 
ATOM     24  C   UNL     1      -3.254  -1.412   0.985  0.00  0.00    +0.122 A 
ATOM     25  N   UNL     1      -4.339  -2.200   1.058  0.00  0.00    -0.282 N 
ATOM     26  N   UNL     1      -3.937  -3.527   0.873  0.00  0.00    -0.152 NA
ATOM     27  H   UNL     1      -5.248  -1.899   1.212  0.00  0.00    +0.188 HD
ATOM     28  C   UNL     1      -2.647  -3.557   0.687  0.00  0.00    +0.233 A 
BRANCH  23  29
ATOM     29  C   UNL     1      -0.764  -1.799   0.605  0.00  0.00    +0.344 C 
ATOM     30  O   UNL     1       0.106  -2.622   0.400  0.00  0.00    -0.245 OA
BRANCH  29  31
ATOM     31  O   UNL     1      -0.448  -0.492   0.695  0.00  0.00    -0.461 OA
BRANCH  31  33
ATOM     32  C   UNL     1       1.093   1.370   0.672  0.00  0.00    +0.048 C 
ATOM     33  C   UNL     1       0.929  -0.146   0.539  0.00  0.00    +0.229 C 
ENDBRANCH  31  33
ENDBRANCH  29  31
ENDBRANCH  23  29
ENDBRANCH  20  28
ENDBRANCH  19  20
ENDBRANCH   1  19
TORSDOF 7
