REMARK  Name = ZINC12549417
REMARK  9 active torsions:
REMARK  status: ('A' for Active; 'I' for Inactive)
REMARK    1  A    between atoms: C_1  and  C_2
REMARK    2  A    between atoms: C_4  and  C_34
REMARK    3  A    between atoms: C_6  and  N_8
REMARK    4  A    between atoms: C_9  and  C_11
REMARK    5  A    between atoms: C_11  and  N_12
REMARK    6  A    between atoms: N_12  and  C_13
REMARK    7  A    between atoms: C_15  and  S_25
REMARK    8  A    between atoms: C_18  and  N_19
REMARK    9  A    between atoms: S_25  and  N_28
REMARK                            x       y       z     vdW  Elec       q    Type
REMARK                         _______ _______ _______ _____ _____    ______ ____
ROOT
ATOM      1  C   UNL     1       5.025  -0.464  -2.225  0.00  0.00    +0.051 A 
ATOM      2  C   UNL     1       4.690  -0.263  -0.895  0.00  0.00    +0.053 A 
ATOM      3  C   UNL     1       3.768  -1.091  -0.282  0.00  0.00    +0.107 A 
ATOM      4  C   UNL     1       3.181  -2.123  -0.990  0.00  0.00    +0.030 A 
ATOM      5  C   UNL     1       3.505  -2.327  -2.319  0.00  0.00    +0.027 A 
ATOM      6  C   UNL     1       4.429  -1.502  -2.941  0.00  0.00    +0.051 A 
ENDROOT
BRANCH   6   7
ATOM      7  N   UNL     1       4.763  -1.709  -4.285  0.00  0.00    -0.328 N 
ATOM      8  C   UNL     1       3.601  -1.489  -5.156  0.00  0.00    +0.105 C 
ATOM      9  C   UNL     1       4.034  -1.582  -6.621  0.00  0.00    +0.019 C 
ATOM     10  C   UNL     1       4.638  -2.964  -6.883  0.00  0.00    +0.003 C 
ATOM     11  C   UNL     1       5.815  -3.188  -5.930  0.00  0.00    +0.019 C 
ATOM     12  C   UNL     1       5.330  -3.049  -4.486  0.00  0.00    +0.105 C 
ENDBRANCH   6   7
BRANCH   3  13
ATOM     13  S   UNL     1       3.344  -0.834   1.409  0.00  0.00    +0.061 S 
ATOM     14  O   UNL     1       4.438  -0.149   2.003  0.00  0.00    -0.153 OA
ATOM     15  O   UNL     1       2.866  -2.078   1.902  0.00  0.00    -0.153 OA
BRANCH  13  16
ATOM     16  N   UNL     1       2.060   0.212   1.438  0.00  0.00    -0.177 NA
ATOM     17  C   UNL     1       0.681  -0.294   1.401  0.00  0.00    +0.109 C 
ATOM     18  C   UNL     1      -0.065   0.392   0.252  0.00  0.00    +0.017 C 
ATOM     19  C   UNL     1       0.043   1.910   0.414  0.00  0.00    +0.003 C 
ATOM     20  C   UNL     1       1.514   2.328   0.353  0.00  0.00    +0.017 C 
ATOM     21  C   UNL     1       2.278   1.664   1.502  0.00  0.00    +0.109 C 
ENDBRANCH  13  16
ENDBRANCH   3  13
BRANCH   1  22
ATOM     22  N   UNL     1       5.960   0.373  -2.848  0.00  0.00    -0.334 N 
ATOM     23  H   UNL     1       6.193   0.231  -3.779  0.00  0.00    +0.147 HD
BRANCH  22  24
ATOM     24  C   UNL     1       6.585   1.462  -2.093  0.00  0.00    +0.198 C 
BRANCH  24  26
ATOM     25  N   UNL     1       8.239   3.255  -2.504  0.00  0.00    -0.284 N 
ATOM     26  C   UNL     1       7.544   2.205  -2.986  0.00  0.00    +0.234 C 
ATOM     27  O   UNL     1       7.691   1.860  -4.140  0.00  0.00    -0.274 OA
ATOM     28  H   UNL     1       8.066   3.579  -1.606  0.00  0.00    +0.155 HD
BRANCH  25  34
ATOM     29  C   UNL     1      10.629   7.335  -3.848  0.00  0.00    +0.044 C 
ATOM     30  C   UNL     1      10.388   5.853  -3.970  0.00  0.00    -0.048 A 
ATOM     31  C   UNL     1      11.128   5.105  -4.868  0.00  0.00    +0.006 A 
ATOM     32  C   UNL     1      10.910   3.744  -4.982  0.00  0.00    -0.048 A 
ATOM     33  C   UNL     1       9.954   3.127  -4.200  0.00  0.00    +0.026 A 
ATOM     34  C   UNL     1       9.209   3.876  -3.298  0.00  0.00    +0.034 A 
ATOM     35  C   UNL     1       9.426   5.243  -3.189  0.00  0.00    +0.026 A 
ATOM     36  C   UNL     1      11.719   2.933  -5.962  0.00  0.00    +0.044 C 
ENDBRANCH  25  34
ENDBRANCH  24  26
ENDBRANCH  22  24
ENDBRANCH   1  22
TORSDOF 7
