REMARK  Name = ZINC09601196
REMARK  11 active torsions:
REMARK  status: ('A' for Active; 'I' for Inactive)
REMARK    1  A    between atoms: C_1  and  C_2
REMARK    2  A    between atoms: C_5  and  C_8
REMARK    3  A    between atoms: C_14  and  C_16
REMARK    4  A    between atoms: C_16  and  S_17
REMARK    5  A    between atoms: S_17  and  C_18
REMARK    6  A    between atoms: C_21  and  C_24
REMARK    7  A    between atoms: N_22  and  C_23
REMARK    8  A    between atoms: C_24  and  C_26
REMARK    9  A    between atoms: C_24  and  N_27
REMARK   10  A    between atoms: C_28  and  C_30
REMARK   11  A    between atoms: C_33  and  C_36
REMARK                            x       y       z     vdW  Elec       q    Type
REMARK                         _______ _______ _______ _____ _____    ______ ____
ROOT
ATOM      1  C   UNL     1      -2.249   2.860  -2.551  0.00  0.00    +0.192 A 
ATOM      2  N   UNL     1      -1.172   2.531  -3.226  0.00  0.00    -0.122 NA
ATOM      3  N   UNL     1      -0.288   2.044  -2.430  0.00  0.00    -0.132 NA
ATOM      4  C   UNL     1      -0.748   2.025  -1.210  0.00  0.00    +0.154 A 
ATOM      5  N   UNL     1      -2.011   2.547  -1.243  0.00  0.00    -0.308 N 
ATOM      6  C   UNL     1      -2.921   2.733  -0.110  0.00  0.00    +0.152 C 
ENDROOT
BRANCH   4   7
ATOM      7  C   UNL     1      -0.019   1.526   0.010  0.00  0.00    +0.138 C 
ATOM      8  C   UNL     1       0.002  -0.004   0.002  0.00  0.00    +0.036 C 
BRANCH   7   9
ATOM      9  N   UNL     1       1.356   2.033   0.000  0.00  0.00    -0.302 N 
ATOM     10  C   UNL     1       2.034   2.164   1.157  0.00  0.00    +0.245 C 
ATOM     11  O   UNL     1       1.506   1.862   2.209  0.00  0.00    -0.270 OA
ATOM     12  H   UNL     1       1.777   2.274  -0.840  0.00  0.00    +0.150 HD
BRANCH  10  13
ATOM     13  C   UNL     1       3.421   2.676   1.147  0.00  0.00    +0.037 A 
ATOM     14  C   UNL     1       4.033   3.018  -0.060  0.00  0.00    +0.013 A 
ATOM     15  C   UNL     1       5.326   3.499  -0.063  0.00  0.00    +0.004 A 
ATOM     16  C   UNL     1       6.020   3.633   1.127  0.00  0.00    -0.050 A 
ATOM     17  C   UNL     1       5.421   3.291   2.326  0.00  0.00    +0.004 A 
ATOM     18  C   UNL     1       4.127   2.814   2.343  0.00  0.00    +0.013 A 
ATOM     19  C   UNL     1       7.434   4.154   1.116  0.00  0.00    +0.044 C 
ENDBRANCH  10  13
ENDBRANCH   7   9
ENDBRANCH   4   7
BRANCH   1  20
ATOM     20  S   UNL     1      -3.721   3.570  -3.207  0.00  0.00    -0.077 S 
BRANCH  20  21
ATOM     21  C   UNL     1      -3.268   3.673  -4.957  0.00  0.00    +0.173 C 
BRANCH  21  28
ATOM     22  C   UNL     1      -6.533   5.774  -9.608  0.00  0.00    +0.080 A 
ATOM     23  C   UNL     1      -7.591   6.072  -8.796  0.00  0.00    +0.076 A 
ATOM     24  S   UNL     1      -6.952   5.542  -7.212  0.00  0.00    -0.060 S 
ATOM     25  C   UNL     1      -5.352   4.992  -7.790  0.00  0.00    +0.165 A 
ATOM     26  N   UNL     1      -5.440   5.241  -9.083  0.00  0.00    -0.225 NA
ATOM     27  N   UNL     1      -4.298   4.442  -7.069  0.00  0.00    -0.264 N 
ATOM     28  C   UNL     1      -4.410   4.269  -5.738  0.00  0.00    +0.229 C 
ATOM     29  O   UNL     1      -5.431   4.592  -5.168  0.00  0.00    -0.275 OA
ATOM     30  H   UNL     1      -3.482   4.184  -7.525  0.00  0.00    +0.157 HD
BRANCH  22  35
ATOM     31  C   UNL     1      -6.825   6.824 -15.263  0.00  0.00    +0.044 C 
ATOM     32  C   UNL     1      -6.749   6.549 -13.783  0.00  0.00    -0.050 A 
ATOM     33  C   UNL     1      -5.603   5.992 -13.244  0.00  0.00    +0.004 A 
ATOM     34  C   UNL     1      -5.527   5.739 -11.890  0.00  0.00    +0.010 A 
ATOM     35  C   UNL     1      -6.608   6.044 -11.065  0.00  0.00    +0.001 A 
ATOM     36  C   UNL     1      -7.763   6.599 -11.614  0.00  0.00    +0.010 A 
ATOM     37  C   UNL     1      -7.825   6.854 -12.969  0.00  0.00    +0.004 A 
ENDBRANCH  22  35
ENDBRANCH  21  28
ENDBRANCH  20  21
ENDBRANCH   1  20
TORSDOF 7
