REMARK  Name = ZINC20495152
REMARK  7 active torsions:
REMARK  status: ('A' for Active; 'I' for Inactive)
REMARK    1  A    between atoms: C_5  and  C_7
REMARK    2  A    between atoms: C_7  and  O_8
REMARK    3  A    between atoms: O_8  and  C_9
REMARK    4  A    between atoms: C_13  and  C_15
REMARK    5  A    between atoms: C_18  and  C_29
REMARK    6  A    between atoms: C_24  and  N_28
REMARK    7  A    between atoms: C_25  and  C_26
REMARK                            x       y       z     vdW  Elec       q    Type
REMARK                         _______ _______ _______ _____ _____    ______ ____
ROOT
ATOM      1  C   UNL     1      -3.221  -6.544  -0.022  0.00  0.00    +0.102 C 
ATOM      2  C   UNL     1      -3.281  -7.511   1.132  0.00  0.00    +0.054 A 
ATOM      3  C   UNL     1      -3.322  -7.250   2.505  0.00  0.00    +0.100 A 
ATOM      4  N   UNL     1      -3.367  -8.407   3.137  0.00  0.00    -0.171 NA
ATOM      5  N   UNL     1      -3.355  -9.434   2.181  0.00  0.00    -0.246 N 
ATOM      6  H   UNL     1      -3.380 -10.386   2.366  0.00  0.00    +0.192 HD
ATOM      7  C   UNL     1      -3.303  -8.865   0.959  0.00  0.00    +0.223 A 
ATOM      8  O   UNL     1      -3.277  -9.447  -0.266  0.00  0.00    -0.423 OA
ATOM      9  C   UNL     1      -3.503  -8.660  -1.337  0.00  0.00    +0.200 C 
ATOM     10  C   UNL     1      -3.494  -7.308  -1.293  0.00  0.00    +0.098 C 
ENDROOT
BRANCH   3  11
ATOM     11  C   UNL     1      -3.316  -5.907   3.138  0.00  0.00    +0.003 A 
ATOM     12  C   UNL     1      -4.090  -4.879   2.604  0.00  0.00    +0.011 A 
ATOM     13  C   UNL     1      -4.082  -3.633   3.197  0.00  0.00    +0.020 A 
ATOM     14  C   UNL     1      -3.306  -3.404   4.321  0.00  0.00    +0.041 A 
ATOM     15  C   UNL     1      -2.535  -4.422   4.855  0.00  0.00    +0.020 A 
ATOM     16  C   UNL     1      -2.542  -5.673   4.272  0.00  0.00    +0.011 A 
ATOM     17 CL   UNL     1      -3.298  -1.834   5.061  0.00  0.00    -0.084 Cl
ENDBRANCH   3  11
BRANCH   1  22
ATOM     18  C   UNL     1      -0.460  -3.966  -0.121  0.00  0.00    +0.121 A 
ATOM     19  C   UNL     1       0.665  -4.772  -0.214  0.00  0.00    +0.045 A 
ATOM     20  C   UNL     1       0.528  -6.146  -0.244  0.00  0.00    +0.004 A 
ATOM     21  C   UNL     1      -0.730  -6.718  -0.182  0.00  0.00    +0.005 A 
ATOM     22  C   UNL     1      -1.852  -5.917  -0.089  0.00  0.00    -0.031 A 
ATOM     23  C   UNL     1      -1.720  -4.542  -0.053  0.00  0.00    +0.050 A 
BRANCH  18  24
ATOM     24  O   UNL     1      -0.328  -2.614  -0.091  0.00  0.00    -0.487 OA
BRANCH  24  25
ATOM     25  C   UNL     1       1.000  -2.090  -0.165  0.00  0.00    +0.266 C 
BRANCH  25  30
ATOM     26  C   UNL     1      -0.314   1.444   0.023  0.00  0.00    +0.000 A 
ATOM     27  C   UNL     1       0.856   2.178  -0.034  0.00  0.00    +0.001 A 
ATOM     28  C   UNL     1       2.074   1.531  -0.134  0.00  0.00    +0.020 A 
ATOM     29  C   UNL     1       2.121   0.149  -0.176  0.00  0.00    +0.047 A 
ATOM     30  C   UNL     1       0.949  -0.585  -0.119  0.00  0.00    +0.008 A 
ATOM     31  C   UNL     1      -0.268   0.064  -0.019  0.00  0.00    +0.008 A 
ATOM     32 CL   UNL     1       3.649  -0.664  -0.302  0.00  0.00    -0.083 Cl
ENDBRANCH  25  30
ENDBRANCH  24  25
ENDBRANCH  18  24
ENDBRANCH   1  22
BRANCH   9  33
ATOM     33  N   UNL     1      -3.757  -9.265  -2.543  0.00  0.00    -0.328 N 
ATOM     34  H   UNL     1      -3.769 -10.233  -2.606  0.00  0.00    +0.145 HD
ATOM     35  H   UNL     1      -3.923  -8.725  -3.331  0.00  0.00    +0.145 HD
ENDBRANCH   9  33
BRANCH  10  36
ATOM     36  C   UNL     1      -3.754  -6.576  -2.496  0.00  0.00    +0.101 C 
ATOM     37  N   UNL     1      -3.960  -5.995  -3.450  0.00  0.00    -0.191 NA
ENDBRANCH  10  36
TORSDOF 7
