REMARK  Name = ZINC02475887
REMARK  4 active torsions:
REMARK  status: ('A' for Active; 'I' for Inactive)
REMARK    1  A    between atoms: C_6  and  C_7
REMARK    2  A    between atoms: C_10  and  C_31
REMARK    3  A    between atoms: C_15  and  C_17
REMARK    4  A    between atoms: N_19  and  C_20
REMARK                            x       y       z     vdW  Elec       q    Type
REMARK                         _______ _______ _______ _____ _____    ______ ____
ROOT
ATOM      1  C   UNL     1      -1.312  -0.760   0.026  0.00  0.00    +0.104 C 
ATOM      2  C   UNL     1      -1.640  -1.232  -1.395  0.00  0.00    +0.063 C 
ATOM      3  C   UNL     1      -2.989  -1.960  -1.405  0.00  0.00    +0.215 C 
ATOM      4  N   UNL     1      -2.992  -2.967  -0.340  0.00  0.00    -0.237 N 
ATOM      5  C   UNL     1      -2.136  -2.947   0.725  0.00  0.00    +0.137 A 
ATOM      6  C   UNL     1      -2.409  -4.012   1.504  0.00  0.00    +0.112 A 
ATOM      7  C   UNL     1      -3.475  -4.719   0.902  0.00  0.00    +0.167 A 
ATOM      8  N   UNL     1      -3.818  -4.082  -0.205  0.00  0.00    -0.163 NA
ATOM      9 CL   UNL     1      -1.599  -4.439   2.979  0.00  0.00    -0.078 Cl
ATOM     10  N   UNL     1      -1.175  -1.943   0.898  0.00  0.00    -0.321 N 
ATOM     11  H   UNL     1      -0.460  -2.022   1.549  0.00  0.00    +0.148 HD
ENDROOT
BRANCH   1  17
ATOM     12  C   UNL     1      -0.042   1.397   0.032  0.00  0.00    +0.008 A 
ATOM     13  C   UNL     1       1.143   2.108   0.024  0.00  0.00    +0.038 A 
ATOM     14  C   UNL     1       2.353   1.435  -0.001  0.00  0.00    +0.123 A 
ATOM     15  C   UNL     1       2.374   0.051  -0.016  0.00  0.00    +0.038 A 
ATOM     16  C   UNL     1       1.188  -0.658  -0.007  0.00  0.00    +0.008 A 
ATOM     17  C   UNL     1      -0.020   0.015   0.017  0.00  0.00    -0.027 A 
ATOM     18  F   UNL     1       3.512   2.130  -0.010  0.00  0.00    -0.205 F 
ENDBRANCH   1  17
BRANCH   7  19
ATOM     19  C   UNL     1      -4.097  -5.955   1.419  0.00  0.00    +0.270 C 
ATOM     20  O   UNL     1      -3.694  -6.452   2.453  0.00  0.00    -0.268 OA
ATOM     21  N   UNL     1      -5.112  -6.531   0.745  0.00  0.00    -0.280 N 
ATOM     22  H   UNL     1      -5.478  -6.100  -0.043  0.00  0.00    +0.155 HD
BRANCH  21  23
ATOM     23  C   UNL     1      -5.637  -7.753   1.181  0.00  0.00    +0.037 A 
ATOM     24  C   UNL     1      -6.080  -8.690   0.256  0.00  0.00    +0.027 A 
ATOM     25  C   UNL     1      -6.598  -9.896   0.686  0.00  0.00    +0.051 A 
ATOM     26  C   UNL     1      -6.680 -10.175   2.040  0.00  0.00    +0.166 A 
ATOM     27  C   UNL     1      -6.237  -9.238   2.971  0.00  0.00    +0.168 A 
ATOM     28  C   UNL     1      -5.711  -8.032   2.539  0.00  0.00    +0.072 A 
ATOM     29  O   UNL     1      -6.423  -9.746   4.224  0.00  0.00    -0.453 OA
ATOM     30  C   UNL     1      -7.357 -10.830   4.065  0.00  0.00    +0.466 C 
ATOM     31  O   UNL     1      -7.143 -11.271   2.711  0.00  0.00    -0.453 OA
ENDBRANCH  21  23
ENDBRANCH   7  19
BRANCH   3  32
ATOM     32  C   UNL     1      -3.192  -2.643  -2.759  0.00  0.00    +0.412 C 
ATOM     33  F   UNL     1      -2.163  -3.566  -2.975  0.00  0.00    -0.168 F 
ATOM     34  F   UNL     1      -4.423  -3.307  -2.766  0.00  0.00    -0.168 F 
ATOM     35  F   UNL     1      -3.176  -1.680  -3.773  0.00  0.00    -0.168 F 
ENDBRANCH   3  32
TORSDOF 4
