REMARK  Name = ZINC59357406
REMARK  7 active torsions:
REMARK  status: ('A' for Active; 'I' for Inactive)
REMARK    1  A    between atoms: C_1  and  C_2
REMARK    2  A    between atoms: C_9  and  C_11
REMARK    3  A    between atoms: C_14  and  N_17
REMARK    4  A    between atoms: N_20  and  C_21
REMARK    5  A    between atoms: C_21  and  C_22
REMARK    6  A    between atoms: C_22  and  C_24
REMARK    7  A    between atoms: C_22  and  N_29
REMARK                            x       y       z     vdW  Elec       q    Type
REMARK                         _______ _______ _______ _____ _____    ______ ____
ROOT
ATOM      1  N   UNL     1       3.126  -2.056   6.845  0.00  0.00    -0.269 N 
ATOM      2  C   UNL     1       3.365  -1.310   7.942  0.00  0.00    +0.304 C 
ATOM      3  O   UNL     1       3.072  -0.130   7.950  0.00  0.00    -0.253 OA
ATOM      4  N   UNL     1       3.927  -1.871   9.030  0.00  0.00    -0.300 N 
ATOM      5  H   UNL     1       3.296  -3.011   6.862  0.00  0.00    +0.156 HD
ATOM      6  H   UNL     1       4.161  -2.813   9.024  0.00  0.00    +0.150 HD
ENDROOT
BRANCH   1  10
ATOM      7  C   UNL     1       1.659  -0.262   3.384  0.00  0.00    +0.037 A 
ATOM      8  C   UNL     1       1.252   0.199   4.638  0.00  0.00    +0.015 A 
ATOM      9  C   UNL     1       1.738  -0.396   5.780  0.00  0.00    +0.024 A 
ATOM     10  C   UNL     1       2.635  -1.455   5.686  0.00  0.00    +0.035 A 
ATOM     11  C   UNL     1       3.044  -1.917   4.439  0.00  0.00    +0.024 A 
ATOM     12  C   UNL     1       2.557  -1.330   3.293  0.00  0.00    +0.015 A 
BRANCH   7  20
ATOM     13  C   UNL     1      -0.188   1.231  -0.017  0.00  0.00    +0.028 C 
ATOM     14  C   UNL     1       0.226   2.316   0.980  0.00  0.00    +0.073 C 
ATOM     15  C   UNL     1      -1.014   3.082   1.449  0.00  0.00    +0.022 C 
ATOM     16  C   UNL     1      -0.612   4.071   2.547  0.00  0.00    +0.003 C 
ATOM     17  C   UNL     1      -0.037   3.304   3.740  0.00  0.00    +0.019 C 
ATOM     18  C   UNL     1       1.214   2.540   3.296  0.00  0.00    +0.108 C 
ATOM     19  N   UNL     1       0.871   1.694   2.144  0.00  0.00    -0.295 N 
ATOM     20  C   UNL     1       1.139   0.373   2.157  0.00  0.00    +0.247 C 
ATOM     21  O   UNL     1       0.953  -0.295   1.159  0.00  0.00    -0.270 OA
ENDBRANCH   7  20
ENDBRANCH   1  10
BRANCH   4  22
ATOM     22  C   UNL     1       4.186  -1.060  10.222  0.00  0.00    +0.095 C 
BRANCH  22  23
ATOM     23  C   UNL     1       4.938  -1.900  11.257  0.00  0.00    -0.013 C 
BRANCH  23  24
ATOM     24  N   UNL     1       5.083  -1.131  12.500  0.00  0.00    +0.386 N 
ATOM     25  C   UNL     1       3.758  -0.940  13.142  0.00  0.00    -0.078 C 
ATOM     26  C   UNL     1       4.119  -0.653  14.621  0.00  0.00    -0.020 C 
ATOM     27  C   UNL     1       5.322  -1.590  14.872  0.00  0.00    -0.020 C 
ATOM     28  C   UNL     1       5.899  -1.886  13.475  0.00  0.00    -0.078 C 
ATOM     29  H   UNL     1       5.510  -0.236  12.308  0.00  0.00    -0.081 HD
ENDBRANCH  23  24
BRANCH  23  30
ATOM     30  C   UNL     1       6.301  -2.254  10.723  0.00  0.00    -0.022 A 
ATOM     31  C   UNL     1       6.721  -3.409  10.149  0.00  0.00    +0.009 A 
ATOM     32  C   UNL     1       8.033  -3.510   9.728  0.00  0.00    +0.008 A 
ATOM     33  C   UNL     1       8.862  -2.452   9.900  0.00  0.00    +0.045 A 
ATOM     34  S   UNL     1       7.783  -1.258  10.673  0.00  0.00    -0.103 S 
ENDBRANCH  23  30
ENDBRANCH  22  23
ENDBRANCH   4  22
TORSDOF 6
