REMARK  Name = ZINC39552202
REMARK  11 active torsions:
REMARK  status: ('A' for Active; 'I' for Inactive)
REMARK    1  A    between atoms: C_1  and  C_2
REMARK    2  A    between atoms: C_2  and  C_3
REMARK    3  A    between atoms: C_2  and  N_4
REMARK    4  A    between atoms: C_6  and  N_25
REMARK    5  A    between atoms: C_9  and  C_11
REMARK    6  A    between atoms: N_13  and  C_14
REMARK    7  A    between atoms: C_14  and  C_15
REMARK    8  A    between atoms: C_15  and  C_16
REMARK    9  A    between atoms: N_25  and  C_26
REMARK   10  A    between atoms: C_26  and  C_27
REMARK   11  A    between atoms: C_31  and  C_33
REMARK                            x       y       z     vdW  Elec       q    Type
REMARK                         _______ _______ _______ _____ _____    ______ ____
ROOT
ATOM      1  N   UNL     1       0.713  -0.491   1.192  0.00  0.00    +0.390 N 
ATOM      2  C   UNL     1       0.717  -1.969   1.199  0.00  0.00    -0.059 C 
ATOM      3  C   UNL     1       0.581  -2.358   2.692  0.00  0.00    +0.036 C 
ATOM      4  C   UNL     1      -0.391  -1.266   3.213  0.00  0.00    +0.010 C 
ATOM      5  C   UNL     1       0.026  -0.018   2.408  0.00  0.00    +0.021 C 
ATOM      6  H   UNL     1       1.662  -0.150   1.184  0.00  0.00    -0.080 HD
ENDROOT
BRANCH   5   7
ATOM      7  C   UNL     1       0.962   0.832   3.228  0.00  0.00    +0.200 C 
ATOM      8  O   UNL     1       2.095   1.030   2.844  0.00  0.00    -0.278 OA
ATOM      9  N   UNL     1       0.540   1.372   4.388  0.00  0.00    -0.316 N 
ATOM     10  H   UNL     1      -0.366   1.214   4.696  0.00  0.00    +0.149 HD
BRANCH   9  11
ATOM     11  C   UNL     1       1.451   2.198   5.186  0.00  0.00    +0.109 C 
BRANCH  11  12
ATOM     12  C   UNL     1       0.729   2.684   6.444  0.00  0.00    +0.054 C 
BRANCH  12  13
ATOM     13  C   UNL     1       1.665   3.533   7.264  0.00  0.00    -0.042 A 
ATOM     14  C   UNL     1       2.468   2.946   8.224  0.00  0.00    +0.007 A 
ATOM     15  C   UNL     1       3.329   3.721   8.978  0.00  0.00    +0.050 A 
ATOM     16  C   UNL     1       3.389   5.090   8.774  0.00  0.00    +0.166 A 
ATOM     17  C   UNL     1       2.580   5.682   7.807  0.00  0.00    +0.166 A 
ATOM     18  C   UNL     1       1.724   4.898   7.051  0.00  0.00    +0.053 A 
ATOM     19  O   UNL     1       2.822   7.025   7.799  0.00  0.00    -0.453 OA
ATOM     20  C   UNL     1       3.485   7.304   9.046  0.00  0.00    +0.466 C 
ATOM     21  O   UNL     1       4.138   6.062   9.372  0.00  0.00    -0.453 OA
ENDBRANCH  12  13
ENDBRANCH  11  12
ENDBRANCH   9  11
ENDBRANCH   5   7
BRANCH   1  23
ATOM     22  C   UNL     1      -0.019   1.526   0.010  0.00  0.00    -0.013 C 
ATOM     23  C   UNL     1       0.002  -0.004   0.002  0.00  0.00    -0.074 C 
ATOM     24  C   UNL     1       0.718  -0.497  -1.257  0.00  0.00    -0.013 C 
ENDBRANCH   1  23
BRANCH   3  25
ATOM     25  N   UNL     1      -0.006  -3.697   2.836  0.00  0.00    -0.311 NA
ATOM     26  H   UNL     1      -1.010  -3.664   2.745  0.00  0.00    +0.122 HD
BRANCH  25  27
ATOM     27  C   UNL     1       0.388  -4.310   4.112  0.00  0.00    +0.116 C 
BRANCH  27  28
ATOM     28  C   UNL     1      -0.231  -5.680   4.223  0.00  0.00    -0.033 A 
ATOM     29  C   UNL     1      -1.481  -5.829   4.795  0.00  0.00    +0.005 A 
ATOM     30  C   UNL     1      -2.049  -7.085   4.898  0.00  0.00    +0.001 A 
ATOM     31  C   UNL     1      -1.367  -8.192   4.427  0.00  0.00    +0.012 A 
ATOM     32  C   UNL     1      -0.118  -8.043   3.853  0.00  0.00    +0.055 A 
ATOM     33  C   UNL     1       0.448  -6.786   3.747  0.00  0.00    +0.017 A 
BRANCH  32  34
ATOM     34  C   UNL     1       0.624  -9.249   3.340  0.00  0.00    +0.417 C 
ATOM     35  F   UNL     1      -0.146 -10.397   3.554  0.00  0.00    -0.166 F 
ATOM     36  F   UNL     1       0.868  -9.100   1.971  0.00  0.00    -0.166 F 
ATOM     37  F   UNL     1       1.841  -9.371   4.020  0.00  0.00    -0.166 F 
ENDBRANCH  32  34
ENDBRANCH  27  28
ENDBRANCH  25  27
ENDBRANCH   3  25
TORSDOF 9
