REMARK  Name = ZINC39287402
REMARK  9 active torsions:
REMARK  status: ('A' for Active; 'I' for Inactive)
REMARK    1  A    between atoms: C_1  and  C_2
REMARK    2  A    between atoms: C_4  and  C_16
REMARK    3  A    between atoms: C_6  and  C_14
REMARK    4  A    between atoms: C_7  and  N_13
REMARK    5  A    between atoms: C_18  and  O_27
REMARK    6  A    between atoms: C_19  and  O_23
REMARK    7  A    between atoms: O_23  and  C_24
REMARK    8  A    between atoms: C_24  and  C_25
REMARK    9  A    between atoms: O_27  and  C_28
REMARK                            x       y       z     vdW  Elec       q    Type
REMARK                         _______ _______ _______ _____ _____    ______ ____
ROOT
ATOM      1  C   UNL     1      -0.018   1.503   0.010  0.00  0.00    +0.067 C 
ATOM      2  C   UNL     1       0.002  -0.004   0.002  0.00  0.00    +0.066 C 
ATOM      3  C   UNL     1      -1.064  -0.768   0.003  0.00  0.00    +0.030 C 
ATOM      4  C   UNL     1      -2.536  -0.493   0.145  0.00  0.00    +0.098 C 
ATOM      5  C   UNL     1      -3.065  -1.577   1.066  0.00  0.00    +0.097 C 
ATOM      6  C   UNL     1      -2.303  -2.628   1.436  0.00  0.00    +0.195 C 
ATOM      7  O   UNL     1      -1.023  -2.853   1.091  0.00  0.00    -0.448 OA
ATOM      8  C   UNL     1      -0.529  -2.198  -0.081  0.00  0.00    +0.343 C 
ATOM      9  N   UNL     1       0.921  -1.985  -0.028  0.00  0.00    -0.138 NA
ATOM     10  N   UNL     1       1.127  -0.765  -0.013  0.00  0.00    -0.155 NA
ENDROOT
BRANCH   4  11
ATOM     11  C   UNL     1      -3.212  -0.572  -1.199  0.00  0.00    -0.030 A 
ATOM     12  C   UNL     1      -3.869   0.535  -1.707  0.00  0.00    +0.054 A 
ATOM     13  C   UNL     1      -4.491   0.465  -2.942  0.00  0.00    +0.163 A 
ATOM     14  C   UNL     1      -4.455  -0.720  -3.671  0.00  0.00    +0.177 A 
ATOM     15  C   UNL     1      -3.795  -1.826  -3.157  0.00  0.00    +0.063 A 
ATOM     16  C   UNL     1      -3.171  -1.747  -1.924  0.00  0.00    +0.023 A 
ATOM     17 BR   UNL     1      -3.742  -3.438  -4.143  0.00  0.00    -0.046 Br
BRANCH  13  18
ATOM     18  O   UNL     1      -5.138   1.552  -3.442  0.00  0.00    -0.491 OA
ATOM     19  C   UNL     1      -5.135   2.734  -2.639  0.00  0.00    +0.277 C 
ENDBRANCH  13  18
BRANCH  14  20
ATOM     20  O   UNL     1      -5.065  -0.794  -4.884  0.00  0.00    -0.475 OA
BRANCH  20  21
ATOM     21  C   UNL     1      -4.280  -0.449  -6.027  0.00  0.00    +0.317 C 
BRANCH  21  22
ATOM     22  C   UNL     1      -5.098  -0.585  -7.243  0.00  0.00    -0.065 C 
ATOM     23  C   UNL     1      -5.750  -0.694  -8.213  0.00  0.00    +0.007 C 
ENDBRANCH  21  22
ENDBRANCH  20  21
ENDBRANCH  14  20
ENDBRANCH   4  11
BRANCH   6  24
ATOM     24  N   UNL     1      -2.896  -3.562   2.247  0.00  0.00    -0.329 N 
ATOM     25  H   UNL     1      -3.818  -3.448   2.526  0.00  0.00    +0.145 HD
ATOM     26  H   UNL     1      -2.393  -4.337   2.542  0.00  0.00    +0.145 HD
ENDBRANCH   6  24
BRANCH   5  27
ATOM     27  C   UNL     1      -4.407  -1.482   1.556  0.00  0.00    +0.101 C 
ATOM     28  N   UNL     1      -5.472  -1.407   1.944  0.00  0.00    -0.191 NA
ENDBRANCH   5  27
TORSDOF 7
