REMARK  Name = ZINC13917351
REMARK  5 active torsions:
REMARK  status: ('A' for Active; 'I' for Inactive)
REMARK    1  A    between atoms: C_3  and  N_11
REMARK    2  A    between atoms: C_6  and  N_7
REMARK    3  A    between atoms: C_14  and  C_21
REMARK    4  A    between atoms: C_16  and  C_19
REMARK    5  A    between atoms: C_17  and  N_18
REMARK                            x       y       z     vdW  Elec       q    Type
REMARK                         _______ _______ _______ _____ _____    ______ ____
ROOT
ATOM      1  N   UNL     1      -2.439   1.698   0.023  0.00  0.00    -0.259 N 
ATOM      2  C   UNL     1      -3.015   1.340   1.213  0.00  0.00    +0.025 C 
ATOM      3  C   UNL     1      -3.932   0.353   1.266  0.00  0.00    +0.026 C 
ATOM      4  C   UNL     1      -4.329  -0.402   0.023  0.00  0.00    +0.104 C 
ATOM      5  C   UNL     1      -3.949   0.355  -1.215  0.00  0.00    +0.077 C 
ATOM      6  C   UNL     1      -3.031   1.356  -1.172  0.00  0.00    +0.107 C 
ATOM      7  C   UNL     1      -4.543  -0.005   2.481  0.00  0.00    +0.162 C 
ATOM      8  O   UNL     1      -5.357  -0.907   2.495  0.00  0.00    -0.292 OA
ATOM      9  C   UNL     1      -4.210   0.708   3.762  0.00  0.00    +0.080 C 
ATOM     10  C   UNL     1      -3.780   2.143   3.438  0.00  0.00    +0.014 C 
ATOM     11  C   UNL     1      -2.605   2.088   2.460  0.00  0.00    +0.052 C 
ENDROOT
BRANCH   1  14
ATOM     12  C   UNL     1      -0.058   4.501   0.026  0.00  0.00    +0.034 A 
ATOM     13  C   UNL     1      -1.248   3.800   0.035  0.00  0.00    +0.027 A 
ATOM     14  C   UNL     1      -1.234   2.411   0.021  0.00  0.00    +0.058 A 
ATOM     15  C   UNL     1      -0.021   1.732   0.012  0.00  0.00    +0.065 A 
ATOM     16  C   UNL     1       1.165   2.440   0.004  0.00  0.00    +0.054 A 
ATOM     17  C   UNL     1       1.147   3.823   0.012  0.00  0.00    +0.128 A 
ATOM     18 CL   UNL     1       0.002  -0.004   0.002  0.00  0.00    -0.082 Cl
BRANCH  17  19
ATOM     19  N   UNL     1       2.420   4.578   0.004  0.00  0.00    +0.056 N 
ATOM     20  O   UNL     1       3.482   3.982  -0.010  0.00  0.00    -0.126 OA
ATOM     21  O   UNL     1       2.405   5.796   0.010  0.00  0.00    -0.126 OA
ENDBRANCH  17  19
ENDBRANCH   1  14
BRANCH   4  22
ATOM     22  C   UNL     1      -3.638  -1.741   0.015  0.00  0.00    +0.004 A 
ATOM     23  C   UNL     1      -4.181  -2.982   0.031  0.00  0.00    +0.027 A 
ATOM     24  C   UNL     1      -3.342  -4.082   0.020  0.00  0.00    +0.025 A 
ATOM     25  C   UNL     1      -2.001  -3.885  -0.006  0.00  0.00    +0.060 A 
ATOM     26  S   UNL     1      -1.890  -2.103  -0.024  0.00  0.00    -0.100 S 
ATOM     27 BR   UNL     1      -4.055  -5.833   0.042  0.00  0.00    -0.050 Br
ENDBRANCH   4  22
BRANCH   6  28
ATOM     28  N   UNL     1      -2.695   2.028  -2.322  0.00  0.00    -0.345 N 
ATOM     29  H   UNL     1      -2.039   2.743  -2.292  0.00  0.00    +0.144 HD
ATOM     30  H   UNL     1      -3.112   1.788  -3.164  0.00  0.00    +0.144 HD
ENDBRANCH   6  28
BRANCH   5  31
ATOM     31  C   UNL     1      -4.563   0.017  -2.464  0.00  0.00    +0.099 C 
ATOM     32  N   UNL     1      -5.050  -0.251  -3.454  0.00  0.00    -0.191 NA
ENDBRANCH   5  31
TORSDOF 5
