REMARK  Name = ZINC35778885
REMARK  18 active torsions:
REMARK  status: ('A' for Active; 'I' for Inactive)
REMARK    1  A    between atoms: C_1  and  C_2
REMARK    2  A    between atoms: C_2  and  N_3
REMARK    3  A    between atoms: N_3  and  C_4
REMARK    4  A    between atoms: N_3  and  C_14
REMARK    5  A    between atoms: C_4  and  C_5
REMARK    6  A    between atoms: C_5  and  C_7
REMARK    7  A    between atoms: C_5  and  O_13
REMARK    8  A    between atoms: C_7  and  O_8
REMARK    9  A    between atoms: O_8  and  C_9
REMARK   10  A    between atoms: C_9  and  C_10
REMARK   11  A    between atoms: C_9  and  C_11
REMARK   12  A    between atoms: C_9  and  C_12
REMARK   13  A    between atoms: C_14  and  C_15
REMARK   14  A    between atoms: C_25  and  C_27
REMARK   15  A    between atoms: C_27  and  O_28
REMARK   16  A    between atoms: O_28  and  C_29
REMARK   17  A    between atoms: C_32  and  C_36
REMARK   18  A    between atoms: C_34  and  C_35
REMARK                            x       y       z     vdW  Elec       q    Type
REMARK                         _______ _______ _______ _____ _____    ______ ____
ROOT
ATOM      1  C   UNL     1      -1.944   1.486  -1.141  0.00  0.00    +0.200 C 
ATOM      2  O   UNL     1      -1.428   2.100  -0.231  0.00  0.00    -0.278 OA
ATOM      3  N   UNL     1      -2.457   2.149  -2.196  0.00  0.00    -0.292 N 
ATOM      4  C   UNL     1      -3.091   1.415  -3.301  0.00  0.00    +0.113 C 
ATOM      5  C   UNL     1      -4.581   1.789  -3.338  0.00  0.00    +0.061 C 
ATOM      6  C   UNL     1      -4.708   3.265  -3.141  0.00  0.00    -0.004 A 
ATOM      7  C   UNL     1      -3.774   4.128  -2.659  0.00  0.00    -0.014 A 
ATOM      8  C   UNL     1      -4.148   5.467  -2.564  0.00  0.00    +0.013 A 
ATOM      9  C   UNL     1      -5.387   5.852  -2.948  0.00  0.00    +0.046 A 
ATOM     10  S   UNL     1      -6.106   4.304  -3.475  0.00  0.00    -0.101 S 
ATOM     11  C   UNL     1      -2.397   3.616  -2.255  0.00  0.00    +0.144 C 
ENDROOT
BRANCH   1  12
ATOM     12  C   UNL     1      -2.011  -0.019  -1.091  0.00  0.00    +0.019 C 
BRANCH  12  13
ATOM     13  N   UNL     1      -1.526  -0.488   0.214  0.00  0.00    +0.387 N 
ATOM     14  H   UNL     1      -0.615  -0.094   0.396  0.00  0.00    -0.081 HD
BRANCH  13  16
ATOM     15  C   UNL     1      -0.364  -2.390  -0.800  0.00  0.00    -0.017 C 
ATOM     16  C   UNL     1      -1.433  -1.954   0.204  0.00  0.00    -0.081 C 
ENDBRANCH  13  16
BRANCH  13  17
ATOM     17  C   UNL     1      -2.461  -0.064   1.265  0.00  0.00    -0.044 C 
BRANCH  17  18
ATOM     18  C   UNL     1      -1.895  -0.443   2.635  0.00  0.00    +0.124 C 
BRANCH  18  19
ATOM     19  O   UNL     1      -0.695   0.296   2.875  0.00  0.00    -0.391 OA
ATOM     20  H   UNL     1      -0.817   1.255   2.872  0.00  0.00    +0.210 HD
ENDBRANCH  18  19
BRANCH  18  21
ATOM     21  C   UNL     1      -2.922  -0.115   3.720  0.00  0.00    +0.189 C 
BRANCH  21  22
ATOM     22  O   UNL     1      -2.442  -0.575   4.985  0.00  0.00    -0.372 OA
BRANCH  22  23
ATOM     23  C   UNL     1      -3.331  -0.316   6.073  0.00  0.00    +0.061 C 
ATOM     24  C   UNL     1      -4.668  -1.015   5.816  0.00  0.00    +0.041 C 
ATOM     25  C   UNL     1      -2.719  -0.849   7.370  0.00  0.00    +0.041 C 
ATOM     26  C   UNL     1      -3.560   1.191   6.198  0.00  0.00    +0.041 C 
ENDBRANCH  22  23
ENDBRANCH  21  22
ENDBRANCH  18  21
ENDBRANCH  17  18
ENDBRANCH  13  17
ENDBRANCH  12  13
ENDBRANCH   1  12
BRANCH  11  27
ATOM     27  C   UNL     1      -1.362   4.050  -3.294  0.00  0.00    +0.256 C 
BRANCH  27  28
ATOM     28  O   UNL     1      -1.791   3.640  -4.594  0.00  0.00    -0.490 OA
BRANCH  28  29
ATOM     29  C   UNL     1      -0.978   3.951  -5.638  0.00  0.00    +0.124 A 
ATOM     30  C   UNL     1       0.210   4.631  -5.416  0.00  0.00    +0.046 A 
ATOM     31  C   UNL     1       1.034   4.946  -6.479  0.00  0.00    +0.007 A 
ATOM     32  C   UNL     1       0.676   4.583  -7.764  0.00  0.00    -0.050 A 
ATOM     33  C   UNL     1      -0.508   3.905  -7.989  0.00  0.00    +0.010 A 
ATOM     34  C   UNL     1      -1.333   3.584  -6.928  0.00  0.00    -0.009 A 
ATOM     35  C   UNL     1      -2.621   2.840  -7.173  0.00  0.00    +0.047 C 
ATOM     36  C   UNL     1       1.577   4.927  -8.922  0.00  0.00    +0.044 C 
ENDBRANCH  28  29
ENDBRANCH  27  28
ENDBRANCH  11  27
TORSDOF 12
