REMARK  Name = ZINC60775132
REMARK  5 active torsions:
REMARK  status: ('A' for Active; 'I' for Inactive)
REMARK    1  A    between atoms: C_4  and  N_24
REMARK    2  A    between atoms: C_5  and  N_7
REMARK    3  A    between atoms: C_8  and  C_10
REMARK    4  A    between atoms: C_14  and  N_16
REMARK    5  A    between atoms: C_17  and  C_19
REMARK                            x       y       z     vdW  Elec       q    Type
REMARK                         _______ _______ _______ _____ _____    ______ ____
ROOT
ATOM      1  N   UNL     1       1.211  -2.013   0.094  0.00  0.00    -0.280 N 
ATOM      2  C   UNL     1       0.059  -2.704  -0.006  0.00  0.00    +0.248 C 
ATOM      3  O   UNL     1      -0.994  -2.113  -0.150  0.00  0.00    -0.270 OA
ATOM      4  H   UNL     1       2.058  -2.484   0.130  0.00  0.00    +0.155 HD
ENDROOT
BRANCH   1   9
ATOM      5  C   UNL     1       0.122   1.419   0.843  0.00  0.00    +0.002 A 
ATOM      6  C   UNL     1       1.134   2.154   0.251  0.00  0.00    +0.002 A 
ATOM      7  C   UNL     1       2.174   1.511  -0.394  0.00  0.00    +0.030 A 
ATOM      8  C   UNL     1       2.205   0.126  -0.449  0.00  0.00    +0.090 A 
ATOM      9  C   UNL     1       1.186  -0.615   0.147  0.00  0.00    +0.059 A 
ATOM     10  C   UNL     1       0.145   0.038   0.792  0.00  0.00    +0.025 A 
BRANCH   8  11
ATOM     11  N   UNL     1       3.260  -0.528  -1.104  0.00  0.00    -0.198 N 
ATOM     12  C   UNL     1       4.269   0.037  -1.801  0.00  0.00    +0.250 A 
ATOM     13  N   UNL     1       5.028  -0.932  -2.241  0.00  0.00    -0.116 NA
ATOM     14  N   UNL     1       4.567  -2.072  -1.870  0.00  0.00    -0.023 NA
ATOM     15  N   UNL     1       3.496  -1.913  -1.169  0.00  0.00    -0.039 NA
ENDBRANCH   8  11
ENDBRANCH   1   9
BRANCH   2  16
ATOM     16  C   UNL     1       0.075  -4.181   0.057  0.00  0.00    +0.039 A 
ATOM     17  C   UNL     1       1.282  -4.862   0.228  0.00  0.00    +0.013 A 
ATOM     18  C   UNL     1       1.295  -6.240   0.287  0.00  0.00    +0.003 A 
ATOM     19  C   UNL     1       0.115  -6.952   0.178  0.00  0.00    +0.023 A 
ATOM     20  C   UNL     1      -1.092  -6.284   0.008  0.00  0.00    +0.034 A 
ATOM     21  C   UNL     1      -1.116  -4.899  -0.047  0.00  0.00    +0.036 A 
BRANCH  20  22
ATOM     22  N   UNL     1      -2.283  -7.009  -0.102  0.00  0.00    -0.281 N 
ATOM     23  C   UNL     1      -3.334  -6.483  -0.762  0.00  0.00    +0.255 C 
ATOM     24  O   UNL     1      -3.214  -5.426  -1.353  0.00  0.00    -0.269 OA
ATOM     25  H   UNL     1      -2.353  -7.890   0.297  0.00  0.00    +0.155 HD
BRANCH  23  26
ATOM     26  C   UNL     1      -4.620  -7.185  -0.770  0.00  0.00    +0.074 A 
ATOM     27  C   UNL     1      -5.810  -6.823  -1.385  0.00  0.00    +0.021 A 
ATOM     28  C   UNL     1      -6.859  -7.693  -1.212  0.00  0.00    +0.008 A 
ATOM     29  C   UNL     1      -6.671  -8.815  -0.474  0.00  0.00    +0.046 A 
ATOM     30  S   UNL     1      -5.063  -8.729   0.004  0.00  0.00    -0.092 S 
ENDBRANCH  23  26
ENDBRANCH  20  22
ENDBRANCH   2  16
TORSDOF 5
