REMARK  Name = ZINC43667114
REMARK  2 active torsions:
REMARK  status: ('A' for Active; 'I' for Inactive)
REMARK    1  A    between atoms: C_7  and  N_15
REMARK    2  A    between atoms: C_16  and  N_21
REMARK                            x       y       z     vdW  Elec       q    Type
REMARK                         _______ _______ _______ _____ _____    ______ ____
ROOT
ATOM      1  C   UNL     1      -0.017   1.377   0.010  0.00  0.00    +0.001 A 
ATOM      2  C   UNL     1       1.171   2.086   0.002  0.00  0.00    +0.004 A 
ATOM      3  C   UNL     1       2.376   1.412  -0.012  0.00  0.00    +0.046 A 
ATOM      4  C   UNL     1       2.398   0.022  -0.021  0.00  0.00    +0.134 A 
ATOM      5  C   UNL     1       1.207  -0.685  -0.014  0.00  0.00    +0.024 A 
ATOM      6  C   UNL     1       0.002  -0.004   0.002  0.00  0.00    +0.010 A 
ATOM      7  C   UNL     1       1.204  -2.189  -0.026  0.00  0.00    +0.176 C 
ATOM      8  C   UNL     1       2.550  -2.725   0.378  0.00  0.00    +0.024 A 
ATOM      9  C   UNL     1       2.662  -4.045   0.778  0.00  0.00    +0.010 A 
ATOM     10  C   UNL     1       3.890  -4.557   1.152  0.00  0.00    +0.001 A 
ATOM     11  C   UNL     1       5.013  -3.750   1.128  0.00  0.00    +0.004 A 
ATOM     12  C   UNL     1       4.907  -2.433   0.731  0.00  0.00    +0.046 A 
ATOM     13  C   UNL     1       3.673  -1.914   0.353  0.00  0.00    +0.134 A 
ATOM     14  O   UNL     1       3.591  -0.620  -0.036  0.00  0.00    -0.455 OA
ENDROOT
BRANCH   7  15
ATOM     15  N   UNL     1       0.189  -2.677   0.911  0.00  0.00    -0.238 N 
ATOM     16  C   UNL     1      -0.877  -3.458   0.600  0.00  0.00    +0.129 A 
ATOM     17  C   UNL     1      -1.569  -3.685   1.751  0.00  0.00    +0.072 A 
ATOM     18  C   UNL     1      -0.903  -3.023   2.787  0.00  0.00    +0.150 A 
ATOM     19  N   UNL     1       0.148  -2.426   2.288  0.00  0.00    -0.176 NA
ATOM     20  I   UNL     1      -3.318  -4.822   1.937  0.00  0.00    -0.039 I 
BRANCH  16  21
ATOM     21  N   UNL     1      -1.204  -3.940  -0.665  0.00  0.00    -0.342 N 
ATOM     22  H   UNL     1      -0.645  -3.722  -1.427  0.00  0.00    +0.144 HD
ATOM     23  H   UNL     1      -1.991  -4.495  -0.785  0.00  0.00    +0.144 HD
ENDBRANCH  16  21
ENDBRANCH   7  15
TORSDOF 2
