REMARK  Name = ZINC13272892
REMARK  9 active torsions:
REMARK  status: ('A' for Active; 'I' for Inactive)
REMARK    1  A    between atoms: C_4  and  O_29
REMARK    2  A    between atoms: C_5  and  C_7
REMARK    3  A    between atoms: C_8  and  C_9
REMARK    4  A    between atoms: C_9  and  C_11
REMARK    5  A    between atoms: C_14  and  S_17
REMARK    6  A    between atoms: S_17  and  N_20
REMARK    7  A    between atoms: N_20  and  C_21
REMARK    8  A    between atoms: C_24  and  C_27
REMARK    9  A    between atoms: O_29  and  C_30
REMARK                            x       y       z     vdW  Elec       q    Type
REMARK                         _______ _______ _______ _____ _____    ______ ____
ROOT
ATOM      1  C   UNL     1       3.416   2.659   0.318  0.00  0.00    +0.022 A 
ATOM      2  C   UNL     1       3.643   4.036   0.289  0.00  0.00    +0.013 A 
ATOM      3  C   UNL     1       4.932   4.518   0.192  0.00  0.00    +0.029 A 
ATOM      4  C   UNL     1       5.998   3.639   0.113  0.00  0.00    +0.109 A 
ATOM      5  C   UNL     1       5.780   2.273   0.135  0.00  0.00    +0.029 A 
ATOM      6  C   UNL     1       4.496   1.778   0.238  0.00  0.00    +0.013 A 
ENDROOT
BRANCH   4   7
ATOM      7  S   UNL     1       7.641   4.263  -0.019  0.00  0.00    +0.072 S 
ATOM      8  O   UNL     1       7.597   5.616   0.414  0.00  0.00    -0.150 OA
ATOM      9  O   UNL     1       8.491   3.297   0.585  0.00  0.00    -0.150 OA
BRANCH   7  10
ATOM     10  N   UNL     1       8.026   4.293  -1.629  0.00  0.00    -0.216 N 
ATOM     11  H   UNL     1       8.748   3.739  -1.965  0.00  0.00    +0.174 HD
BRANCH  10  12
ATOM     12  C   UNL     1       7.314   5.111  -2.499  0.00  0.00    +0.048 A 
ATOM     13  C   UNL     1       6.397   4.551  -3.384  0.00  0.00    +0.025 A 
ATOM     14  C   UNL     1       5.689   5.356  -4.240  0.00  0.00    +0.017 A 
ATOM     15  C   UNL     1       5.899   6.738  -4.231  0.00  0.00    +0.063 A 
ATOM     16  C   UNL     1       6.825   7.296  -3.344  0.00  0.00    +0.017 A 
ATOM     17  C   UNL     1       7.525   6.487  -2.487  0.00  0.00    +0.025 A 
BRANCH  15  18
ATOM     18  C   UNL     1       5.144   7.606  -5.153  0.00  0.00    +0.387 C 
ATOM     19  O   UNL     1       5.326   8.807  -5.144  0.00  0.00    -0.241 OA
ATOM     20  O   UNL     1       4.252   7.066  -6.007  0.00  0.00    -0.241 OA
ENDBRANCH  15  18
ENDBRANCH  10  12
ENDBRANCH   7  10
ENDBRANCH   4   7
BRANCH   1  21
ATOM     21  C   UNL     1       2.037   2.136   0.428  0.00  0.00    +0.186 C 
ATOM     22  O   UNL     1       1.842   0.934   0.448  0.00  0.00    -0.287 OA
BRANCH  21  24
ATOM     23  C   UNL     1      -0.319   2.554   0.610  0.00  0.00    +0.015 C 
ATOM     24  C   UNL     1       0.943   3.033   0.510  0.00  0.00    +0.052 C 
BRANCH  23  29
ATOM     25  C   UNL     1      -2.302   5.731   0.740  0.00  0.00    +0.001 A 
ATOM     26  C   UNL     1      -3.595   5.240   0.837  0.00  0.00    +0.004 A 
ATOM     27  C   UNL     1      -3.826   3.879   0.860  0.00  0.00    +0.046 A 
ATOM     28  C   UNL     1      -2.765   2.991   0.781  0.00  0.00    +0.137 A 
ATOM     29  C   UNL     1      -1.452   3.483   0.689  0.00  0.00    +0.017 A 
ATOM     30  C   UNL     1      -1.233   4.866   0.666  0.00  0.00    +0.011 A 
BRANCH  28  31
ATOM     31  O   UNL     1      -2.992   1.654   0.798  0.00  0.00    -0.405 OA
BRANCH  31  32
ATOM     32  C   UNL     1      -4.353   1.228   0.894  0.00  0.00    +0.575 C 
ATOM     33  F   UNL     1      -5.073   1.718  -0.201  0.00  0.00    -0.133 F 
ATOM     34  F   UNL     1      -4.404  -0.170   0.898  0.00  0.00    -0.133 F 
ATOM     35  F   UNL     1      -4.913   1.719   2.078  0.00  0.00    -0.133 F 
ENDBRANCH  31  32
ENDBRANCH  28  31
ENDBRANCH  23  29
ENDBRANCH  21  24
ENDBRANCH   1  21
TORSDOF 9
