REMARK  Name = ZINC14012043
REMARK  7 active torsions:
REMARK  status: ('A' for Active; 'I' for Inactive)
REMARK    1  A    between atoms: C_1  and  O_2
REMARK    2  A    between atoms: O_2  and  C_3
REMARK    3  A    between atoms: C_6  and  C_10
REMARK    4  A    between atoms: N_12  and  C_13
REMARK    5  A    between atoms: C_13  and  N_15
REMARK    6  A    between atoms: N_15  and  C_16
REMARK    7  A    between atoms: C_21  and  N_22
REMARK                            x       y       z     vdW  Elec       q    Type
REMARK                         _______ _______ _______ _____ _____    ______ ____
ROOT
ATOM      1  C   UNL     1      -4.914   3.554   0.149  0.00  0.00    +0.141 C 
ATOM      2  S   UNL     1      -4.844   5.178  -0.389  0.00  0.00    -0.018 S 
ENDROOT
BRANCH   1   5
ATOM      3  C   UNL     1      -2.586   3.419   0.043  0.00  0.00    +0.250 C 
ATOM      4  O   UNL     1      -2.537   4.572  -0.339  0.00  0.00    -0.270 OA
ATOM      5  N   UNL     1      -3.777   2.847   0.308  0.00  0.00    -0.264 N 
ATOM      6  H   UNL     1      -3.817   1.927   0.613  0.00  0.00    +0.157 HD
BRANCH   3  10
ATOM      7  C   UNL     1       0.995   1.192   0.544  0.00  0.00    +0.134 A 
ATOM      8  C   UNL     1      -0.233   0.601   0.818  0.00  0.00    +0.047 A 
ATOM      9  C   UNL     1      -1.397   1.318   0.651  0.00  0.00    +0.017 A 
ATOM     10  C   UNL     1      -1.342   2.646   0.216  0.00  0.00    +0.038 A 
ATOM     11  C   UNL     1      -0.105   3.236  -0.058  0.00  0.00    +0.032 A 
ATOM     12  C   UNL     1       1.054   2.510   0.106  0.00  0.00    +0.060 A 
ATOM     13 BR   UNL     1       2.728   3.308  -0.264  0.00  0.00    -0.046 Br
BRANCH   7  15
ATOM     14  C   UNL     1       2.006  -0.869   1.158  0.00  0.00    +0.277 C 
ATOM     15  O   UNL     1       2.139   0.480   0.705  0.00  0.00    -0.494 OA
ENDBRANCH   7  15
ENDBRANCH   3  10
ENDBRANCH   1   5
BRANCH   1  16
ATOM     16  N   UNL     1      -6.105   2.982   0.414  0.00  0.00    -0.295 N 
ATOM     17  H   UNL     1      -6.152   2.040   0.638  0.00  0.00    +0.154 HD
BRANCH  16  18
ATOM     18  C   UNL     1      -7.275   3.749   0.367  0.00  0.00    +0.063 A 
ATOM     19  C   UNL     1      -7.316   4.995   0.980  0.00  0.00    +0.027 A 
ATOM     20  C   UNL     1      -8.472   5.749   0.931  0.00  0.00    +0.022 A 
ATOM     21  C   UNL     1      -9.588   5.265   0.271  0.00  0.00    +0.043 A 
ATOM     22  C   UNL     1      -9.550   4.024  -0.340  0.00  0.00    +0.054 A 
ATOM     23  C   UNL     1      -8.395   3.268  -0.298  0.00  0.00    +0.149 A 
ATOM     24 CL   UNL     1     -11.039   6.217   0.211  0.00  0.00    -0.083 Cl
BRANCH  23  25
ATOM     25  N   UNL     1      -8.354   1.943  -0.958  0.00  0.00    +0.058 N 
ATOM     26  O   UNL     1      -9.358   1.488  -1.474  0.00  0.00    -0.126 OA
ATOM     27  O   UNL     1      -7.314   1.308  -0.983  0.00  0.00    -0.126 OA
ENDBRANCH  23  25
ENDBRANCH  16  18
ENDBRANCH   1  16
TORSDOF 6
