REMARK  Name = ZINC37560100
REMARK  6 active torsions:
REMARK  status: ('A' for Active; 'I' for Inactive)
REMARK    1  A    between atoms: C_1  and  C_2
REMARK    2  A    between atoms: C_5  and  N_19
REMARK    3  A    between atoms: C_6  and  C_18
REMARK    4  A    between atoms: C_7  and  S_8
REMARK    5  A    between atoms: S_8  and  N_11
REMARK    6  A    between atoms: N_15  and  C_17
REMARK                            x       y       z     vdW  Elec       q    Type
REMARK                         _______ _______ _______ _____ _____    ______ ____
ROOT
ATOM      1  C   UNL     1       0.040   1.448  -0.148  0.00  0.00    +0.046 C 
ATOM      2  C   UNL     1      -0.007  -0.055  -0.038  0.00  0.00    -0.023 A 
ATOM      3  C   UNL     1      -0.144  -0.826  -1.178  0.00  0.00    +0.007 A 
ATOM      4  C   UNL     1      -0.187  -2.203  -1.081  0.00  0.00    +0.023 A 
ATOM      5  C   UNL     1      -0.092  -2.813   0.163  0.00  0.00    +0.029 A 
ATOM      6  C   UNL     1       0.046  -2.036   1.306  0.00  0.00    -0.003 A 
ATOM      7  C   UNL     1       0.094  -0.659   1.201  0.00  0.00    +0.116 A 
ATOM      8  C   UNL     1       0.149  -2.694   2.657  0.00  0.00    +0.048 C 
ENDROOT
BRANCH   7   9
ATOM      9  S   UNL     1       0.276   0.327   2.649  0.00  0.00    +0.074 S 
ATOM     10  O   UNL     1       0.246   1.683   2.224  0.00  0.00    -0.150 OA
ATOM     11  O   UNL     1      -0.633  -0.190   3.611  0.00  0.00    -0.150 OA
BRANCH   9  12
ATOM     12  N   UNL     1       1.798   0.051   3.242  0.00  0.00    -0.198 N 
ATOM     13  C   UNL     1       2.919   0.371   2.467  0.00  0.00    +0.160 A 
ATOM     14  C   UNL     1       4.256   0.095   2.797  0.00  0.00    +0.066 A 
ATOM     15  C   UNL     1       5.036   0.561   1.795  0.00  0.00    +0.110 A 
ATOM     16  N   UNL     1       4.228   1.111   0.864  0.00  0.00    -0.273 N 
ATOM     17  N   UNL     1       2.905   0.976   1.303  0.00  0.00    -0.155 NA
ATOM     18  C   UNL     1       4.660   1.735  -0.389  0.00  0.00    +0.172 C 
ATOM     19  H   UNL     1       1.912  -0.333   4.125  0.00  0.00    +0.175 HD
ENDBRANCH   9  12
ENDBRANCH   7   9
BRANCH   5  20
ATOM     20  N   UNL     1      -0.136  -4.205   0.264  0.00  0.00    -0.358 N 
ATOM     21  H   UNL     1      -0.233  -4.747  -0.534  0.00  0.00    +0.142 HD
ATOM     22  H   UNL     1      -0.069  -4.631   1.134  0.00  0.00    +0.142 HD
ENDBRANCH   5  20
TORSDOF 3
