REMARK  Name = ZINC17082916
REMARK  7 active torsions:
REMARK  status: ('A' for Active; 'I' for Inactive)
REMARK    1  A    between atoms: C_1  and  C_2
REMARK    2  A    between atoms: C_3  and  C_29
REMARK    3  A    between atoms: C_5  and  N_16
REMARK    4  A    between atoms: C_6  and  C_7
REMARK    5  A    between atoms: N_9  and  C_10
REMARK    6  A    between atoms: C_17  and  C_19
REMARK    7  A    between atoms: C_25  and  C_27
REMARK                            x       y       z     vdW  Elec       q    Type
REMARK                         _______ _______ _______ _____ _____    ______ ____
ROOT
ATOM      1  C   UNL     1      -0.013   1.086   0.008  0.00  0.00    +0.045 C 
ATOM      2  C   UNL     1      -0.718   1.572   1.248  0.00  0.00    -0.027 A 
ATOM      3  C   UNL     1      -0.047   1.809   2.389  0.00  0.00    -0.008 A 
ATOM      4  S   UNL     1      -1.321   2.349   3.510  0.00  0.00    -0.078 S 
ATOM      5  C   UNL     1      -2.692   2.251   2.457  0.00  0.00    +0.084 A 
ATOM      6  C   UNL     1      -2.142   1.808   1.260  0.00  0.00    +0.068 A 
ATOM      7  C   UNL     1       1.429   1.655   2.655  0.00  0.00    +0.052 C 
ENDROOT
BRANCH   6   8
ATOM      8  C   UNL     1      -2.968   1.588   0.069  0.00  0.00    +0.247 C 
ATOM      9  O   UNL     1      -3.474   0.499  -0.128  0.00  0.00    -0.270 OA
ATOM     10  N   UNL     1      -3.167   2.591  -0.809  0.00  0.00    -0.308 N 
ATOM     11  H   UNL     1      -2.763   3.459  -0.653  0.00  0.00    +0.149 HD
BRANCH  10  12
ATOM     12  C   UNL     1      -3.992   2.371  -1.999  0.00  0.00    +0.073 C 
ATOM     13  C   UNL     1      -3.133   1.765  -3.111  0.00  0.00    +0.022 C 
ATOM     14  C   UNL     1      -3.995   1.535  -4.354  0.00  0.00    +0.002 C 
ATOM     15  C   UNL     1      -4.574   2.870  -4.827  0.00  0.00    +0.000 C 
ATOM     16  C   UNL     1      -5.434   3.475  -3.715  0.00  0.00    +0.002 C 
ATOM     17  C   UNL     1      -4.572   3.705  -2.472  0.00  0.00    +0.022 C 
ENDBRANCH  10  12
ENDBRANCH   6   8
BRANCH   5  18
ATOM     18  N   UNL     1      -4.017   2.547   2.738  0.00  0.00    -0.279 N 
ATOM     19  C   UNL     1      -4.366   2.973   3.969  0.00  0.00    +0.222 C 
ATOM     20  O   UNL     1      -3.521   3.097   4.829  0.00  0.00    -0.275 OA
ATOM     21  H   UNL     1      -4.694   2.447   2.050  0.00  0.00    +0.155 HD
BRANCH  19  22
ATOM     22  C   UNL     1      -5.806   3.295   4.274  0.00  0.00    +0.093 C 
ATOM     23  C   UNL     1      -6.284   4.430   3.366  0.00  0.00    +0.040 C 
ATOM     24  C   UNL     1      -7.616   4.939   3.832  0.00  0.00    -0.030 C 
ATOM     25  C   UNL     1      -8.108   4.713   5.007  0.00  0.00    -0.030 C 
ATOM     26  C   UNL     1      -7.420   3.902   6.065  0.00  0.00    +0.042 C 
ATOM     27  C   UNL     1      -5.933   3.754   5.732  0.00  0.00    +0.118 C 
BRANCH  27  28
ATOM     28  C   UNL     1      -5.309   2.728   6.643  0.00  0.00    +0.360 C 
ATOM     29  O   UNL     1      -4.812   1.730   6.178  0.00  0.00    -0.246 OA
ATOM     30  O   UNL     1      -5.306   2.924   7.971  0.00  0.00    -0.246 OA
ENDBRANCH  27  28
ENDBRANCH  19  22
ENDBRANCH   5  18
TORSDOF 5
