REMARK  Name = ZINC35695879
REMARK  12 active torsions:
REMARK  status: ('A' for Active; 'I' for Inactive)
REMARK    1  A    between atoms: C_1  and  C_2
REMARK    2  A    between atoms: C_3  and  C_29
REMARK    3  A    between atoms: C_4  and  C_24
REMARK    4  A    between atoms: C_7  and  C_12
REMARK    5  A    between atoms: C_13  and  N_15
REMARK    6  A    between atoms: N_15  and  C_16
REMARK    7  A    between atoms: C_16  and  C_17
REMARK    8  A    between atoms: C_29  and  O_31
REMARK    9  A    between atoms: O_31  and  C_32
REMARK   10  A    between atoms: C_32  and  C_33
REMARK   11  A    between atoms: C_33  and  O_34
REMARK   12  A    between atoms: O_34  and  C_35
REMARK                            x       y       z     vdW  Elec       q    Type
REMARK                         _______ _______ _______ _____ _____    ______ ____
ROOT
ATOM      1  C   UNL     1       0.413   1.165   0.794  0.00  0.00    +0.066 C 
ATOM      2  C   UNL     1       0.298  -0.299   0.456  0.00  0.00    +0.053 C 
ATOM      3  C   UNL     1      -0.947  -0.898   0.416  0.00  0.00    +0.083 C 
ATOM      4  C   UNL     1      -1.011  -2.370   0.072  0.00  0.00    +0.156 C 
ATOM      5  N   UNL     1       0.280  -3.058  -0.197  0.00  0.00    -0.267 N 
ATOM      6  C   UNL     1       0.460  -4.386  -0.528  0.00  0.00    +0.048 C 
ATOM      7  C   UNL     1       1.725  -4.816  -0.733  0.00  0.00    +0.072 C 
ATOM      8  S   UNL     1       2.668  -3.329  -0.457  0.00  0.00    -0.060 S 
ATOM      9  C   UNL     1       1.403  -2.284  -0.105  0.00  0.00    +0.166 C 
ATOM     10  N   UNL     1       1.388  -1.002   0.195  0.00  0.00    -0.230 NA
ENDROOT
BRANCH   4  11
ATOM     11  C   UNL     1      -1.688  -3.084   1.212  0.00  0.00    +0.015 A 
ATOM     12  C   UNL     1      -2.940  -3.600   1.274  0.00  0.00    +0.013 A 
ATOM     13  C   UNL     1      -3.353  -4.221   2.438  0.00  0.00    +0.008 A 
ATOM     14  C   UNL     1      -2.494  -4.295   3.484  0.00  0.00    +0.045 A 
ATOM     15  S   UNL     1      -1.047  -3.477   2.832  0.00  0.00    -0.099 S 
ENDBRANCH   4  11
BRANCH   6  16
ATOM     16  C   UNL     1      -0.684  -5.302  -0.651  0.00  0.00    +0.091 C 
ATOM     17  C   UNL     1      -0.475  -6.619  -0.840  0.00  0.00    +0.239 C 
ATOM     18  O   UNL     1       0.784  -7.120  -0.789  0.00  0.00    -0.271 OA
BRANCH  17  19
ATOM     19  N   UNL     1      -1.546  -7.462  -1.086  0.00  0.00    -0.308 N 
ATOM     20  H   UNL     1      -2.446  -7.103  -1.122  0.00  0.00    +0.149 HD
BRANCH  19  21
ATOM     21  C   UNL     1      -1.318  -8.894  -1.290  0.00  0.00    +0.139 C 
BRANCH  21  22
ATOM     22  C   UNL     1      -2.636  -9.582  -1.537  0.00  0.00    -0.030 A 
ATOM     23  C   UNL     1      -3.366 -10.079  -0.474  0.00  0.00    +0.008 A 
ATOM     24  C   UNL     1      -4.575 -10.710  -0.699  0.00  0.00    +0.038 A 
ATOM     25  C   UNL     1      -5.056 -10.842  -1.990  0.00  0.00    +0.123 A 
ATOM     26  C   UNL     1      -4.324 -10.344  -3.055  0.00  0.00    +0.038 A 
ATOM     27  C   UNL     1      -3.118  -9.709  -2.827  0.00  0.00    +0.008 A 
ATOM     28  F   UNL     1      -6.237 -11.459  -2.212  0.00  0.00    -0.205 F 
ENDBRANCH  21  22
ENDBRANCH  19  21
ENDBRANCH  17  19
ENDBRANCH   6  16
BRANCH   3  29
ATOM     29  C   UNL     1      -2.110  -0.167   0.685  0.00  0.00    +0.339 C 
ATOM     30  O   UNL     1      -2.036   1.018   0.961  0.00  0.00    -0.245 OA
BRANCH  29  31
ATOM     31  O   UNL     1      -3.316  -0.776   0.639  0.00  0.00    -0.459 OA
BRANCH  31  32
ATOM     32  C   UNL     1      -4.461   0.031   0.924  0.00  0.00    +0.260 C 
BRANCH  32  33
ATOM     33  C   UNL     1      -5.725  -0.825   0.824  0.00  0.00    +0.200 C 
BRANCH  33  34
ATOM     34  O   UNL     1      -5.705  -1.826   1.843  0.00  0.00    -0.380 OA
ATOM     35  C   UNL     1      -6.847  -2.685   1.838  0.00  0.00    +0.194 C 
ENDBRANCH  33  34
ENDBRANCH  32  33
ENDBRANCH  31  32
ENDBRANCH  29  31
ENDBRANCH   3  29
TORSDOF 10
