REMARK  Name = ZINC01897584
REMARK  13 active torsions:
REMARK  status: ('A' for Active; 'I' for Inactive)
REMARK    1  A    between atoms: C_1  and  C_2
REMARK    2  A    between atoms: C_2  and  C_43
REMARK    3  A    between atoms: C_6  and  C_30
REMARK    4  A    between atoms: C_11  and  C_18
REMARK    5  A    between atoms: C_18  and  O_19
REMARK    6  A    between atoms: O_19  and  N_20
REMARK    7  A    between atoms: C_21  and  C_22
REMARK    8  A    between atoms: C_25  and  O_28
REMARK    9  A    between atoms: O_28  and  C_29
REMARK   10  A    between atoms: C_33  and  O_38
REMARK   11  A    between atoms: C_34  and  O_36
REMARK   12  A    between atoms: O_36  and  C_37
REMARK   13  A    between atoms: O_38  and  C_39
REMARK                            x       y       z     vdW  Elec       q    Type
REMARK                         _______ _______ _______ _____ _____    ______ ____
ROOT
ATOM      1  C   UNL     1      -0.019   1.526   0.010  0.00  0.00    +0.012 C 
ATOM      2  C   UNL     1       0.002  -0.004   0.002  0.00  0.00    -0.021 C 
ATOM      3  C   UNL     1      -1.431  -0.538   0.039  0.00  0.00    +0.081 C 
ATOM      4  C   UNL     1      -1.409  -2.048   0.069  0.00  0.00    +0.115 C 
ATOM      5  C   UNL     1      -0.397  -2.707   0.664  0.00  0.00    +0.045 C 
ATOM      6  C   UNL     1      -0.382  -4.217   0.696  0.00  0.00    +0.094 C 
ATOM      7  C   UNL     1      -1.300  -4.766  -0.350  0.00  0.00    +0.071 A 
ATOM      8  C   UNL     1      -1.203  -6.090  -0.803  0.00  0.00    +0.167 A 
ATOM      9  N   UNL     1      -0.411  -7.088  -0.492  0.00  0.00    -0.207 NA
ATOM     10  C   UNL     1      -0.732  -8.155  -1.222  0.00  0.00    +0.192 A 
ATOM     11  N   UNL     1      -1.739  -7.864  -2.017  0.00  0.00    -0.145 NA
ATOM     12  N   UNL     1      -2.076  -6.540  -1.778  0.00  0.00    -0.201 N 
ATOM     13  C   UNL     1      -3.022  -5.719  -2.299  0.00  0.00    +0.229 A 
ATOM     14  N   UNL     1      -3.094  -4.487  -1.855  0.00  0.00    -0.201 NA
ATOM     15  C   UNL     1      -2.279  -3.990  -0.913  0.00  0.00    +0.229 A 
ATOM     16  O   UNL     1      -2.428  -2.707  -0.513  0.00  0.00    -0.441 OA
ATOM     17  C   UNL     1       0.672  -2.019   1.266  0.00  0.00    +0.164 C 
ATOM     18  O   UNL     1       1.555  -2.649   1.813  0.00  0.00    -0.292 OA
ATOM     19  C   UNL     1       0.743  -0.516   1.242  0.00  0.00    +0.086 C 
ATOM     20  C   UNL     1       0.709  -0.502  -1.260  0.00  0.00    +0.012 C 
ENDROOT
BRANCH   6  21
ATOM     21  C   UNL     1      -0.835  -4.692   2.053  0.00  0.00    -0.031 A 
ATOM     22  C   UNL     1      -2.097  -4.364   2.513  0.00  0.00    +0.008 A 
ATOM     23  C   UNL     1      -2.517  -4.797   3.756  0.00  0.00    +0.050 A 
ATOM     24  C   UNL     1      -1.674  -5.564   4.544  0.00  0.00    +0.162 A 
ATOM     25  C   UNL     1      -0.404  -5.895   4.081  0.00  0.00    +0.162 A 
ATOM     26  C   UNL     1       0.009  -5.461   2.832  0.00  0.00    +0.054 A 
BRANCH  25  27
ATOM     27  O   UNL     1       0.427  -6.647   4.851  0.00  0.00    -0.491 OA
ATOM     28  C   UNL     1       1.716  -6.949   4.311  0.00  0.00    +0.277 C 
ENDBRANCH  25  27
BRANCH  24  29
ATOM     29  O   UNL     1      -2.086  -5.991   5.768  0.00  0.00    -0.491 OA
ATOM     30  C   UNL     1      -3.401  -5.612   6.178  0.00  0.00    +0.277 C 
ENDBRANCH  24  29
ENDBRANCH   6  21
BRANCH  10  31
ATOM     31  C   UNL     1      -0.046  -9.495  -1.147  0.00  0.00    +0.340 C 
BRANCH  31  32
ATOM     32  O   UNL     1      -0.696 -10.309  -0.169  0.00  0.00    -0.386 OA
BRANCH  32  33
ATOM     33  N   UNL     1      -0.125 -11.597  -0.020  0.00  0.00    -0.092 NA
ATOM     34  C   UNL     1      -0.624 -12.430   0.835  0.00  0.00    +0.160 C 
BRANCH  34  35
ATOM     35  C   UNL     1      -0.029 -13.771   0.991  0.00  0.00    -0.004 A 
ATOM     36  C   UNL     1       1.076 -14.141   0.220  0.00  0.00    +0.013 A 
ATOM     37  C   UNL     1       1.629 -15.395   0.368  0.00  0.00    +0.046 A 
ATOM     38  C   UNL     1       1.088 -16.290   1.282  0.00  0.00    +0.120 A 
ATOM     39  C   UNL     1      -0.011 -15.927   2.050  0.00  0.00    +0.046 A 
ATOM     40  C   UNL     1      -0.565 -14.673   1.913  0.00  0.00    +0.013 A 
BRANCH  38  41
ATOM     41  O   UNL     1       1.635 -17.525   1.425  0.00  0.00    -0.495 OA
ATOM     42  C   UNL     1       1.030 -18.396   2.383  0.00  0.00    +0.277 C 
ENDBRANCH  38  41
ENDBRANCH  34  35
ENDBRANCH  32  33
ENDBRANCH  31  32
ENDBRANCH  10  31
TORSDOF 8
