REMARK  Name = ZINC01124226
REMARK  10 active torsions:
REMARK  status: ('A' for Active; 'I' for Inactive)
REMARK    1  A    between atoms: C_1  and  C_2
REMARK    2  A    between atoms: C_4  and  N_16
REMARK    3  A    between atoms: C_7  and  N_8
REMARK    4  A    between atoms: C_9  and  C_11
REMARK    5  A    between atoms: N_16  and  C_17
REMARK    6  A    between atoms: C_17  and  N_19
REMARK    7  A    between atoms: C_20  and  C_22
REMARK    8  A    between atoms: C_26  and  C_30
REMARK    9  A    between atoms: C_27  and  O_28
REMARK   10  A    between atoms: O_28  and  C_29
REMARK                            x       y       z     vdW  Elec       q    Type
REMARK                         _______ _______ _______ _____ _____    ______ ____
ROOT
ATOM      1  N   UNL     1       6.016   3.972  -0.055  0.00  0.00    -0.297 N 
ATOM      2  H   UNL     1       6.012   3.041  -0.325  0.00  0.00    +0.154 HD
ENDROOT
BRANCH   1   6
ATOM      3  C   UNL     1       9.136   7.235   1.891  0.00  0.00    +0.046 C 
ATOM      4  C   UNL     1       8.726   6.318   0.768  0.00  0.00    -0.027 A 
ATOM      5  C   UNL     1       7.568   5.573   0.874  0.00  0.00    +0.028 A 
ATOM      6  C   UNL     1       7.190   4.728  -0.161  0.00  0.00    +0.033 A 
ATOM      7  C   UNL     1       7.979   4.628  -1.300  0.00  0.00    +0.025 A 
ATOM      8  C   UNL     1       9.133   5.377  -1.408  0.00  0.00    +0.025 A 
ATOM      9  C   UNL     1       9.512   6.222  -0.372  0.00  0.00    +0.037 A 
BRANCH   9  10
ATOM     10  N   UNL     1      10.686   6.977  -0.479  0.00  0.00    -0.279 N 
ATOM     11  C   UNL     1      11.099   7.413  -1.685  0.00  0.00    +0.284 C 
ATOM     12  O   UNL     1      10.480   7.109  -2.688  0.00  0.00    -0.266 OA
ATOM     13  H   UNL     1      11.202   7.186   0.315  0.00  0.00    +0.155 HD
BRANCH  11  14
ATOM     14  C   UNL     1      12.295   8.256  -1.790  0.00  0.00    +0.189 A 
ATOM     15  C   UNL     1      12.820   8.764  -2.944  0.00  0.00    +0.054 A 
ATOM     16  C   UNL     1      13.954   9.506  -2.578  0.00  0.00    +0.042 A 
ATOM     17  C   UNL     1      14.070   9.420  -1.234  0.00  0.00    +0.196 A 
ATOM     18  O   UNL     1      13.065   8.670  -0.763  0.00  0.00    -0.458 OA
ENDBRANCH  11  14
ENDBRANCH   9  10
ENDBRANCH   1   6
BRANCH   1  19
ATOM     19  C   UNL     1       4.890   4.540   0.423  0.00  0.00    +0.141 C 
ATOM     20  S   UNL     1       4.919   6.156   0.986  0.00  0.00    -0.018 S 
BRANCH  19  21
ATOM     21  N   UNL     1       3.742   3.834   0.458  0.00  0.00    -0.263 N 
ATOM     22  C   UNL     1       2.617   4.402   0.936  0.00  0.00    +0.253 C 
ATOM     23  O   UNL     1       2.638   5.550   1.336  0.00  0.00    -0.270 OA
ATOM     24  H   UNL     1       3.726   2.918   0.140  0.00  0.00    +0.157 HD
BRANCH  22  25
ATOM     25  C   UNL     1       1.361   3.630   0.975  0.00  0.00    +0.080 A 
ATOM     26  C   UNL     1       1.333   2.310   0.516  0.00  0.00    +0.032 A 
ATOM     27  C   UNL     1       0.156   1.594   0.555  0.00  0.00    +0.019 A 
ATOM     28  C   UNL     1      -1.003   2.180   1.042  0.00  0.00    +0.022 A 
ATOM     29  C   UNL     1      -0.987   3.481   1.503  0.00  0.00    -0.007 A 
ATOM     30  C   UNL     1       0.189   4.216   1.471  0.00  0.00    +0.135 A 
ATOM     31  C   UNL     1      -2.251   4.105   2.037  0.00  0.00    +0.047 C 
ATOM     32 BR   UNL     1       0.119  -0.192  -0.065  0.00  0.00    -0.050 Br
BRANCH  30  33
ATOM     33  O   UNL     1       0.204   5.496   1.919  0.00  0.00    -0.494 OA
ATOM     34  C   UNL     1      -0.078   6.521   0.964  0.00  0.00    +0.277 C 
ENDBRANCH  30  33
ENDBRANCH  22  25
ENDBRANCH  19  21
ENDBRANCH   1  19
TORSDOF 7
