REMARK  Name = ZINC35955604
REMARK  10 active torsions:
REMARK  status: ('A' for Active; 'I' for Inactive)
REMARK    1  A    between atoms: C_1  and  C_2
REMARK    2  A    between atoms: C_7  and  C_8
REMARK    3  A    between atoms: N_10  and  C_11
REMARK    4  A    between atoms: C_17  and  N_19
REMARK    5  A    between atoms: C_20  and  C_22
REMARK    6  A    between atoms: C_29  and  C_31
REMARK    7  A    between atoms: C_33  and  O_39
REMARK    8  A    between atoms: C_35  and  O_37
REMARK    9  A    between atoms: O_37  and  C_38
REMARK   10  A    between atoms: O_39  and  C_40
REMARK                            x       y       z     vdW  Elec       q    Type
REMARK                         _______ _______ _______ _____ _____    ______ ____
ROOT
ATOM      1  N   UNL     1      -1.268  -1.033   5.783  0.00  0.00    -0.310 N 
ATOM      2  C   UNL     1      -1.716  -2.074   6.511  0.00  0.00    +0.218 C 
ATOM      3  O   UNL     1      -0.983  -2.615   7.312  0.00  0.00    -0.275 OA
ATOM      4  H   UNL     1      -1.854  -0.600   5.143  0.00  0.00    +0.149 HD
ENDROOT
BRANCH   2   5
ATOM      5  C   UNL     1      -3.129  -2.567   6.331  0.00  0.00    +0.092 C 
ATOM      6  C   UNL     1      -3.381  -3.750   7.268  0.00  0.00    +0.016 C 
ATOM      7  C   UNL     1      -4.825  -4.230   7.110  0.00  0.00    +0.020 C 
ATOM      8  C   UNL     1      -5.048  -4.699   5.668  0.00  0.00    +0.108 C 
ATOM      9  N   UNL     1      -4.669  -3.613   4.754  0.00  0.00    -0.297 N 
ATOM     10  C   UNL     1      -3.333  -3.016   4.881  0.00  0.00    +0.120 C 
ATOM     11  C   UNL     1      -5.531  -3.173   3.816  0.00  0.00    +0.247 C 
ATOM     12  O   UNL     1      -5.180  -2.328   3.017  0.00  0.00    -0.270 OA
BRANCH  11  13
ATOM     13  C   UNL     1      -6.905  -3.718   3.760  0.00  0.00    +0.044 A 
ATOM     14  C   UNL     1      -7.993  -2.858   3.610  0.00  0.00    +0.059 A 
ATOM     15  C   UNL     1      -9.278  -3.373   3.558  0.00  0.00    +0.124 A 
ATOM     16  C   UNL     1      -9.483  -4.742   3.655  0.00  0.00    +0.091 A 
ATOM     17  C   UNL     1      -8.404  -5.600   3.805  0.00  0.00    +0.124 A 
ATOM     18  C   UNL     1      -7.115  -5.094   3.852  0.00  0.00    +0.059 A 
BRANCH  17  19
ATOM     19  O   UNL     1      -8.611  -6.940   3.900  0.00  0.00    -0.495 OA
ATOM     20  C   UNL     1      -9.964  -7.394   3.838  0.00  0.00    +0.277 C 
ENDBRANCH  17  19
BRANCH  15  21
ATOM     21  O   UNL     1     -10.339  -2.536   3.411  0.00  0.00    -0.495 OA
ATOM     22  C   UNL     1     -11.636  -3.135   3.365  0.00  0.00    +0.277 C 
ENDBRANCH  15  21
ENDBRANCH  11  13
ENDBRANCH   2   5
BRANCH   1  28
ATOM     23  C   UNL     1       0.568   0.148   4.680  0.00  0.00    +0.093 C 
ATOM     24  C   UNL     1       2.002   0.648   4.863  0.00  0.00    +0.024 C 
ATOM     25  C   UNL     1       2.054   1.633   6.033  0.00  0.00    +0.002 C 
ATOM     26  C   UNL     1       1.592   0.931   7.312  0.00  0.00    +0.002 C 
ATOM     27  C   UNL     1       0.157   0.431   7.129  0.00  0.00    +0.024 C 
ATOM     28  C   UNL     1       0.106  -0.554   5.959  0.00  0.00    +0.093 C 
BRANCH  23  31
ATOM     29  C   UNL     1       0.383  -0.337   2.300  0.00  0.00    +0.245 C 
ATOM     30  O   UNL     1       0.301   0.858   2.092  0.00  0.00    -0.270 OA
ATOM     31  N   UNL     1       0.519  -0.794   3.560  0.00  0.00    -0.307 N 
ATOM     32  H   UNL     1       0.584  -1.748   3.725  0.00  0.00    +0.149 HD
BRANCH  29  39
ATOM     33  C   UNL     1       0.252   0.668  -0.411  0.00  0.00    +0.044 C 
ATOM     34  C   UNL     1       0.270  -0.815  -0.142  0.00  0.00    -0.038 A 
ATOM     35  C   UNL     1       0.230  -1.708  -1.193  0.00  0.00    +0.004 A 
ATOM     36  C   UNL     1       0.246  -3.070  -0.949  0.00  0.00    +0.000 A 
ATOM     37  C   UNL     1       0.303  -3.545   0.350  0.00  0.00    +0.001 A 
ATOM     38  C   UNL     1       0.344  -2.663   1.409  0.00  0.00    +0.013 A 
ATOM     39  C   UNL     1       0.333  -1.288   1.169  0.00  0.00    +0.040 A 
ENDBRANCH  29  39
ENDBRANCH  23  31
ENDBRANCH   1  28
TORSDOF 7
