REMARK  Name = ZINC35693420
REMARK  11 active torsions:
REMARK  status: ('A' for Active; 'I' for Inactive)
REMARK    1  A    between atoms: C_1  and  C_2
REMARK    2  A    between atoms: C_2  and  N_3
REMARK    3  A    between atoms: N_3  and  C_4
REMARK    4  A    between atoms: C_6  and  C_7
REMARK    5  A    between atoms: C_12  and  C_32
REMARK    6  A    between atoms: C_13  and  C_27
REMARK    7  A    between atoms: C_14  and  C_17
REMARK    8  A    between atoms: C_20  and  C_23
REMARK    9  A    between atoms: C_27  and  O_29
REMARK   10  A    between atoms: O_29  and  C_30
REMARK   11  A    between atoms: C_30  and  C_31
REMARK                            x       y       z     vdW  Elec       q    Type
REMARK                         _______ _______ _______ _____ _____    ______ ____
ROOT
ATOM      1  C   UNL     1      -2.969  -3.410   0.508  0.00  0.00    +0.048 C 
ATOM      2  C   UNL     1      -4.279  -3.716   0.635  0.00  0.00    +0.072 C 
ATOM      3  S   UNL     1      -4.253  -5.495   0.545  0.00  0.00    -0.060 S 
ATOM      4  C   UNL     1      -2.601  -5.719   0.353  0.00  0.00    +0.166 C 
ATOM      5  N   UNL     1      -1.878  -6.812   0.220  0.00  0.00    -0.230 NA
ATOM      6  C   UNL     1      -0.564  -6.835   0.075  0.00  0.00    +0.053 C 
ATOM      7  C   UNL     1       0.159  -5.657   0.054  0.00  0.00    +0.082 C 
ATOM      8  C   UNL     1      -0.603  -4.359   0.202  0.00  0.00    +0.150 C 
ATOM      9  N   UNL     1      -2.080  -4.455   0.353  0.00  0.00    -0.267 N 
ATOM     10  C   UNL     1       0.151  -8.154  -0.068  0.00  0.00    +0.066 C 
ENDROOT
BRANCH   8  11
ATOM     11  C   UNL     1      -0.321  -3.514  -1.013  0.00  0.00    -0.022 A 
ATOM     12  C   UNL     1      -0.904  -3.830  -2.226  0.00  0.00    +0.006 A 
ATOM     13  C   UNL     1      -0.645  -3.055  -3.341  0.00  0.00    +0.013 A 
ATOM     14  C   UNL     1       0.198  -1.964  -3.243  0.00  0.00    +0.055 A 
ATOM     15  C   UNL     1       0.780  -1.647  -2.030  0.00  0.00    +0.013 A 
ATOM     16  C   UNL     1       0.517  -2.420  -0.914  0.00  0.00    +0.006 A 
BRANCH  14  17
ATOM     17  C   UNL     1       0.481  -1.119  -4.458  0.00  0.00    +0.417 C 
ATOM     18  F   UNL     1      -0.462  -0.089  -4.540  0.00  0.00    -0.166 F 
ATOM     19  F   UNL     1       1.764  -0.570  -4.356  0.00  0.00    -0.166 F 
ATOM     20  F   UNL     1       0.404  -1.914  -5.607  0.00  0.00    -0.166 F 
ENDBRANCH  14  17
ENDBRANCH   8  11
BRANCH   1  23
ATOM     21  C   UNL     1      -3.404  -1.010   0.549  0.00  0.00    +0.239 C 
ATOM     22  O   UNL     1      -4.726  -1.283   0.666  0.00  0.00    -0.271 OA
ATOM     23  C   UNL     1      -2.507  -2.015   0.526  0.00  0.00    +0.091 C 
BRANCH  21  24
ATOM     24  N   UNL     1      -2.974   0.303   0.453  0.00  0.00    -0.312 N 
ATOM     25  H   UNL     1      -2.037   0.496   0.295  0.00  0.00    +0.149 HD
BRANCH  24  27
ATOM     26  C   UNL     1      -3.190   2.737   0.569  0.00  0.00    +0.024 C 
ATOM     27  C   UNL     1      -3.935   1.400   0.591  0.00  0.00    +0.101 C 
ENDBRANCH  24  27
ENDBRANCH  21  24
ENDBRANCH   1  23
BRANCH   7  28
ATOM     28  C   UNL     1       1.551  -5.665  -0.098  0.00  0.00    +0.339 C 
ATOM     29  O   UNL     1       2.145  -6.723  -0.215  0.00  0.00    -0.245 OA
BRANCH  28  30
ATOM     30  O   UNL     1       2.235  -4.500  -0.115  0.00  0.00    -0.462 OA
BRANCH  30  31
ATOM     31  C   UNL     1       3.653  -4.583  -0.274  0.00  0.00    +0.229 C 
ATOM     32  C   UNL     1       4.250  -3.174  -0.269  0.00  0.00    +0.048 C 
ENDBRANCH  30  31
ENDBRANCH  28  30
ENDBRANCH   7  28
TORSDOF 8
