REMARK  Name = ZINC67049712
REMARK  7 active torsions:
REMARK  status: ('A' for Active; 'I' for Inactive)
REMARK    1  A    between atoms: C_1  and  C_2
REMARK    2  A    between atoms: C_2  and  C_3
REMARK    3  A    between atoms: C_2  and  C_4
REMARK    4  A    between atoms: C_6  and  C_9
REMARK    5  A    between atoms: C_9  and  C_10
REMARK    6  A    between atoms: N_12  and  C_13
REMARK    7  A    between atoms: N_16  and  C_19
REMARK                            x       y       z     vdW  Elec       q    Type
REMARK                         _______ _______ _______ _____ _____    ______ ____
ROOT
ATOM      1  C   UNL     1      -6.158  -1.425  -4.659  0.00  0.00    +0.076 C 
ATOM      2  C   UNL     1      -5.207  -0.977  -5.771  0.00  0.00    +0.041 C 
ATOM      3  C   UNL     1      -5.959  -0.064  -6.745  0.00  0.00    +0.108 C 
ATOM      4  N   UNL     1      -7.157  -0.768  -7.222  0.00  0.00    -0.313 N 
ATOM      5  C   UNL     1      -8.094  -1.319  -6.233  0.00  0.00    +0.108 C 
ATOM      6  C   UNL     1      -7.317  -2.218  -5.266  0.00  0.00    +0.041 C 
ENDROOT
BRANCH   4   7
ATOM      7  C   UNL     1      -7.399  -0.908  -8.577  0.00  0.00    +0.152 A 
ATOM      8  C   UNL     1      -6.575  -0.277  -9.524  0.00  0.00    +0.147 A 
ATOM      9  N   UNL     1      -5.484   0.523  -9.455  0.00  0.00    -0.231 NA
ATOM     10  C   UNL     1      -5.101   0.838 -10.658  0.00  0.00    +0.198 A 
ATOM     11  N   UNL     1      -5.924   0.257 -11.576  0.00  0.00    -0.329 N 
ATOM     12  C   UNL     1      -6.871  -0.457 -10.886  0.00  0.00    +0.163 A 
ATOM     13  N   UNL     1      -7.910  -1.212 -11.227  0.00  0.00    -0.216 NA
ATOM     14  C   UNL     1      -8.655  -1.784 -10.305  0.00  0.00    +0.225 A 
ATOM     15  N   UNL     1      -8.414  -1.648  -9.014  0.00  0.00    -0.218 NA
ATOM     16  H   UNL     1      -5.854   0.336 -12.540  0.00  0.00    +0.168 HD
ENDBRANCH   4   7
BRANCH   1  19
ATOM     17  C   UNL     1      -4.729  -1.708  -2.705  0.00  0.00    +0.219 C 
ATOM     18  O   UNL     1      -4.697  -0.501  -2.590  0.00  0.00    -0.275 OA
ATOM     19  N   UNL     1      -5.432  -2.271  -3.708  0.00  0.00    -0.312 N 
ATOM     20  H   UNL     1      -5.458  -3.236  -3.800  0.00  0.00    +0.149 HD
BRANCH  17  21
ATOM     21  C   UNL     1      -3.983  -2.579  -1.727  0.00  0.00    +0.151 C 
BRANCH  21  24
ATOM     22  C   UNL     1      -1.421  -0.599   0.022  0.00  0.00    +0.081 A 
ATOM     23  N   UNL     1      -2.024  -1.355  -0.861  0.00  0.00    -0.248 NA
ATOM     24  C   UNL     1      -3.285  -1.710  -0.713  0.00  0.00    +0.057 A 
ATOM     25  C   UNL     1      -3.925  -1.258   0.396  0.00  0.00    +0.070 A 
ATOM     26  S   UNL     1      -2.616  -0.326   1.175  0.00  0.00    -0.080 S 
BRANCH  22  28
ATOM     27  C   UNL     1       0.006   1.429   0.016  0.00  0.00    +0.014 C 
ATOM     28  C   UNL     1       0.002  -0.101   0.012  0.00  0.00    +0.038 C 
ATOM     29  C   UNL     1       0.731  -0.617   1.254  0.00  0.00    +0.014 C 
ENDBRANCH  22  28
ENDBRANCH  21  24
ENDBRANCH  17  21
ENDBRANCH   1  19
TORSDOF 5
