REMARK  Name = ZINC13349230
REMARK  9 active torsions:
REMARK  status: ('A' for Active; 'I' for Inactive)
REMARK    1  A    between atoms: C_1  and  C_2
REMARK    2  A    between atoms: C_5  and  S_8
REMARK    3  A    between atoms: S_8  and  N_11
REMARK    4  A    between atoms: C_15  and  C_34
REMARK    5  A    between atoms: C_17  and  N_21
REMARK    6  A    between atoms: N_24  and  C_25
REMARK    7  A    between atoms: C_27  and  C_33
REMARK    8  A    between atoms: C_30  and  O_31
REMARK    9  A    between atoms: O_31  and  C_32
REMARK                            x       y       z     vdW  Elec       q    Type
REMARK                         _______ _______ _______ _____ _____    ______ ____
ROOT
ATOM      1  N   UNL     1      -0.004   0.001   0.009  0.00  0.00    -0.194 N 
ATOM      2  C   UNL     1       0.524  -0.690   1.081  0.00  0.00    +0.179 A 
ATOM      3  N   UNL     1       0.638  -1.987   1.249  0.00  0.00    -0.223 NA
ATOM      4  C   UNL     1       1.181  -2.531   2.361  0.00  0.00    +0.083 A 
ATOM      5  C   UNL     1       1.361  -3.900   2.664  0.00  0.00    -0.022 A 
ATOM      6  C   UNL     1       1.934  -4.288   3.846  0.00  0.00    +0.028 A 
ATOM      7  C   UNL     1       2.358  -3.355   4.789  0.00  0.00    +0.036 A 
ATOM      8  C   UNL     1       2.196  -2.002   4.522  0.00  0.00    +0.040 A 
ATOM      9  C   UNL     1       1.622  -1.610   3.339  0.00  0.00    +0.043 A 
ATOM     10  S   UNL     1       1.234  -0.047   2.589  0.00  0.00    -0.051 S 
ATOM     11  C   UNL     1       0.917  -4.945   1.674  0.00  0.00    +0.046 C 
ATOM     12  H   UNL     1      -0.355  -0.483  -0.755  0.00  0.00    +0.176 HD
ENDROOT
BRANCH   7  13
ATOM     13  N   UNL     1       2.942  -3.776   5.992  0.00  0.00    -0.269 N 
ATOM     14  C   UNL     1       3.930  -3.051   6.551  0.00  0.00    +0.308 C 
ATOM     15  O   UNL     1       4.260  -1.990   6.058  0.00  0.00    -0.252 OA
ATOM     16  N   UNL     1       4.554  -3.502   7.657  0.00  0.00    -0.266 N 
ATOM     17  H   UNL     1       2.634  -4.589   6.421  0.00  0.00    +0.156 HD
ATOM     18  H   UNL     1       4.337  -4.379   8.013  0.00  0.00    +0.156 HD
BRANCH  16  19
ATOM     19  C   UNL     1       5.516  -2.706   8.294  0.00  0.00    +0.077 A 
ATOM     20  C   UNL     1       6.345  -1.884   7.545  0.00  0.00    +0.030 A 
ATOM     21  C   UNL     1       7.292  -1.099   8.175  0.00  0.00    -0.048 A 
ATOM     22  C   UNL     1       7.416  -1.131   9.552  0.00  0.00    +0.007 A 
ATOM     23  C   UNL     1       6.594  -1.948  10.305  0.00  0.00    +0.048 A 
ATOM     24  C   UNL     1       5.638  -2.734   9.681  0.00  0.00    +0.141 A 
ATOM     25  C   UNL     1       8.191  -0.207   7.359  0.00  0.00    +0.044 C 
BRANCH  24  26
ATOM     26  O   UNL     1       4.825  -3.534  10.421  0.00  0.00    -0.493 OA
ATOM     27  C   UNL     1       5.007  -3.511  11.838  0.00  0.00    +0.277 C 
ENDBRANCH  24  26
ENDBRANCH  16  19
ENDBRANCH   7  13
BRANCH   1  28
ATOM     28  S   UNL     1      -0.039   1.657   0.027  0.00  0.00    +0.074 S 
ATOM     29  O   UNL     1      -0.608   2.065  -1.210  0.00  0.00    -0.150 OA
ATOM     30  O   UNL     1      -0.588   2.038   1.281  0.00  0.00    -0.150 OA
BRANCH  28  35
ATOM     31  C   UNL     1       5.686   3.562   0.003  0.00  0.00    +0.044 C 
ATOM     32  C   UNL     1       4.256   3.086   0.009  0.00  0.00    -0.050 A 
ATOM     33  C   UNL     1       3.591   2.880  -1.186  0.00  0.00    +0.005 A 
ATOM     34  C   UNL     1       2.280   2.444  -1.180  0.00  0.00    +0.029 A 
ATOM     35  C   UNL     1       1.633   2.213   0.020  0.00  0.00    +0.109 A 
ATOM     36  C   UNL     1       2.297   2.423   1.214  0.00  0.00    +0.029 A 
ATOM     37  C   UNL     1       3.610   2.855   1.208  0.00  0.00    +0.005 A 
ENDBRANCH  28  35
ENDBRANCH   1  28
TORSDOF 5
