REMARK  Name = ZINC39964317
REMARK  11 active torsions:
REMARK  status: ('A' for Active; 'I' for Inactive)
REMARK    1  A    between atoms: C_1  and  C_2
REMARK    2  A    between atoms: C_2  and  C_3
REMARK    3  A    between atoms: C_3  and  C_4
REMARK    4  A    between atoms: C_6  and  C_18
REMARK    5  A    between atoms: C_8  and  C_16
REMARK    6  A    between atoms: C_9  and  N_15
REMARK    7  A    between atoms: C_22  and  O_33
REMARK    8  A    between atoms: C_23  and  O_24
REMARK    9  A    between atoms: O_24  and  C_25
REMARK   10  A    between atoms: C_25  and  C_26
REMARK   11  A    between atoms: O_33  and  C_34
REMARK                            x       y       z     vdW  Elec       q    Type
REMARK                         _______ _______ _______ _____ _____    ______ ____
ROOT
ATOM      1  C   UNL     1      -1.912  -1.844   0.157  0.00  0.00    +0.069 C 
ATOM      2  C   UNL     1      -1.843  -2.594   1.229  0.00  0.00    +0.030 C 
ATOM      3  C   UNL     1      -1.658  -2.297   2.692  0.00  0.00    +0.101 C 
ATOM      4  C   UNL     1      -0.678  -3.339   3.199  0.00  0.00    +0.098 C 
ATOM      5  C   UNL     1      -0.297  -4.384   2.435  0.00  0.00    +0.195 C 
ATOM      6  O   UNL     1      -0.679  -4.638   1.171  0.00  0.00    -0.448 OA
ATOM      7  C   UNL     1      -1.892  -4.033   0.714  0.00  0.00    +0.343 C 
ATOM      8  N   UNL     1      -1.900  -3.835  -0.739  0.00  0.00    -0.138 NA
ATOM      9  N   UNL     1      -1.939  -2.618  -0.959  0.00  0.00    -0.155 NA
ENDROOT
BRANCH   3  10
ATOM     10  C   UNL     1      -1.091  -0.913   2.875  0.00  0.00    +0.010 A 
ATOM     11  C   UNL     1       0.188  -0.625   2.434  0.00  0.00    +0.008 A 
ATOM     12  C   UNL     1       0.711   0.643   2.600  0.00  0.00    +0.004 A 
ATOM     13  C   UNL     1      -0.042   1.631   3.208  0.00  0.00    +0.049 A 
ATOM     14  C   UNL     1      -1.324   1.350   3.652  0.00  0.00    +0.162 A 
ATOM     15  C   UNL     1      -1.853   0.074   3.479  0.00  0.00    +0.166 A 
BRANCH  14  16
ATOM     16  O   UNL     1      -2.066   2.320   4.250  0.00  0.00    -0.491 OA
ATOM     17  C   UNL     1      -1.460   3.607   4.388  0.00  0.00    +0.277 C 
ENDBRANCH  14  16
BRANCH  15  18
ATOM     18  O   UNL     1      -3.113  -0.205   3.908  0.00  0.00    -0.483 OA
BRANCH  18  19
ATOM     19  C   UNL     1      -3.252  -0.677   5.250  0.00  0.00    +0.264 C 
BRANCH  19  20
ATOM     20  C   UNL     1      -4.707  -0.931   5.545  0.00  0.00    -0.010 A 
ATOM     21  C   UNL     1      -5.495   0.081   6.059  0.00  0.00    +0.008 A 
ATOM     22  C   UNL     1      -6.830  -0.151   6.330  0.00  0.00    +0.015 A 
ATOM     23  C   UNL     1      -7.379  -1.397   6.085  0.00  0.00    +0.018 A 
ATOM     24  C   UNL     1      -6.590  -2.410   5.570  0.00  0.00    +0.015 A 
ATOM     25  C   UNL     1      -5.256  -2.176   5.295  0.00  0.00    +0.008 A 
ATOM     26 BR   UNL     1      -9.206  -1.716   6.455  0.00  0.00    -0.050 Br
ENDBRANCH  19  20
ENDBRANCH  18  19
ENDBRANCH  15  18
ENDBRANCH   3  10
BRANCH   5  27
ATOM     27  N   UNL     1       0.570  -5.281   3.007  0.00  0.00    -0.329 N 
ATOM     28  H   UNL     1       0.878  -5.145   3.917  0.00  0.00    +0.145 HD
ATOM     29  H   UNL     1       0.876  -6.050   2.502  0.00  0.00    +0.145 HD
ENDBRANCH   5  27
BRANCH   4  30
ATOM     30  C   UNL     1      -0.143  -3.210   4.521  0.00  0.00    +0.101 C 
ATOM     31  N   UNL     1       0.281  -3.107   5.570  0.00  0.00    -0.191 NA
ENDBRANCH   4  30
BRANCH   1  32
ATOM     32  C   UNL     1      -1.960  -0.338   0.161  0.00  0.00    +0.057 C 
BRANCH  32  34
ATOM     33  C   UNL     1      -3.463   1.651   0.319  0.00  0.00    +0.004 C 
ATOM     34  C   UNL     1      -3.417   0.126   0.207  0.00  0.00    +0.003 C 
ENDBRANCH  32  34
ENDBRANCH   1  32
TORSDOF 9
