REMARK  Name = ZINC14160370
REMARK  9 active torsions:
REMARK  status: ('A' for Active; 'I' for Inactive)
REMARK    1  A    between atoms: C_1  and  C_2
REMARK    2  A    between atoms: C_4  and  C_35
REMARK    3  A    between atoms: N_10  and  C_11
REMARK    4  A    between atoms: C_11  and  N_13
REMARK    5  A    between atoms: N_13  and  C_14
REMARK    6  A    between atoms: C_18  and  C_21
REMARK    7  A    between atoms: C_21  and  C_22
REMARK    8  A    between atoms: C_21  and  C_28
REMARK    9  A    between atoms: C_21  and  O_34
REMARK                            x       y       z     vdW  Elec       q    Type
REMARK                         _______ _______ _______ _____ _____    ______ ____
ROOT
ATOM      1  C   UNL     1      -3.800  -3.924  -2.954  0.00  0.00    +0.066 C 
ATOM      2  C   UNL     1      -3.196  -2.619  -3.406  0.00  0.00    +0.044 A 
ATOM      3  C   UNL     1      -3.508  -2.097  -4.652  0.00  0.00    +0.046 A 
ATOM      4  C   UNL     1      -2.931  -0.894  -5.029  0.00  0.00    +0.044 A 
ATOM      5  N   UNL     1      -2.105  -0.285  -4.194  0.00  0.00    -0.219 NA
ATOM      6  C   UNL     1      -1.828  -0.812  -3.010  0.00  0.00    +0.222 A 
ATOM      7  N   UNL     1      -2.359  -1.961  -2.622  0.00  0.00    -0.219 NA
ATOM      8  N   UNL     1      -0.957  -0.146  -2.159  0.00  0.00    -0.258 N 
ATOM      9  C   UNL     1      -0.659  -0.675  -0.933  0.00  0.00    +0.180 C 
ATOM     10  N   UNL     1      -1.117  -1.870  -0.600  0.00  0.00    -0.164 NA
ATOM     11  N   UNL     1       0.110   0.030  -0.053  0.00  0.00    -0.305 N 
ATOM     12  C   UNL     1      -0.043   1.486   0.076  0.00  0.00    +0.108 C 
ATOM     13  C   UNL     1       1.327   2.145  -0.112  0.00  0.00    +0.026 C 
ATOM     14  C   UNL     1       2.324   1.528   0.872  0.00  0.00    +0.033 C 
ATOM     15  C   UNL     1       2.465   0.031   0.587  0.00  0.00    +0.026 C 
ATOM     16  C   UNL     1       1.108  -0.652   0.782  0.00  0.00    +0.108 C 
ATOM     17  C   UNL     1      -3.240  -0.288  -6.373  0.00  0.00    +0.066 C 
ATOM     18  H   UNL     1      -0.558   0.695  -2.434  0.00  0.00    +0.157 HD
ENDROOT
BRANCH  10  19
ATOM     19  C   UNL     1      -0.967  -2.320   0.654  0.00  0.00    +0.157 C 
ATOM     20  S   UNL     1      -1.563  -1.402   1.970  0.00  0.00    -0.017 S 
BRANCH  19  21
ATOM     21  N   UNL     1      -0.347  -3.495   0.878  0.00  0.00    -0.328 N 
ATOM     22  C   UNL     1      -0.182  -3.987   2.248  0.00  0.00    +0.127 C 
ATOM     23  H   UNL     1      -0.009  -4.015   0.133  0.00  0.00    +0.147 HD
ENDBRANCH  19  21
ENDBRANCH  10  19
BRANCH  14  24
ATOM     24  C   UNL     1       3.685   2.208   0.711  0.00  0.00    +0.119 C 
BRANCH  24  25
ATOM     25  C   UNL     1       3.546   3.682   0.991  0.00  0.00    -0.011 A 
ATOM     26  C   UNL     1       2.585   4.130   1.878  0.00  0.00    +0.007 A 
ATOM     27  C   UNL     1       2.461   5.481   2.139  0.00  0.00    +0.000 A 
ATOM     28  C   UNL     1       3.291   6.387   1.506  0.00  0.00    +0.000 A 
ATOM     29  C   UNL     1       4.249   5.940   0.615  0.00  0.00    +0.000 A 
ATOM     30  C   UNL     1       4.377   4.588   0.357  0.00  0.00    +0.007 A 
ENDBRANCH  24  25
BRANCH  24  31
ATOM     31  C   UNL     1       4.667   1.603   1.680  0.00  0.00    -0.011 A 
ATOM     32  C   UNL     1       4.224   1.101   2.889  0.00  0.00    +0.007 A 
ATOM     33  C   UNL     1       5.125   0.541   3.776  0.00  0.00    +0.000 A 
ATOM     34  C   UNL     1       6.469   0.492   3.458  0.00  0.00    +0.000 A 
ATOM     35  C   UNL     1       6.913   0.999   2.251  0.00  0.00    +0.000 A 
ATOM     36  C   UNL     1       6.012   1.554   1.362  0.00  0.00    +0.007 A 
ENDBRANCH  24  31
BRANCH  24  37
ATOM     37  O   UNL     1       4.156   2.020  -0.625  0.00  0.00    -0.379 OA
ATOM     38  H   UNL     1       3.572   2.386  -1.304  0.00  0.00    +0.211 HD
ENDBRANCH  24  37
ENDBRANCH  14  24
TORSDOF 6
