REMARK  Name = ZINC13598343
REMARK  6 active torsions:
REMARK  status: ('A' for Active; 'I' for Inactive)
REMARK    1  A    between atoms: C_1  and  C_2
REMARK    2  A    between atoms: C_3  and  C_23
REMARK    3  A    between atoms: C_9  and  C_11
REMARK    4  A    between atoms: C_11  and  C_13
REMARK    5  A    between atoms: C_11  and  S_14
REMARK    6  A    between atoms: S_14  and  C_15
REMARK                            x       y       z     vdW  Elec       q    Type
REMARK                         _______ _______ _______ _____ _____    ______ ____
ROOT
ATOM      1  C   UNL     1      -0.018   1.503   0.010  0.00  0.00    +0.045 C 
ATOM      2  C   UNL     1       0.002  -0.004   0.002  0.00  0.00    -0.026 A 
ATOM      3  C   UNL     1       0.006  -0.677  -1.160  0.00  0.00    -0.008 A 
ATOM      4  S   UNL     1       0.032  -2.385  -0.648  0.00  0.00    -0.073 S 
ATOM      5  C   UNL     1       0.037  -2.144   1.110  0.00  0.00    +0.116 A 
ATOM      6  C   UNL     1       0.024  -0.745   1.250  0.00  0.00    +0.075 A 
ATOM      7  C   UNL     1       0.029  -0.257   2.597  0.00  0.00    +0.260 A 
ATOM      8  N   UNL     1       0.051  -1.142   3.611  0.00  0.00    -0.309 N 
ATOM      9  C   UNL     1       0.067  -2.480   3.380  0.00  0.00    +0.124 A 
ATOM     10  N   UNL     1       0.054  -2.956   2.163  0.00  0.00    -0.225 NA
ATOM     11  O   UNL     1       0.015   0.942   2.821  0.00  0.00    -0.267 OA
ATOM     12  C   UNL     1      -0.009  -0.122  -2.561  0.00  0.00    +0.052 C 
ATOM     13  H   UNL     1       0.055  -0.817   4.525  0.00  0.00    +0.170 HD
ENDROOT
BRANCH   9  14
ATOM     14  C   UNL     1       0.091  -3.432   4.547  0.00  0.00    +0.117 C 
ATOM     15  C   UNL     1       1.537  -3.832   4.849  0.00  0.00    +0.027 C 
BRANCH  14  16
ATOM     16  S   UNL     1      -0.629  -2.623   6.002  0.00  0.00    -0.073 S 
BRANCH  16  17
ATOM     17  C   UNL     1      -0.665  -3.894   7.222  0.00  0.00    +0.211 A 
ATOM     18  N   UNL     1      -1.126  -3.760   8.471  0.00  0.00    -0.188 NA
ATOM     19  C   UNL     1      -1.005  -4.903   9.112  0.00  0.00    +0.209 A 
ATOM     20  N   UNL     1      -0.455  -5.799   8.267  0.00  0.00    -0.246 N 
ATOM     21  H   UNL     1      -0.246  -6.727   8.459  0.00  0.00    +0.192 HD
ATOM     22  N   UNL     1      -0.249  -5.126   7.052  0.00  0.00    -0.144 NA
ATOM     23  N   UNL     1      -1.376  -5.143  10.423  0.00  0.00    -0.328 N 
ATOM     24  H   UNL     1      -1.765  -4.432  10.955  0.00  0.00    +0.145 HD
ATOM     25  H   UNL     1      -1.246  -6.023  10.810  0.00  0.00    +0.145 HD
ENDBRANCH  16  17
ENDBRANCH  14  16
ENDBRANCH   9  14
TORSDOF 3
