REMARK  Name = ZINC12556453
REMARK  13 active torsions:
REMARK  status: ('A' for Active; 'I' for Inactive)
REMARK    1  A    between atoms: C_1  and  C_2
REMARK    2  A    between atoms: C_5  and  S_8
REMARK    3  A    between atoms: S_8  and  N_11
REMARK    4  A    between atoms: N_11  and  C_12
REMARK    5  A    between atoms: C_12  and  C_14
REMARK    6  A    between atoms: C_12  and  C_18
REMARK    7  A    between atoms: C_14  and  C_15
REMARK    8  A    between atoms: C_15  and  C_16
REMARK    9  A    between atoms: C_15  and  C_17
REMARK   10  A    between atoms: N_20  and  C_21
REMARK   11  A    between atoms: C_24  and  N_28
REMARK   12  A    between atoms: C_26  and  C_27
REMARK   13  A    between atoms: C_33  and  N_69
REMARK                            x       y       z     vdW  Elec       q    Type
REMARK                         _______ _______ _______ _____ _____    ______ ____
ROOT
ATOM      1  C   UNL     1      -3.663   4.587  -6.814  0.00  0.00    +0.236 C 
ATOM      2  O   UNL     1      -4.189   3.558  -6.447  0.00  0.00    -0.274 OA
ATOM      3  N   UNL     1      -3.029   5.375  -5.922  0.00  0.00    -0.284 N 
ATOM      4  H   UNL     1      -2.678   6.236  -6.199  0.00  0.00    +0.155 HD
ENDROOT
BRANCH   3   5
ATOM      5  C   UNL     1      -2.876   4.949  -4.596  0.00  0.00    +0.036 A 
ATOM      6  C   UNL     1      -2.948   3.597  -4.288  0.00  0.00    +0.025 A 
ATOM      7  C   UNL     1      -2.792   3.177  -2.982  0.00  0.00    +0.025 A 
ATOM      8  C   UNL     1      -2.575   4.109  -1.974  0.00  0.00    +0.030 A 
ATOM      9  C   UNL     1      -2.502   5.461  -2.283  0.00  0.00    +0.028 A 
ATOM     10  C   UNL     1      -2.653   5.880  -3.590  0.00  0.00    -0.028 A 
ATOM     11  C   UNL     1      -2.574   7.347  -3.925  0.00  0.00    +0.046 C 
BRANCH   8  12
ATOM     12  N   UNL     1      -2.422   3.684  -0.650  0.00  0.00    -0.333 N 
ATOM     13  C   UNL     1      -2.534   2.222  -0.550  0.00  0.00    +0.086 C 
ATOM     14  C   UNL     1      -2.283   1.792   0.898  0.00  0.00    -0.060 C 
ATOM     15  C   UNL     1      -3.145   3.915   1.677  0.00  0.00    -0.060 C 
ATOM     16  C   UNL     1      -3.396   4.345   0.230  0.00  0.00    +0.086 C 
ATOM     17  C   UNL     1      -3.096   2.007   3.169  0.00  0.00    -0.096 C 
ATOM     18  N   UNL     1      -3.282   2.446   1.769  0.00  0.00    +0.380 N 
ATOM     19  H   UNL     1      -4.223   2.178   1.457  0.00  0.00    -0.082 HD
ENDBRANCH   8  12
ENDBRANCH   3   5
BRANCH   1  20
ATOM     20  C   UNL     1      -3.718   4.986  -8.266  0.00  0.00    +0.163 C 
BRANCH  20  21
ATOM     21  N   UNL     1      -4.457   3.973  -9.023  0.00  0.00    -0.178 NA
ATOM     22  H   UNL     1      -3.994   3.195  -9.371  0.00  0.00    +0.149 HD
BRANCH  21  23
ATOM     23  S   UNL     1      -6.082   4.156  -9.285  0.00  0.00    +0.059 S 
ATOM     24  O   UNL     1      -6.502   3.026 -10.037  0.00  0.00    -0.153 OA
ATOM     25  O   UNL     1      -6.660   4.494  -8.031  0.00  0.00    -0.153 OA
BRANCH  23  30
ATOM     26  C   UNL     1      -6.783   8.966 -12.860  0.00  0.00    +0.044 C 
ATOM     27  C   UNL     1      -6.608   7.764 -11.967  0.00  0.00    -0.050 A 
ATOM     28  C   UNL     1      -6.484   6.504 -12.520  0.00  0.00    +0.005 A 
ATOM     29  C   UNL     1      -6.323   5.402 -11.701  0.00  0.00    +0.029 A 
ATOM     30  C   UNL     1      -6.287   5.561 -10.329  0.00  0.00    +0.105 A 
ATOM     31  C   UNL     1      -6.416   6.820  -9.775  0.00  0.00    +0.029 A 
ATOM     32  C   UNL     1      -6.572   7.923 -10.594  0.00  0.00    +0.005 A 
ENDBRANCH  23  30
ENDBRANCH  21  23
ENDBRANCH  20  21
BRANCH  20  33
ATOM     33  C   UNL     1      -2.296   5.099  -8.819  0.00  0.00    +0.032 C 
BRANCH  33  34
ATOM     34  C   UNL     1      -2.348   5.616 -10.258  0.00  0.00    -0.015 C 
ATOM     35  C   UNL     1      -2.871   7.053 -10.265  0.00  0.00    +0.007 C 
ATOM     36  C   UNL     1      -0.943   5.582 -10.863  0.00  0.00    +0.007 C 
ENDBRANCH  33  34
ENDBRANCH  20  33
ENDBRANCH   1  20
TORSDOF 8
