REMARK  Name = ZINC13361287
REMARK  8 active torsions:
REMARK  status: ('A' for Active; 'I' for Inactive)
REMARK    1  A    between atoms: C_1  and  C_2
REMARK    2  A    between atoms: C_9  and  C_11
REMARK    3  A    between atoms: N_13  and  N_14
REMARK    4  A    between atoms: N_14  and  S_15
REMARK    5  A    between atoms: S_15  and  C_18
REMARK    6  A    between atoms: C_20  and  C_26
REMARK    7  A    between atoms: C_23  and  O_24
REMARK    8  A    between atoms: O_24  and  C_25
REMARK                            x       y       z     vdW  Elec       q    Type
REMARK                         _______ _______ _______ _____ _____    ______ ____
ROOT
ATOM      1  N   UNL     1       3.447   1.274  -1.458  0.00  0.00    -0.108 NA
ATOM      2  H   UNL     1       3.665   0.561  -2.079  0.00  0.00    +0.172 HD
ENDROOT
BRANCH   1   5
ATOM      3  C   UNL     1       5.024   2.937  -2.101  0.00  0.00    +0.265 C 
ATOM      4  O   UNL     1       5.895   2.088  -2.113  0.00  0.00    -0.268 OA
ATOM      5  N   UNL     1       3.759   2.601  -1.779  0.00  0.00    -0.227 N 
ATOM      6  H   UNL     1       3.065   3.279  -1.769  0.00  0.00    +0.171 HD
BRANCH   3  14
ATOM      7  C   UNL     1       8.948   9.190  -3.799  0.00  0.00    +0.008 C 
ATOM      8  C   UNL     1       7.733   8.446  -3.241  0.00  0.00    -0.009 C 
ATOM      9  C   UNL     1       6.468   8.934  -3.952  0.00  0.00    +0.009 C 
ATOM     10  C   UNL     1       5.241   8.388  -3.206  0.00  0.00    +0.043 C 
ATOM     11  C   UNL     1       5.449   6.925  -2.963  0.00  0.00    -0.006 A 
ATOM     12  C   UNL     1       6.621   6.232  -3.065  0.00  0.00    -0.036 A 
ATOM     13  C   UNL     1       6.569   4.875  -2.791  0.00  0.00    +0.024 A 
ATOM     14  C   UNL     1       5.350   4.326  -2.437  0.00  0.00    +0.076 A 
ATOM     15  S   UNL     1       4.277   5.751  -2.503  0.00  0.00    -0.088 S 
ATOM     16  C   UNL     1       7.911   6.944  -3.465  0.00  0.00    +0.039 C 
ENDBRANCH   3  14
ENDBRANCH   1   5
BRANCH   1  17
ATOM     17  S   UNL     1       2.708   0.921  -0.019  0.00  0.00    +0.077 S 
ATOM     18  O   UNL     1       3.509   1.499   1.002  0.00  0.00    -0.152 OA
ATOM     19  O   UNL     1       2.397  -0.465  -0.051  0.00  0.00    -0.152 OA
BRANCH  17  20
ATOM     20  C   UNL     1       1.170   1.782   0.001  0.00  0.00    +0.149 A 
ATOM     21  C   UNL     1      -0.013   1.076   0.008  0.00  0.00    +0.047 A 
ATOM     22  C   UNL     1      -1.232   1.759   0.017  0.00  0.00    +0.065 A 
ATOM     23  C   UNL     1      -1.245   3.157   0.031  0.00  0.00    +0.019 A 
ATOM     24  C   UNL     1      -0.059   3.855   0.023  0.00  0.00    +0.048 A 
ATOM     25  C   UNL     1       1.152   3.171   0.008  0.00  0.00    +0.146 A 
BRANCH  22  26
ATOM     26  C   UNL     1      -2.501   1.008   0.019  0.00  0.00    +0.387 C 
ATOM     27  O   UNL     1      -2.487  -0.207   0.012  0.00  0.00    -0.241 OA
ATOM     28  O   UNL     1      -3.675   1.668   0.028  0.00  0.00    -0.241 OA
ENDBRANCH  22  26
BRANCH  25  29
ATOM     29  O   UNL     1       2.320   3.863   0.000  0.00  0.00    -0.493 OA
ATOM     30  C   UNL     1       2.229   5.289   0.008  0.00  0.00    +0.277 C 
ENDBRANCH  25  29
ENDBRANCH  17  20
ENDBRANCH   1  17
TORSDOF 6
