REMARK  Name = ZINC09739238
REMARK  8 active torsions:
REMARK  status: ('A' for Active; 'I' for Inactive)
REMARK    1  A    between atoms: C_1  and  C_2
REMARK    2  A    between atoms: C_5  and  S_8
REMARK    3  A    between atoms: S_8  and  N_11
REMARK    4  A    between atoms: C_18  and  N_21
REMARK    5  A    between atoms: C_22  and  C_24
REMARK    6  A    between atoms: N_26  and  C_27
REMARK    7  A    between atoms: C_30  and  C_34
REMARK    8  A    between atoms: C_32  and  C_33
REMARK                            x       y       z     vdW  Elec       q    Type
REMARK                         _______ _______ _______ _____ _____    ______ ____
ROOT
ATOM      1  N   UNL     1      -0.802   1.682  -1.079  0.00  0.00    -0.203 N 
ATOM      2  C   UNL     1      -0.062   1.172   0.083  0.00  0.00    +0.132 C 
ATOM      3  C   UNL     1      -0.680   1.790   1.344  0.00  0.00    +0.025 C 
ATOM      4  C   UNL     1      -0.492   3.306   1.294  0.00  0.00    +0.038 C 
ATOM      5  C   UNL     1      -0.976   3.856  -0.022  0.00  0.00    -0.025 A 
ATOM      6  C   UNL     1      -1.107   3.047  -1.141  0.00  0.00    +0.056 A 
ATOM      7  C   UNL     1      -1.545   3.586  -2.344  0.00  0.00    +0.048 A 
ATOM      8  C   UNL     1      -1.856   4.936  -2.425  0.00  0.00    +0.036 A 
ATOM      9  C   UNL     1      -1.728   5.742  -1.301  0.00  0.00    +0.024 A 
ATOM     10  C   UNL     1      -1.290   5.203  -0.109  0.00  0.00    +0.007 A 
ENDROOT
BRANCH   8  11
ATOM     11  N   UNL     1      -2.297   5.482  -3.634  0.00  0.00    -0.278 N 
ATOM     12  C   UNL     1      -3.228   6.455  -3.634  0.00  0.00    +0.303 C 
ATOM     13  O   UNL     1      -3.623   6.918  -2.583  0.00  0.00    -0.265 OA
ATOM     14  H   UNL     1      -1.932   5.160  -4.473  0.00  0.00    +0.155 HD
BRANCH  12  15
ATOM     15  C   UNL     1      -3.775   6.965  -4.925  0.00  0.00    +0.303 C 
ATOM     16  O   UNL     1      -3.381   6.503  -5.976  0.00  0.00    -0.265 OA
ATOM     17  N   UNL     1      -4.707   7.939  -4.925  0.00  0.00    -0.278 N 
ATOM     18  H   UNL     1      -5.080   8.253  -4.086  0.00  0.00    +0.155 HD
BRANCH  17  19
ATOM     19  C   UNL     1      -5.136   8.497  -6.132  0.00  0.00    +0.037 A 
ATOM     20  C   UNL     1      -4.349   8.379  -7.272  0.00  0.00    +0.024 A 
ATOM     21  C   UNL     1      -4.776   8.930  -8.463  0.00  0.00    +0.005 A 
ATOM     22  C   UNL     1      -5.985   9.599  -8.524  0.00  0.00    -0.050 A 
ATOM     23  C   UNL     1      -6.770   9.719  -7.392  0.00  0.00    +0.008 A 
ATOM     24  C   UNL     1      -6.351   9.165  -6.198  0.00  0.00    -0.029 A 
ATOM     25  C   UNL     1      -7.210   9.291  -4.966  0.00  0.00    +0.045 C 
ATOM     26  C   UNL     1      -6.447  10.200  -9.826  0.00  0.00    +0.044 C 
ENDBRANCH  17  19
ENDBRANCH  12  15
ENDBRANCH   8  11
BRANCH   1  27
ATOM     27  S   UNL     1      -1.269   0.659  -2.294  0.00  0.00    +0.075 S 
ATOM     28  O   UNL     1      -1.224  -0.656  -1.758  0.00  0.00    -0.150 OA
ATOM     29  O   UNL     1      -2.450   1.212  -2.858  0.00  0.00    -0.150 OA
BRANCH  27  34
ATOM     30  C   UNL     1       2.973   0.923  -6.577  0.00  0.00    +0.044 C 
ATOM     31  C   UNL     1       1.913   0.857  -5.507  0.00  0.00    -0.050 A 
ATOM     32  C   UNL     1       2.017  -0.070  -4.487  0.00  0.00    +0.005 A 
ATOM     33  C   UNL     1       1.045  -0.131  -3.506  0.00  0.00    +0.029 A 
ATOM     34  C   UNL     1      -0.030   0.737  -3.545  0.00  0.00    +0.109 A 
ATOM     35  C   UNL     1      -0.137   1.661  -4.567  0.00  0.00    +0.029 A 
ATOM     36  C   UNL     1       0.838   1.724  -5.546  0.00  0.00    +0.005 A 
ENDBRANCH  27  34
ENDBRANCH   1  27
TORSDOF 5
