REMARK  Name = ZINC33018421
REMARK  8 active torsions:
REMARK  status: ('A' for Active; 'I' for Inactive)
REMARK    1  A    between atoms: C_1  and  C_2
REMARK    2  A    between atoms: C_5  and  C_33
REMARK    3  A    between atoms: C_6  and  N_8
REMARK    4  A    between atoms: N_11  and  C_12
REMARK    5  A    between atoms: C_19  and  S_21
REMARK    6  A    between atoms: S_21  and  C_22
REMARK    7  A    between atoms: C_22  and  C_23
REMARK    8  A    between atoms: N_25  and  C_26
REMARK                            x       y       z     vdW  Elec       q    Type
REMARK                         _______ _______ _______ _____ _____    ______ ____
ROOT
ATOM      1  C   UNL     1       1.105  -1.370  -0.311  0.00  0.00    +0.036 A 
ATOM      2  C   UNL     1       0.835  -0.004  -0.348  0.00  0.00    +0.025 A 
ATOM      3  C   UNL     1       1.842   0.924  -0.306  0.00  0.00    +0.031 A 
ATOM      4  C   UNL     1       3.195   0.523  -0.222  0.00  0.00    +0.080 A 
ATOM      5  C   UNL     1       3.434  -0.869  -0.186  0.00  0.00    +0.042 A 
ATOM      6  C   UNL     1       2.424  -1.797  -0.228  0.00  0.00    +0.040 A 
ATOM      7  S   UNL     1       5.207  -0.947  -0.084  0.00  0.00    -0.061 S 
ATOM      8  C   UNL     1       5.510   0.814  -0.096  0.00  0.00    +0.136 A 
ATOM      9  N   UNL     1       4.295   1.308  -0.173  0.00  0.00    -0.233 NA
ENDROOT
BRANCH   1  13
ATOM     10  N   UNL     1      -0.805  -4.330  -1.122  0.00  0.00    -0.269 N 
ATOM     11  C   UNL     1       0.229  -3.474  -0.998  0.00  0.00    +0.308 C 
ATOM     12  O   UNL     1       1.314  -3.761  -1.465  0.00  0.00    -0.252 OA
ATOM     13  N   UNL     1       0.059  -2.301  -0.356  0.00  0.00    -0.269 N 
ATOM     14  H   UNL     1      -1.805  -4.040  -0.767  0.00  0.00    +0.156 HD
ATOM     15  H   UNL     1      -0.900  -2.075   0.133  0.00  0.00    +0.156 HD
BRANCH  10  21
ATOM     16  C   UNL     1       1.487  -7.148  -4.435  0.00  0.00    +0.044 C 
ATOM     17  C   UNL     1       0.499  -6.982  -3.310  0.00  0.00    -0.049 A 
ATOM     18  C   UNL     1      -0.213  -8.075  -2.849  0.00  0.00    +0.004 A 
ATOM     19  C   UNL     1      -1.121  -7.927  -1.817  0.00  0.00    +0.005 A 
ATOM     20  C   UNL     1      -1.316  -6.688  -1.239  0.00  0.00    -0.029 A 
ATOM     21  C   UNL     1      -0.607  -5.588  -1.702  0.00  0.00    +0.038 A 
ATOM     22  C   UNL     1       0.305  -5.740  -2.739  0.00  0.00    +0.027 A 
ATOM     23  C   UNL     1      -2.301  -6.529  -0.110  0.00  0.00    +0.045 C 
ENDBRANCH  10  21
ENDBRANCH   1  13
BRANCH   8  24
ATOM     24  S   UNL     1       7.048   1.671  -0.023  0.00  0.00    -0.089 S 
BRANCH  24  25
ATOM     25  C   UNL     1       6.459   3.381  -0.084  0.00  0.00    +0.172 C 
BRANCH  25  26
ATOM     26  C   UNL     1       7.636   4.320  -0.033  0.00  0.00    +0.227 C 
ATOM     27  O   UNL     1       8.763   3.877   0.039  0.00  0.00    -0.275 OA
ATOM     28  N   UNL     1       7.437   5.653  -0.066  0.00  0.00    -0.285 N 
ATOM     29  H   UNL     1       6.415   6.057  -0.042  0.00  0.00    +0.155 HD
BRANCH  28  30
ATOM     30  C   UNL     1       8.533   6.523  -0.132  0.00  0.00    +0.034 A 
ATOM     31  C   UNL     1       8.484   7.751   0.513  0.00  0.00    +0.026 A 
ATOM     32  C   UNL     1       9.568   8.605   0.452  0.00  0.00    +0.040 A 
ATOM     33  C   UNL     1      10.697   8.242  -0.263  0.00  0.00    +0.124 A 
ATOM     34  C   UNL     1      10.745   7.020  -0.912  0.00  0.00    +0.040 A 
ATOM     35  C   UNL     1       9.666   6.161  -0.848  0.00  0.00    +0.026 A 
ATOM     36  F   UNL     1      11.754   9.082  -0.326  0.00  0.00    -0.205 F 
ENDBRANCH  28  30
ENDBRANCH  25  26
ENDBRANCH  24  25
ENDBRANCH   8  24
TORSDOF 6
