REMARK  Name = ZINC63571860
REMARK  7 active torsions:
REMARK  status: ('A' for Active; 'I' for Inactive)
REMARK    1  A    between atoms: C_1  and  C_2
REMARK    2  A    between atoms: C_2  and  O_3
REMARK    3  A    between atoms: O_3  and  C_4
REMARK    4  A    between atoms: C_4  and  C_6
REMARK    5  A    between atoms: C_9  and  C_12
REMARK    6  A    between atoms: C_12  and  N_13
REMARK    7  A    between atoms: C_29  and  C_31
REMARK                            x       y       z     vdW  Elec       q    Type
REMARK                         _______ _______ _______ _____ _____    ______ ____
ROOT
ATOM      1  N   UNL     1      -2.008  -6.220   3.476  0.00  0.00    -0.299 N 
ATOM      2  C   UNL     1      -1.419  -6.713   4.583  0.00  0.00    +0.303 C 
ATOM      3  O   UNL     1      -0.878  -5.960   5.370  0.00  0.00    -0.253 OA
ATOM      4  N   UNL     1      -1.428  -8.040   4.819  0.00  0.00    -0.276 N 
ATOM      5  C   UNL     1      -1.973  -8.952   3.807  0.00  0.00    +0.114 C 
ATOM      6  C   UNL     1      -0.894  -9.974   3.405  0.00  0.00    +0.052 C 
ATOM      7  C   UNL     1      -0.265 -10.466   4.685  0.00  0.00    -0.035 C 
ATOM      8  C   UNL     1      -0.058 -11.693   5.146  0.00  0.00    -0.001 A 
ATOM      9  C   UNL     1      -0.263 -13.016   4.536  0.00  0.00    +0.010 A 
ATOM     10  C   UNL     1       0.042 -14.089   5.314  0.00  0.00    +0.001 A 
ATOM     11  C   UNL     1       0.524 -13.978   6.622  0.00  0.00    +0.002 A 
ATOM     12  C   UNL     1       0.750 -12.802   7.259  0.00  0.00    +0.026 A 
ATOM     13  C   UNL     1       0.475 -11.602   6.540  0.00  0.00    +0.043 A 
ATOM     14  N   UNL     1       0.620 -10.359   6.891  0.00  0.00    -0.375 N 
ATOM     15  C   UNL     1       0.259  -9.513   5.753  0.00  0.00    +0.131 C 
ATOM     16  C   UNL     1      -0.887  -8.559   6.085  0.00  0.00    +0.134 C 
ATOM     17  H   UNL     1      -2.375  -6.825   2.812  0.00  0.00    +0.150 HD
ATOM     18  H   UNL     1       0.916 -10.045   7.760  0.00  0.00    +0.160 HD
ENDROOT
BRANCH  16  19
ATOM     19  C   UNL     1      -1.963  -9.300   6.834  0.00  0.00    -0.025 A 
ATOM     20  C   UNL     1      -2.302  -8.914   8.118  0.00  0.00    +0.008 A 
ATOM     21  C   UNL     1      -3.290  -9.593   8.806  0.00  0.00    +0.038 A 
ATOM     22  C   UNL     1      -3.939 -10.661   8.210  0.00  0.00    +0.123 A 
ATOM     23  C   UNL     1      -3.599 -11.047   6.925  0.00  0.00    +0.038 A 
ATOM     24  C   UNL     1      -2.615 -10.363   6.236  0.00  0.00    +0.008 A 
ATOM     25  F   UNL     1      -4.904 -11.325   8.882  0.00  0.00    -0.205 F 
ENDBRANCH  16  19
BRANCH   1  26
ATOM     26  C   UNL     1      -2.093  -4.772   3.274  0.00  0.00    +0.109 C 
BRANCH  26  30
ATOM     27  C   UNL     1      -2.861  -3.204  -0.686  0.00  0.00    +0.098 C 
ATOM     28  C   UNL     1      -3.713  -2.684   0.473  0.00  0.00    +0.015 C 
ATOM     29  C   UNL     1      -3.003  -2.973   1.797  0.00  0.00    +0.006 C 
ATOM     30  C   UNL     1      -2.803  -4.482   1.950  0.00  0.00    +0.006 C 
ATOM     31  C   UNL     1      -1.951  -5.003   0.790  0.00  0.00    +0.006 C 
ATOM     32  C   UNL     1      -2.660  -4.714  -0.534  0.00  0.00    +0.015 C 
BRANCH  27  33
ATOM     33  C   UNL     1      -1.520  -2.516  -0.673  0.00  0.00    +0.310 C 
ATOM     34  O   UNL     1      -0.509  -3.166  -0.555  0.00  0.00    -0.251 OA
BRANCH  33  35
ATOM     35  O   UNL     1      -1.451  -1.181  -0.794  0.00  0.00    -0.465 OA
BRANCH  35  37
ATOM     36  C   UNL     1      -0.268   0.923  -0.922  0.00  0.00    +0.048 C 
ATOM     37  C   UNL     1      -0.147  -0.595  -0.774  0.00  0.00    +0.229 C 
ENDBRANCH  35  37
ENDBRANCH  33  35
ENDBRANCH  27  33
ENDBRANCH  26  30
ENDBRANCH   1  26
TORSDOF 6
