REMARK  Name = ZINC35455854
REMARK  13 active torsions:
REMARK  status: ('A' for Active; 'I' for Inactive)
REMARK    1  A    between atoms: C_1  and  C_2
REMARK    2  A    between atoms: C_2  and  C_3
REMARK    3  A    between atoms: C_3  and  C_5
REMARK    4  A    between atoms: C_3  and  C_6
REMARK    5  A    between atoms: C_6  and  C_8
REMARK    6  A    between atoms: C_6  and  O_29
REMARK    7  A    between atoms: C_8  and  C_9
REMARK    8  A    between atoms: C_8  and  C_10
REMARK    9  A    between atoms: C_8  and  O_28
REMARK   10  A    between atoms: C_11  and  C_12
REMARK   11  A    between atoms: C_18  and  C_26
REMARK   12  A    between atoms: C_18  and  O_27
REMARK   13  A    between atoms: C_19  and  O_25
REMARK                            x       y       z     vdW  Elec       q    Type
REMARK                         _______ _______ _______ _____ _____    ______ ____
ROOT
ATOM      1  C   UNL     1       1.094  -6.144  -3.400  0.00  0.00    +0.121 C 
ATOM      2  C   UNL     1       0.598  -6.819  -4.495  0.00  0.00    +0.049 C 
ATOM      3  C   UNL     1       0.584  -8.218  -4.509  0.00  0.00    -0.032 C 
ATOM      4  C   UNL     1       0.063  -8.897  -5.586  0.00  0.00    +0.053 C 
ATOM      5  C   UNL     1       0.005 -10.289  -5.608  0.00  0.00    +0.190 C 
ATOM      6  O   UNL     1      -0.457 -10.854  -6.581  0.00  0.00    -0.290 OA
ATOM      7  C   UNL     1       0.508 -11.103  -4.445  0.00  0.00    +0.151 C 
ATOM      8  C   UNL     1       0.373 -10.283  -3.157  0.00  0.00    +0.164 C 
ATOM      9  C   UNL     1       1.142  -8.972  -3.327  0.00  0.00    +0.088 C 
ATOM     10  C   UNL     1       0.981  -8.108  -2.073  0.00  0.00    +0.239 C 
ATOM     11  O   UNL     1       1.567  -6.824  -2.330  0.00  0.00    -0.491 OA
ATOM     12  C   UNL     1      -0.319 -12.384  -4.323  0.00  0.00    +0.052 C 
ENDROOT
BRANCH   1  14
ATOM     13  C   UNL     1       1.599  -4.021  -2.343  0.00  0.00    +0.013 C 
ATOM     14  C   UNL     1       1.115  -4.679  -3.398  0.00  0.00    +0.044 C 
BRANCH  13  15
ATOM     15  C   UNL     1       1.620  -2.514  -2.341  0.00  0.00    +0.108 C 
ATOM     16  C   UNL     1       3.062  -2.025  -2.195  0.00  0.00    +0.048 C 
BRANCH  15  17
ATOM     17  O   UNL     1       1.074  -2.028  -3.568  0.00  0.00    -0.382 OA
ATOM     18  H   UNL     1       0.160  -2.300  -3.727  0.00  0.00    +0.211 HD
ENDBRANCH  15  17
BRANCH  15  19
ATOM     19  C   UNL     1       0.784  -1.994  -1.169  0.00  0.00    +0.152 C 
BRANCH  19  20
ATOM     20  C   UNL     1       0.920  -0.473  -1.081  0.00  0.00    +0.017 C 
ATOM     21  C   UNL     1       0.293   0.168  -2.321  0.00  0.00    +0.010 C 
BRANCH  20  23
ATOM     22  C   UNL     1       0.444   1.535   0.328  0.00  0.00    +0.004 C 
ATOM     23  C   UNL     1       0.203   0.032   0.172  0.00  0.00    +0.002 C 
ENDBRANCH  20  23
ENDBRANCH  19  20
BRANCH  19  24
ATOM     24  O   UNL     1      -0.588  -2.338  -1.373  0.00  0.00    -0.388 OA
ATOM     25  H   UNL     1      -0.970  -1.970  -2.182  0.00  0.00    +0.210 HD
ENDBRANCH  19  24
ENDBRANCH  15  19
ENDBRANCH  13  15
ENDBRANCH   1  14
BRANCH   8  26
ATOM     26  O   UNL     1      -1.007 -10.004  -2.909  0.00  0.00    -0.388 OA
ATOM     27  H   UNL     1      -1.555 -10.793  -2.802  0.00  0.00    +0.210 HD
ENDBRANCH   8  26
BRANCH   7  28
ATOM     28  O   UNL     1       1.881 -11.438  -4.655  0.00  0.00    -0.378 OA
ATOM     29  H   UNL     1       2.041 -11.956  -5.455  0.00  0.00    +0.211 HD
ENDBRANCH   7  28
TORSDOF 9
