REMARK  Name = ZINC16974723
REMARK  10 active torsions:
REMARK  status: ('A' for Active; 'I' for Inactive)
REMARK    1  A    between atoms: C_1  and  C_2
REMARK    2  A    between atoms: C_5  and  C_8
REMARK    3  A    between atoms: C_10  and  C_34
REMARK    4  A    between atoms: C_15  and  S_19
REMARK    5  A    between atoms: C_16  and  C_17
REMARK    6  A    between atoms: S_19  and  C_20
REMARK    7  A    between atoms: C_20  and  C_21
REMARK    8  A    between atoms: N_23  and  C_24
REMARK    9  A    between atoms: C_34  and  O_36
REMARK   10  A    between atoms: O_36  and  C_37
REMARK                            x       y       z     vdW  Elec       q    Type
REMARK                         _______ _______ _______ _____ _____    ______ ____
ROOT
ATOM      1  C   UNL     1       1.701  -4.165  -0.948  0.00  0.00    +0.085 C 
ATOM      2  C   UNL     1       1.328  -4.771   0.407  0.00  0.00    +0.200 C 
ATOM      3  C   UNL     1      -0.158  -5.009   0.462  0.00  0.00    +0.262 C 
ATOM      4  O   UNL     1      -0.632  -6.077   1.129  0.00  0.00    -0.270 OA
ATOM      5  N   UNL     1      -0.992  -4.202  -0.122  0.00  0.00    -0.205 NA
ATOM      6  C   UNL     1      -0.571  -3.138  -0.844  0.00  0.00    +0.115 C 
ATOM      7  C   UNL     1       0.738  -3.048  -1.270  0.00  0.00    +0.070 C 
ENDROOT
BRANCH   1  12
ATOM      8  C   UNL     1       7.082  -2.072  -0.710  0.00  0.00    +0.044 C 
ATOM      9  C   UNL     1       5.679  -2.618  -0.772  0.00  0.00    -0.050 A 
ATOM     10  C   UNL     1       4.617  -1.843  -0.345  0.00  0.00    +0.003 A 
ATOM     11  C   UNL     1       3.329  -2.344  -0.402  0.00  0.00    +0.004 A 
ATOM     12  C   UNL     1       3.104  -3.619  -0.886  0.00  0.00    -0.038 A 
ATOM     13  C   UNL     1       4.166  -4.393  -1.314  0.00  0.00    +0.004 A 
ATOM     14  C   UNL     1       5.453  -3.891  -1.261  0.00  0.00    +0.003 A 
ENDBRANCH   1  12
BRANCH   7  15
ATOM     15  C   UNL     1       1.181  -1.904  -2.008  0.00  0.00    +0.098 C 
ATOM     16  N   UNL     1       1.533  -0.996  -2.594  0.00  0.00    -0.191 NA
ENDBRANCH   7  15
BRANCH   2  17
ATOM     17  C   UNL     1       1.724  -3.822   1.508  0.00  0.00    +0.320 C 
ATOM     18  O   UNL     1       0.956  -2.963   1.872  0.00  0.00    -0.250 OA
BRANCH  17  19
ATOM     19  O   UNL     1       2.932  -3.930   2.085  0.00  0.00    -0.467 OA
ATOM     20  C   UNL     1       3.241  -2.998   3.123  0.00  0.00    +0.280 C 
ENDBRANCH  17  19
ENDBRANCH   2  17
BRANCH   6  21
ATOM     21  S   UNL     1      -1.708  -1.854  -1.248  0.00  0.00    -0.095 S 
BRANCH  21  22
ATOM     22  C   UNL     1      -3.268  -2.397  -0.497  0.00  0.00    +0.172 C 
BRANCH  22  23
ATOM     23  C   UNL     1      -4.340  -1.374  -0.771  0.00  0.00    +0.227 C 
ATOM     24  O   UNL     1      -4.078  -0.377  -1.410  0.00  0.00    -0.275 OA
ATOM     25  N   UNL     1      -5.590  -1.567  -0.307  0.00  0.00    -0.285 N 
ATOM     26  H   UNL     1      -5.786  -2.334   0.255  0.00  0.00    +0.155 HD
BRANCH  25  27
ATOM     27  C   UNL     1      -6.606  -0.663  -0.635  0.00  0.00    +0.034 A 
ATOM     28  C   UNL     1      -6.330   0.709  -0.661  0.00  0.00    +0.024 A 
ATOM     29  C   UNL     1      -7.297   1.610  -0.977  0.00  0.00    +0.010 A 
ATOM     30  C   UNL     1      -8.596   1.166  -1.282  0.00  0.00    -0.018 A 
ATOM     31  C   UNL     1      -9.616   2.075  -1.613  0.00  0.00    +0.008 A 
ATOM     32  C   UNL     1     -10.862   1.612  -1.904  0.00  0.00    +0.001 A 
ATOM     33  C   UNL     1     -11.146   0.248  -1.880  0.00  0.00    +0.001 A 
ATOM     34  C   UNL     1     -10.184  -0.662  -1.564  0.00  0.00    +0.008 A 
ATOM     35  C   UNL     1      -8.884  -0.222  -1.258  0.00  0.00    -0.016 A 
ATOM     36  C   UNL     1      -7.865  -1.133  -0.934  0.00  0.00    +0.031 A 
ENDBRANCH  25  27
ENDBRANCH  22  23
ENDBRANCH  21  22
ENDBRANCH   6  21
TORSDOF 8
