REMARK  Name = ZINC35692856
REMARK  9 active torsions:
REMARK  status: ('A' for Active; 'I' for Inactive)
REMARK    1  A    between atoms: C_1  and  C_2
REMARK    2  A    between atoms: C_2  and  O_3
REMARK    3  A    between atoms: O_3  and  C_4
REMARK    4  A    between atoms: C_4  and  C_6
REMARK    5  A    between atoms: C_7  and  C_30
REMARK    6  A    between atoms: C_11  and  C_13
REMARK    7  A    between atoms: C_20  and  C_23
REMARK    8  A    between atoms: C_24  and  N_26
REMARK    9  A    between atoms: N_26  and  C_27
REMARK                            x       y       z     vdW  Elec       q    Type
REMARK                         _______ _______ _______ _____ _____    ______ ____
ROOT
ATOM      1  C   UNL     1       1.852  -2.205  -2.317  0.00  0.00    +0.087 C 
ATOM      2  C   UNL     1       1.559  -3.554  -2.521  0.00  0.00    +0.086 C 
ATOM      3  N   UNL     1       1.711  -4.096  -3.727  0.00  0.00    -0.224 NA
ATOM      4  C   UNL     1       2.129  -3.449  -4.792  0.00  0.00    +0.166 C 
ATOM      5  N   UNL     1       2.466  -2.124  -4.801  0.00  0.00    -0.267 N 
ATOM      6  C   UNL     1       2.333  -1.404  -3.507  0.00  0.00    +0.151 C 
ATOM      7  C   UNL     1       2.888  -1.593  -6.004  0.00  0.00    +0.048 C 
ATOM      8  C   UNL     1       2.934  -2.419  -7.073  0.00  0.00    +0.072 C 
ATOM      9  S   UNL     1       2.378  -3.959  -6.372  0.00  0.00    -0.060 S 
ENDROOT
BRANCH   6  10
ATOM     10  C   UNL     1       1.379  -0.254  -3.707  0.00  0.00    -0.004 A 
ATOM     11  C   UNL     1       1.761   1.029  -3.361  0.00  0.00    +0.007 A 
ATOM     12  C   UNL     1       0.886   2.083  -3.544  0.00  0.00    +0.000 A 
ATOM     13  C   UNL     1      -0.371   1.856  -4.073  0.00  0.00    +0.001 A 
ATOM     14  C   UNL     1      -0.753   0.574  -4.419  0.00  0.00    +0.020 A 
ATOM     15  C   UNL     1       0.124  -0.482  -4.241  0.00  0.00    +0.046 A 
ATOM     16 CL   UNL     1      -0.354  -2.091  -4.682  0.00  0.00    -0.083 Cl
ENDBRANCH   6  10
BRANCH   2  17
ATOM     17  C   UNL     1       1.079  -4.383  -1.392  0.00  0.00    +0.001 A 
ATOM     18  C   UNL     1      -0.152  -4.111  -0.796  0.00  0.00    +0.010 A 
ATOM     19  C   UNL     1      -0.594  -4.888   0.255  0.00  0.00    +0.001 A 
ATOM     20  C   UNL     1       0.182  -5.935   0.719  0.00  0.00    +0.000 A 
ATOM     21  C   UNL     1       1.405  -6.210   0.132  0.00  0.00    +0.001 A 
ATOM     22  C   UNL     1       1.854  -5.445  -0.924  0.00  0.00    +0.010 A 
ENDBRANCH   2  17
BRANCH   7  23
ATOM     23  C   UNL     1       3.273  -0.179  -6.119  0.00  0.00    +0.091 C 
ATOM     24  C   UNL     1       3.792   0.287  -7.271  0.00  0.00    +0.239 C 
ATOM     25  O   UNL     1       3.858  -0.519  -8.359  0.00  0.00    -0.271 OA
BRANCH  24  26
ATOM     26  N   UNL     1       4.258   1.589  -7.345  0.00  0.00    -0.309 N 
ATOM     27  H   UNL     1       4.278   2.142  -6.548  0.00  0.00    +0.149 HD
BRANCH  26  28
ATOM     28  C   UNL     1       4.719   2.131  -8.625  0.00  0.00    +0.073 C 
ATOM     29  C   UNL     1       6.066   2.855  -8.641  0.00  0.00    +0.024 C 
ATOM     30  C   UNL     1       4.767   3.653  -8.772  0.00  0.00    +0.024 C 
ENDBRANCH  26  28
ENDBRANCH  24  26
ENDBRANCH   7  23
BRANCH   1  31
ATOM     31  C   UNL     1       1.702  -1.614  -1.061  0.00  0.00    +0.339 C 
ATOM     32  O   UNL     1       1.362  -2.291  -0.106  0.00  0.00    -0.245 OA
BRANCH  31  33
ATOM     33  O   UNL     1       1.933  -0.292  -0.904  0.00  0.00    -0.462 OA
BRANCH  33  35
ATOM     34  C   UNL     1       2.065   1.745   0.390  0.00  0.00    +0.048 C 
ATOM     35  C   UNL     1       1.760   0.246   0.408  0.00  0.00    +0.229 C 
ENDBRANCH  33  35
ENDBRANCH  31  33
ENDBRANCH   1  31
TORSDOF 8
