REMARK  Name = ZINC22707748
REMARK  10 active torsions:
REMARK  status: ('A' for Active; 'I' for Inactive)
REMARK    1  A    between atoms: C_1  and  C_2
REMARK    2  A    between atoms: C_2  and  C_3
REMARK    3  A    between atoms: C_2  and  C_4
REMARK    4  A    between atoms: C_2  and  C_5
REMARK    5  A    between atoms: C_8  and  C_11
REMARK    6  A    between atoms: N_13  and  C_14
REMARK    7  A    between atoms: C_18  and  N_20
REMARK    8  A    between atoms: N_20  and  C_21
REMARK    9  A    between atoms: C_21  and  N_23
REMARK   10  A    between atoms: C_24  and  C_26
REMARK                            x       y       z     vdW  Elec       q    Type
REMARK                         _______ _______ _______ _____ _____    ______ ____
ROOT
ATOM      1  C   UNL     1       4.463  -1.695  -6.340  0.00  0.00    +0.035 A 
ATOM      2  C   UNL     1       3.803  -2.630  -7.128  0.00  0.00    +0.023 A 
ATOM      3  C   UNL     1       4.467  -3.252  -8.168  0.00  0.00    +0.004 A 
ATOM      4  C   UNL     1       5.789  -2.946  -8.428  0.00  0.00    +0.023 A 
ATOM      5  C   UNL     1       6.455  -2.012  -7.644  0.00  0.00    +0.034 A 
ATOM      6  C   UNL     1       5.789  -1.382  -6.602  0.00  0.00    +0.046 A 
ENDROOT
BRANCH   1   9
ATOM      7  C   UNL     1       4.062   0.218  -4.986  0.00  0.00    +0.248 C 
ATOM      8  O   UNL     1       4.947   0.807  -5.575  0.00  0.00    -0.270 OA
ATOM      9  N   UNL     1       3.790  -1.067  -5.287  0.00  0.00    -0.281 N 
ATOM     10  H   UNL     1       3.128  -1.556  -4.775  0.00  0.00    +0.155 HD
BRANCH   7  14
ATOM     11  C   UNL     1       1.824   2.212  -1.976  0.00  0.00    -0.042 A 
ATOM     12  C   UNL     1       2.832   2.885  -2.645  0.00  0.00    +0.005 A 
ATOM     13  C   UNL     1       3.562   2.243  -3.623  0.00  0.00    +0.013 A 
ATOM     14  C   UNL     1       3.284   0.912  -3.938  0.00  0.00    +0.037 A 
ATOM     15  C   UNL     1       2.266   0.239  -3.260  0.00  0.00    +0.013 A 
ATOM     16  C   UNL     1       1.546   0.891  -2.280  0.00  0.00    +0.005 A 
BRANCH  11  18
ATOM     17  C   UNL     1       1.202   2.188   0.424  0.00  0.00    +0.015 C 
ATOM     18  C   UNL     1       1.030   2.920  -0.909  0.00  0.00    -0.013 C 
ATOM     19  C   UNL     1      -0.450   2.931  -1.297  0.00  0.00    +0.015 C 
ATOM     20  C   UNL     1       1.532   4.359  -0.769  0.00  0.00    +0.015 C 
ENDBRANCH  11  18
ENDBRANCH   7  14
ENDBRANCH   1   9
BRANCH   5  21
ATOM     21  N   UNL     1       7.793  -1.704  -7.908  0.00  0.00    -0.297 N 
ATOM     22  H   UNL     1       8.097  -0.783  -7.861  0.00  0.00    +0.154 HD
BRANCH  21  23
ATOM     23  C   UNL     1       8.661  -2.684  -8.227  0.00  0.00    +0.141 C 
ATOM     24  S   UNL     1       8.162  -4.321  -8.169  0.00  0.00    -0.018 S 
BRANCH  23  25
ATOM     25  N   UNL     1       9.921  -2.377  -8.592  0.00  0.00    -0.261 N 
ATOM     26  C   UNL     1      10.789  -3.358  -8.911  0.00  0.00    +0.285 C 
ATOM     27  O   UNL     1      10.434  -4.520  -8.870  0.00  0.00    -0.266 OA
ATOM     28  H   UNL     1      10.204  -1.450  -8.625  0.00  0.00    +0.157 HD
BRANCH  26  29
ATOM     29  C   UNL     1      12.162  -3.022  -9.309  0.00  0.00    +0.191 A 
ATOM     30  C   UNL     1      13.118  -3.924  -9.656  0.00  0.00    +0.063 A 
ATOM     31  C   UNL     1      14.314  -3.144  -9.972  0.00  0.00    +0.021 A 
ATOM     32  C   UNL     1      15.608  -3.471 -10.386  0.00  0.00    +0.011 A 
ATOM     33  C   UNL     1      16.521  -2.478 -10.602  0.00  0.00    +0.001 A 
ATOM     34  C   UNL     1      16.171  -1.147 -10.413  0.00  0.00    +0.004 A 
ATOM     35  C   UNL     1      14.900  -0.804 -10.005  0.00  0.00    +0.047 A 
ATOM     36  C   UNL     1      13.954  -1.798  -9.779  0.00  0.00    +0.136 A 
ATOM     37  O   UNL     1      12.664  -1.772  -9.390  0.00  0.00    -0.450 OA
ENDBRANCH  26  29
ENDBRANCH  23  25
ENDBRANCH  21  23
ENDBRANCH   5  21
TORSDOF 7
