REMARK  Name = ZINC05033447
REMARK  4 active torsions:
REMARK  status: ('A' for Active; 'I' for Inactive)
REMARK    1  A    between atoms: C_7  and  C_11
REMARK    2  A    between atoms: N_12  and  N_13
REMARK    3  A    between atoms: C_14  and  C_16
REMARK    4  A    between atoms: C_18  and  C_22
REMARK                            x       y       z     vdW  Elec       q    Type
REMARK                         _______ _______ _______ _____ _____    ______ ____
ROOT
ATOM      1  N   UNL     1       1.964   6.551   0.020  0.00  0.00    -0.202 N 
ATOM      2  C   UNL     1       1.445   7.795   0.032  0.00  0.00    +0.281 C 
ATOM      3  O   UNL     1       0.238   7.950   0.044  0.00  0.00    -0.267 OA
ATOM      4  H   UNL     1       2.926   6.427   0.010  0.00  0.00    +0.178 HD
ENDROOT
BRANCH   2   5
ATOM      5  C   UNL     1       2.337   8.965   0.030  0.00  0.00    +0.122 A 
ATOM      6  C   UNL     1       1.961  10.297   0.041  0.00  0.00    +0.058 A 
ATOM      7  C   UNL     1       3.157  11.019   0.034  0.00  0.00    +0.070 A 
ATOM      8  N   UNL     1       4.144  10.160   0.020  0.00  0.00    -0.178 NA
ATOM      9  N   UNL     1       3.703   8.954   0.023  0.00  0.00    -0.272 N 
ATOM     10  H   UNL     1       4.273   8.132   0.021  0.00  0.00    +0.189 HD
BRANCH   7  11
ATOM     11  C   UNL     1       3.286  12.520   0.041  0.00  0.00    +0.015 C 
ATOM     12  C   UNL     1       2.324  13.111   1.073  0.00  0.00    +0.016 C 
ATOM     13  C   UNL     1       2.455  14.635   1.079  0.00  0.00    -0.010 C 
ATOM     14  C   UNL     1       3.891  15.021   1.442  0.00  0.00    +0.007 C 
ATOM     15  C   UNL     1       4.854  14.431   0.409  0.00  0.00    -0.010 C 
ATOM     16  C   UNL     1       4.722  12.906   0.403  0.00  0.00    +0.016 C 
ATOM     17  C   UNL     1       4.513  14.978  -0.978  0.00  0.00    +0.007 C 
ATOM     18  C   UNL     1       3.077  14.592  -1.340  0.00  0.00    -0.010 C 
ATOM     19  C   UNL     1       2.114  15.183  -0.308  0.00  0.00    +0.007 C 
ATOM     20  C   UNL     1       2.945  13.068  -1.347  0.00  0.00    +0.016 C 
ENDBRANCH   7  11
ENDBRANCH   2   5
BRANCH   1  22
ATOM     21  C   UNL     1       1.615   4.238   0.010  0.00  0.00    +0.140 C 
ATOM     22  N   UNL     1       1.115   5.437   0.021  0.00  0.00    -0.187 NA
BRANCH  21  29
ATOM     23  C   UNL     1      -3.045   3.774   0.051  0.00  0.00    +0.001 A 
ATOM     24  C   UNL     1      -3.443   2.444   0.048  0.00  0.00    +0.002 A 
ATOM     25  C   UNL     1      -2.510   1.432   0.033  0.00  0.00    +0.026 A 
ATOM     26  C   UNL     1      -1.153   1.738   0.016  0.00  0.00    +0.047 A 
ATOM     27  C   UNL     1      -0.751   3.084   0.026  0.00  0.00    +0.008 A 
ATOM     28  C   UNL     1      -1.707   4.098   0.040  0.00  0.00    +0.010 A 
ATOM     29  C   UNL     1       0.723   3.068   0.012  0.00  0.00    +0.020 A 
ATOM     30  C   UNL     1       1.097   1.760   0.001  0.00  0.00    +0.093 A 
ATOM     31  N   UNL     1      -0.011   0.966   0.007  0.00  0.00    -0.360 N 
ATOM     32  H   UNL     1       0.002  -0.004   0.002  0.00  0.00    +0.165 HD
ENDBRANCH  21  29
ENDBRANCH   1  22
TORSDOF 4
