REMARK  Name = ZINC32127331
REMARK  7 active torsions:
REMARK  status: ('A' for Active; 'I' for Inactive)
REMARK    1  A    between atoms: C_1  and  C_2
REMARK    2  A    between atoms: C_7  and  C_8
REMARK    3  A    between atoms: N_13  and  C_16
REMARK    4  A    between atoms: C_19  and  N_22
REMARK    5  A    between atoms: N_22  and  C_23
REMARK    6  A    between atoms: C_23  and  N_25
REMARK    7  A    between atoms: C_26  and  C_28
REMARK                            x       y       z     vdW  Elec       q    Type
REMARK                         _______ _______ _______ _____ _____    ______ ____
ROOT
ATOM      1  C   UNL     1      10.116  -3.630   6.249  0.00  0.00    +0.030 A 
ATOM      2  C   UNL     1       9.404  -4.810   6.421  0.00  0.00    +0.025 A 
ATOM      3  C   UNL     1       8.079  -4.879   6.038  0.00  0.00    +0.025 A 
ATOM      4  C   UNL     1       7.459  -3.769   5.480  0.00  0.00    +0.033 A 
ATOM      5  C   UNL     1       8.173  -2.591   5.303  0.00  0.00    +0.025 A 
ATOM      6  C   UNL     1       9.496  -2.520   5.691  0.00  0.00    +0.025 A 
ENDROOT
BRANCH   1  12
ATOM      7  C   UNL     1      14.526  -2.071   8.867  0.00  0.00    +0.247 C 
ATOM      8  O   UNL     1      14.949  -0.970   8.572  0.00  0.00    -0.270 OA
ATOM      9  N   UNL     1      13.751  -2.750   7.998  0.00  0.00    -0.295 N 
ATOM     10  C   UNL     1      13.525  -2.246   6.635  0.00  0.00    +0.127 C 
ATOM     11  C   UNL     1      12.016  -2.229   6.367  0.00  0.00    +0.124 C 
ATOM     12  N   UNL     1      11.458  -3.560   6.637  0.00  0.00    -0.327 N 
ATOM     13  C   UNL     1      11.617  -3.927   8.051  0.00  0.00    +0.124 C 
ATOM     14  C   UNL     1      13.109  -4.014   8.388  0.00  0.00    +0.127 C 
BRANCH   7  21
ATOM     15  C   UNL     1      14.068  -0.551  11.286  0.00  0.00    +0.044 C 
ATOM     16  C   UNL     1      14.646  -1.941  11.352  0.00  0.00    -0.038 A 
ATOM     17  C   UNL     1      14.961  -2.501  12.572  0.00  0.00    +0.004 A 
ATOM     18  C   UNL     1      15.491  -3.778  12.635  0.00  0.00    +0.000 A 
ATOM     19  C   UNL     1      15.708  -4.501  11.475  0.00  0.00    +0.001 A 
ATOM     20  C   UNL     1      15.393  -3.954  10.248  0.00  0.00    +0.013 A 
ATOM     21  C   UNL     1      14.862  -2.665  10.178  0.00  0.00    +0.040 A 
ENDBRANCH   7  21
ENDBRANCH   1  12
BRANCH   4  22
ATOM     22  N   UNL     1       6.115  -3.839   5.091  0.00  0.00    -0.297 N 
ATOM     23  H   UNL     1       5.800  -3.420   4.124  0.00  0.00    +0.154 HD
BRANCH  22  24
ATOM     24  C   UNL     1       5.208  -4.419   5.902  0.00  0.00    +0.141 C 
ATOM     25  S   UNL     1       5.713  -5.159   7.361  0.00  0.00    -0.018 S 
BRANCH  24  26
ATOM     26  N   UNL     1       3.903  -4.418   5.564  0.00  0.00    -0.264 N 
ATOM     27  C   UNL     1       2.996  -4.998   6.374  0.00  0.00    +0.250 C 
ATOM     28  O   UNL     1       3.355  -5.523   7.410  0.00  0.00    -0.270 OA
ATOM     29  H   UNL     1       3.578  -3.942   4.626  0.00  0.00    +0.157 HD
BRANCH  27  30
ATOM     30  C   UNL     1       1.568  -4.996   6.004  0.00  0.00    +0.041 A 
ATOM     31  C   UNL     1       1.154  -4.393   4.814  0.00  0.00    +0.017 A 
ATOM     32  C   UNL     1      -0.180  -4.392   4.470  0.00  0.00    +0.050 A 
ATOM     33  C   UNL     1      -1.117  -4.989   5.303  0.00  0.00    +0.166 A 
ATOM     34  C   UNL     1      -0.710  -5.593   6.494  0.00  0.00    +0.167 A 
ATOM     35  C   UNL     1       0.626  -5.597   6.843  0.00  0.00    +0.062 A 
ATOM     36  O   UNL     1      -1.810  -6.100   7.123  0.00  0.00    -0.453 OA
ATOM     37  C   UNL     1      -2.836  -6.160   6.114  0.00  0.00    +0.466 C 
ATOM     38  O   UNL     1      -2.470  -5.118   5.191  0.00  0.00    -0.453 OA
ENDBRANCH  27  30
ENDBRANCH  24  26
ENDBRANCH  22  24
ENDBRANCH   4  22
TORSDOF 6
