REMARK  Name = ZINC00759051
REMARK  7 active torsions:
REMARK  status: ('A' for Active; 'I' for Inactive)
REMARK    1  A    between atoms: C_1  and  O_2
REMARK    2  A    between atoms: O_2  and  C_3
REMARK    3  A    between atoms: C_3  and  C_5
REMARK    4  A    between atoms: C_8  and  C_11
REMARK    5  A    between atoms: C_14  and  C_25
REMARK    6  A    between atoms: C_20  and  N_24
REMARK    7  A    between atoms: C_21  and  C_22
REMARK                            x       y       z     vdW  Elec       q    Type
REMARK                         _______ _______ _______ _____ _____    ______ ____
ROOT
ATOM      1  C   UNL     1       0.827  -6.343  -1.340  0.00  0.00    +0.102 C 
ATOM      2  C   UNL     1       0.144  -6.816  -2.598  0.00  0.00    +0.054 A 
ATOM      3  C   UNL     1      -1.220  -6.844  -2.907  0.00  0.00    +0.100 A 
ATOM      4  N   UNL     1      -1.350  -7.338  -4.124  0.00  0.00    -0.171 NA
ATOM      5  N   UNL     1      -0.071  -7.637  -4.618  0.00  0.00    -0.246 N 
ATOM      6  H   UNL     1       0.130  -8.012  -5.490  0.00  0.00    +0.192 HD
ATOM      7  C   UNL     1       0.830  -7.310  -3.668  0.00  0.00    +0.223 A 
ATOM      8  O   UNL     1       2.182  -7.420  -3.685  0.00  0.00    -0.423 OA
ATOM      9  C   UNL     1       2.834  -7.283  -2.512  0.00  0.00    +0.200 C 
ATOM     10  C   UNL     1       2.265  -6.795  -1.387  0.00  0.00    +0.098 C 
ENDROOT
BRANCH   1  14
ATOM     11  C   UNL     1       0.658  -2.076  -1.122  0.00  0.00    +0.059 A 
ATOM     12  C   UNL     1       0.089  -2.853  -0.111  0.00  0.00    +0.015 A 
ATOM     13  C   UNL     1       0.147  -4.229  -0.188  0.00  0.00    +0.005 A 
ATOM     14  C   UNL     1       0.767  -4.840  -1.263  0.00  0.00    -0.035 A 
ATOM     15  C   UNL     1       1.334  -4.076  -2.268  0.00  0.00    +0.005 A 
ATOM     16  C   UNL     1       1.278  -2.699  -2.207  0.00  0.00    +0.015 A 
BRANCH  11  17
ATOM     17  C   UNL     1       0.601  -0.602  -1.046  0.00  0.00    +0.339 C 
ATOM     18  O   UNL     1       1.092   0.071  -1.930  0.00  0.00    -0.245 OA
BRANCH  17  20
ATOM     19  C   UNL     1      -0.017   1.425   0.010  0.00  0.00    +0.280 C 
ATOM     20  O   UNL     1       0.002  -0.004   0.002  0.00  0.00    -0.464 OA
ENDBRANCH  17  20
ENDBRANCH  11  17
ENDBRANCH   1  14
BRANCH   3  21
ATOM     21  C   UNL     1      -2.325  -6.397  -2.023  0.00  0.00    +0.005 A 
ATOM     22  C   UNL     1      -2.251  -6.571  -0.638  0.00  0.00    +0.030 A 
ATOM     23  C   UNL     1      -3.300  -6.141   0.147  0.00  0.00    +0.111 A 
ATOM     24  N   UNL     1      -4.362  -5.573  -0.393  0.00  0.00    -0.263 NA
ATOM     25  C   UNL     1      -4.471  -5.391  -1.695  0.00  0.00    +0.111 A 
ATOM     26  C   UNL     1      -3.465  -5.786  -2.552  0.00  0.00    +0.030 A 
ENDBRANCH   3  21
BRANCH   9  27
ATOM     27  N   UNL     1       4.152  -7.664  -2.457  0.00  0.00    -0.328 N 
ATOM     28  H   UNL     1       4.588  -8.018  -3.248  0.00  0.00    +0.145 HD
ATOM     29  H   UNL     1       4.647  -7.578  -1.628  0.00  0.00    +0.145 HD
ENDBRANCH   9  27
BRANCH  10  30
ATOM     30  C   UNL     1       3.057  -6.701  -0.197  0.00  0.00    +0.101 C 
ATOM     31  N   UNL     1       3.684  -6.627   0.747  0.00  0.00    -0.191 NA
ENDBRANCH  10  30
TORSDOF 6
