REMARK  Name = ZINC65025204
REMARK  8 active torsions:
REMARK  status: ('A' for Active; 'I' for Inactive)
REMARK    1  A    between atoms: C_1  and  C_2
REMARK    2  A    between atoms: C_2  and  C_3
REMARK    3  A    between atoms: C_2  and  N_4
REMARK    4  A    between atoms: C_5  and  C_7
REMARK    5  A    between atoms: C_9  and  N_19
REMARK    6  A    between atoms: C_12  and  N_13
REMARK    7  A    between atoms: N_19  and  S_20
REMARK    8  A    between atoms: S_20  and  C_23
REMARK                            x       y       z     vdW  Elec       q    Type
REMARK                         _______ _______ _______ _____ _____    ______ ____
ROOT
ATOM      1  C   UNL     1      -3.429  -1.168  -1.137  0.00  0.00    +0.078 A 
ATOM      2  C   UNL     1      -4.015  -1.612   0.054  0.00  0.00    +0.044 A 
ATOM      3  C   UNL     1      -5.326  -2.067   0.013  0.00  0.00    +0.093 A 
ATOM      4  C   UNL     1      -6.009  -2.069  -1.197  0.00  0.00    +0.139 A 
ATOM      5  N   UNL     1      -5.434  -1.645  -2.305  0.00  0.00    -0.238 NA
ATOM      6  C   UNL     1      -4.188  -1.197  -2.318  0.00  0.00    +0.133 A 
ENDROOT
BRANCH   6   7
ATOM      7  N   UNL     1      -3.628  -0.757  -3.507  0.00  0.00    -0.318 N 
ATOM      8  C   UNL     1      -2.995  -1.703  -4.439  0.00  0.00    +0.087 C 
ATOM      9  C   UNL     1      -3.571  -1.463  -5.839  0.00  0.00    -0.063 C 
ATOM     10  N   UNL     1      -3.404  -0.050  -6.201  0.00  0.00    +0.381 N 
ATOM     11  C   UNL     1      -4.195   0.795  -5.298  0.00  0.00    -0.063 C 
ATOM     12  C   UNL     1      -3.655   0.667  -3.874  0.00  0.00    +0.087 C 
ATOM     13  H   UNL     1      -2.429   0.202  -6.127  0.00  0.00    -0.086 HD
ATOM     14  H   UNL     1      -3.714   0.092  -7.151  0.00  0.00    -0.086 HD
ENDBRANCH   6   7
BRANCH   1  16
ATOM     15  N   UNL     1      -1.361  -0.540   0.006  0.00  0.00    -0.309 N 
ATOM     16  C   UNL     1      -2.039  -0.674  -1.151  0.00  0.00    +0.248 C 
ATOM     17  O   UNL     1      -1.506  -0.388  -2.206  0.00  0.00    -0.270 OA
ATOM     18  H   UNL     1      -1.786  -0.768   0.847  0.00  0.00    +0.149 HD
BRANCH  15  20
ATOM     19  C   UNL     1       0.017   1.481  -0.014  0.00  0.00    +0.027 C 
ATOM     20  C   UNL     1       0.020  -0.049  -0.008  0.00  0.00    +0.067 C 
ATOM     21  C   UNL     1       0.753  -0.553   1.237  0.00  0.00    +0.027 C 
ENDBRANCH  15  20
ENDBRANCH   1  16
BRANCH   3  22
ATOM     22  N   UNL     1      -5.954  -2.521   1.180  0.00  0.00    -0.096 NA
BRANCH  22  23
ATOM     23  S   UNL     1      -7.518  -3.062   1.122  0.00  0.00    +0.098 S 
ATOM     24  O   UNL     1      -8.325  -1.939   0.796  0.00  0.00    -0.148 OA
ATOM     25  O   UNL     1      -7.509  -4.247   0.337  0.00  0.00    -0.148 OA
BRANCH  23  26
ATOM     26  C   UNL     1      -7.963  -3.545   2.757  0.00  0.00    +0.149 A 
ATOM     27  C   UNL     1      -8.529  -2.804   3.741  0.00  0.00    +0.038 A 
ATOM     28  C   UNL     1      -8.793  -3.399   4.960  0.00  0.00    +0.025 A 
ATOM     29  C   UNL     1      -8.479  -4.707   5.136  0.00  0.00    +0.057 A 
ATOM     30  S   UNL     1      -7.794  -5.138   3.544  0.00  0.00    -0.061 S 
ATOM     31 BR   UNL     1      -8.712  -5.793   6.666  0.00  0.00    -0.043 Br
ENDBRANCH  23  26
ENDBRANCH  22  23
ENDBRANCH   3  22
TORSDOF 6
