REMARK  Name = ZINC39684185
REMARK  8 active torsions:
REMARK  status: ('A' for Active; 'I' for Inactive)
REMARK    1  A    between atoms: C_1  and  C_2
REMARK    2  A    between atoms: C_7  and  C_11
REMARK    3  A    between atoms: C_11  and  C_12
REMARK    4  A    between atoms: C_12  and  N_13
REMARK    5  A    between atoms: C_14  and  C_16
REMARK    6  A    between atoms: C_27  and  C_29
REMARK    7  A    between atoms: C_33  and  O_34
REMARK    8  A    between atoms: O_34  and  C_35
REMARK                            x       y       z     vdW  Elec       q    Type
REMARK                         _______ _______ _______ _____ _____    ______ ____
ROOT
ATOM      1  C   UNL     1      -8.682   1.716  -6.197  0.00  0.00    +0.100 C 
ATOM      2  C   UNL     1      -9.915   2.114  -5.356  0.00  0.00    +0.121 C 
ATOM      3  N   UNL     1     -11.077   1.665  -6.158  0.00  0.00    -0.296 N 
ATOM      4  C   UNL     1     -10.653   0.362  -6.724  0.00  0.00    +0.115 C 
ATOM      5  C   UNL     1      -9.170   0.566  -7.093  0.00  0.00    -0.004 C 
ATOM      6  C   UNL     1      -9.040   0.950  -8.564  0.00  0.00    -0.010 C 
ATOM      7  C   UNL     1      -9.478  -0.231  -9.436  0.00  0.00    -0.082 C 
ATOM      8  N   UNL     1      -8.639  -1.398  -9.139  0.00  0.00    +0.379 N 
ATOM      9  C   UNL     1      -8.840  -1.818  -7.746  0.00  0.00    -0.082 C 
ATOM     10  C   UNL     1      -8.375  -0.704  -6.803  0.00  0.00    -0.010 C 
ATOM     11  C   UNL     1     -12.254   2.298  -6.335  0.00  0.00    +0.251 C 
ATOM     12  O   UNL     1     -12.417   3.415  -5.881  0.00  0.00    -0.270 OA
ATOM     13  H   UNL     1      -8.889  -2.156  -9.756  0.00  0.00    -0.086 HD
ATOM     14  H   UNL     1      -7.669  -1.158  -9.280  0.00  0.00    -0.086 HD
ENDROOT
BRANCH  11  15
ATOM     15  C   UNL     1     -13.340   1.638  -7.075  0.00  0.00    +0.087 A 
ATOM     16  C   UNL     1     -13.539   0.277  -7.003  0.00  0.00    +0.063 A 
ATOM     17  S   UNL     1     -14.864  -0.001  -7.994  0.00  0.00    -0.081 S 
ATOM     18  C   UNL     1     -15.202   1.660  -8.537  0.00  0.00    +0.120 A 
ATOM     19  C   UNL     1     -14.252   2.388  -7.907  0.00  0.00    +0.158 A 
ATOM     20 CL   UNL     1     -16.451   2.211  -9.609  0.00  0.00    -0.072 Cl
BRANCH  19  21
ATOM     21  O   UNL     1     -14.159   3.739  -8.052  0.00  0.00    -0.492 OA
ATOM     22  C   UNL     1     -13.338   4.222  -9.117  0.00  0.00    +0.277 C 
ENDBRANCH  19  21
ENDBRANCH  11  15
BRANCH   1  24
ATOM     23  N   UNL     1      -6.294   1.249  -5.751  0.00  0.00    -0.315 N 
ATOM     24  C   UNL     1      -7.565   1.246  -5.301  0.00  0.00    +0.218 C 
ATOM     25  O   UNL     1      -7.809   0.866  -4.176  0.00  0.00    -0.275 OA
ATOM     26  H   UNL     1      -6.099   1.553  -6.651  0.00  0.00    +0.149 HD
BRANCH  23  27
ATOM     27  C   UNL     1      -5.208   0.792  -4.880  0.00  0.00    +0.109 C 
BRANCH  27  28
ATOM     28  C   UNL     1      -3.877   0.895  -5.627  0.00  0.00    +0.056 C 
BRANCH  28  35
ATOM     29  C   UNL     1       0.514  -2.048  -2.254  0.00  0.00    +0.046 C 
ATOM     30  C   UNL     1      -0.628  -2.085  -3.237  0.00  0.00    -0.027 A 
ATOM     31  C   UNL     1      -1.052  -3.288  -3.759  0.00  0.00    +0.005 A 
ATOM     32  C   UNL     1      -2.102  -3.335  -4.665  0.00  0.00    +0.001 A 
ATOM     33  C   UNL     1      -2.734  -2.188  -5.056  0.00  0.00    +0.010 A 
ATOM     34  C   UNL     1      -2.322  -0.959  -4.539  0.00  0.00    +0.003 A 
ATOM     35  C   UNL     1      -2.760   0.425  -4.731  0.00  0.00    -0.021 A 
ATOM     36  C   UNL     1      -1.978   1.196  -3.959  0.00  0.00    +0.087 A 
ATOM     37  N   UNL     1      -1.075   0.418  -3.287  0.00  0.00    -0.360 N 
ATOM     38  C   UNL     1      -1.261  -0.906  -3.615  0.00  0.00    +0.050 A 
ATOM     39  H   UNL     1      -0.405   0.750  -2.669  0.00  0.00    +0.165 HD
ENDBRANCH  28  35
ENDBRANCH  27  28
ENDBRANCH  23  27
ENDBRANCH   1  24
TORSDOF 6
