REMARK  Name = ZINC06146437
REMARK  10 active torsions:
REMARK  status: ('A' for Active; 'I' for Inactive)
REMARK    1  A    between atoms: C_1  and  O_2
REMARK    2  A    between atoms: O_2  and  C_3
REMARK    3  A    between atoms: C_6  and  S_11
REMARK    4  A    between atoms: C_8  and  O_9
REMARK    5  A    between atoms: O_9  and  C_10
REMARK    6  A    between atoms: S_11  and  N_14
REMARK    7  A    between atoms: N_14  and  C_15
REMARK    8  A    between atoms: C_20  and  C_21
REMARK    9  A    between atoms: N_23  and  C_24
REMARK   10  A    between atoms: C_25  and  C_34
REMARK                            x       y       z     vdW  Elec       q    Type
REMARK                         _______ _______ _______ _____ _____    ______ ____
ROOT
ATOM      1  C   UNL     1      -2.404   1.206  -0.154  0.00  0.00    +0.060 A 
ATOM      2  C   UNL     1      -3.554   1.984  -0.209  0.00  0.00    +0.025 A 
ATOM      3  C   UNL     1      -3.456   3.351  -0.369  0.00  0.00    +0.002 A 
ATOM      4  C   UNL     1      -2.214   3.959  -0.470  0.00  0.00    +0.001 A 
ATOM      5  C   UNL     1      -1.063   3.204  -0.412  0.00  0.00    +0.015 A 
ATOM      6  C   UNL     1      -1.145   1.819  -0.251  0.00  0.00    +0.059 A 
ENDROOT
BRANCH   6   7
ATOM      7  C   UNL     1       0.083   1.006  -0.189  0.00  0.00    +0.250 C 
ATOM      8  O   UNL     1       0.007  -0.200  -0.048  0.00  0.00    -0.270 OA
ATOM      9  N   UNL     1       1.289   1.597  -0.294  0.00  0.00    -0.275 N 
ATOM     10  H   UNL     1       1.358   2.688  -0.421  0.00  0.00    +0.156 HD
BRANCH   9  11
ATOM     11  C   UNL     1       2.444   0.831  -0.241  0.00  0.00    +0.090 A 
ATOM     12  C   UNL     1       3.761   1.252  -0.330  0.00  0.00    +0.084 A 
ATOM     13  C   UNL     1       4.804   0.239  -0.243  0.00  0.00    -0.018 A 
ATOM     14  C   UNL     1       4.357  -1.026  -0.092  0.00  0.00    -0.004 A 
ATOM     15  S   UNL     1       2.591  -0.883  -0.041  0.00  0.00    -0.077 S 
ATOM     16  C   UNL     1       5.170  -2.279   0.012  0.00  0.00    +0.043 C 
ATOM     17  C   UNL     1       6.283  -2.074   1.048  0.00  0.00    +0.005 C 
ATOM     18  C   UNL     1       7.509  -1.511   0.336  0.00  0.00    +0.001 C 
ATOM     19  C   UNL     1       7.078  -0.612  -0.822  0.00  0.00    +0.005 C 
ATOM     20  C   UNL     1       6.287   0.584  -0.302  0.00  0.00    +0.037 C 
BRANCH  12  21
ATOM     21  C   UNL     1       4.086   2.636  -0.500  0.00  0.00    +0.102 C 
ATOM     22  N   UNL     1       4.344   3.734  -0.636  0.00  0.00    -0.191 NA
ENDBRANCH  12  21
ENDBRANCH   9  11
ENDBRANCH   6   7
BRANCH   1  23
ATOM     23  N   UNL     1      -2.500  -0.171   0.001  0.00  0.00    -0.216 N 
ATOM     24  H   UNL     1      -1.752  -0.711   0.601  0.00  0.00    +0.174 HD
BRANCH  23  25
ATOM     25  S   UNL     1      -3.740  -1.001  -0.717  0.00  0.00    +0.072 S 
ATOM     26  O   UNL     1      -3.491  -2.381  -0.488  0.00  0.00    -0.150 OA
ATOM     27  O   UNL     1      -4.944  -0.366  -0.308  0.00  0.00    -0.150 OA
BRANCH  25  31
ATOM     28  C   UNL     1      -3.385  -0.338  -5.186  0.00  0.00    +0.162 A 
ATOM     29  C   UNL     1      -4.139   0.530  -4.411  0.00  0.00    +0.051 A 
ATOM     30  C   UNL     1      -4.250   0.322  -3.049  0.00  0.00    +0.032 A 
ATOM     31  C   UNL     1      -3.601  -0.745  -2.454  0.00  0.00    +0.112 A 
ATOM     32  C   UNL     1      -2.848  -1.614  -3.221  0.00  0.00    +0.078 A 
ATOM     33  C   UNL     1      -2.737  -1.415  -4.588  0.00  0.00    +0.163 A 
BRANCH  28  35
ATOM     34  C   UNL     1      -3.973   0.987  -7.071  0.00  0.00    +0.277 C 
ATOM     35  O   UNL     1      -3.280  -0.138  -6.527  0.00  0.00    -0.491 OA
ENDBRANCH  28  35
BRANCH  33  36
ATOM     36  O   UNL     1      -1.996  -2.269  -5.344  0.00  0.00    -0.491 OA
ATOM     37  C   UNL     1      -1.359  -3.351  -4.663  0.00  0.00    +0.277 C 
ENDBRANCH  33  36
ENDBRANCH  25  31
ENDBRANCH  23  25
ENDBRANCH   1  23
TORSDOF 8
