REMARK  Name = ZINC03277147
REMARK  10 active torsions:
REMARK  status: ('A' for Active; 'I' for Inactive)
REMARK    1  A    between atoms: C_1  and  C_2
REMARK    2  A    between atoms: C_2  and  O_3
REMARK    3  A    between atoms: O_3  and  C_4
REMARK    4  A    between atoms: C_4  and  C_6
REMARK    5  A    between atoms: C_10  and  N_11
REMARK    6  A    between atoms: C_12  and  C_14
REMARK    7  A    between atoms: C_14  and  S_15
REMARK    8  A    between atoms: S_15  and  C_16
REMARK    9  A    between atoms: C_17  and  C_29
REMARK   10  A    between atoms: C_18  and  C_24
REMARK                            x       y       z     vdW  Elec       q    Type
REMARK                         _______ _______ _______ _____ _____    ______ ____
ROOT
ATOM      1  N   UNL     1      -1.489   2.031   2.507  0.00  0.00    -0.279 N 
ATOM      2  C   UNL     1      -2.235   2.445   3.550  0.00  0.00    +0.228 C 
ATOM      3  O   UNL     1      -3.279   3.031   3.355  0.00  0.00    -0.275 OA
ATOM      4  H   UNL     1      -0.654   1.562   2.664  0.00  0.00    +0.155 HD
ENDROOT
BRANCH   1   9
ATOM      5  C   UNL     1      -1.292   1.927   0.019  0.00  0.00    +0.091 A 
ATOM      6  C   UNL     1      -1.954   2.307  -1.219  0.00  0.00    -0.021 A 
ATOM      7  C   UNL     1      -3.128   2.957  -1.067  0.00  0.00    -0.004 A 
ATOM      8  S   UNL     1      -3.355   3.079   0.684  0.00  0.00    -0.077 S 
ATOM      9  C   UNL     1      -1.915   2.273   1.211  0.00  0.00    +0.086 A 
ATOM     10  C   UNL     1      -4.026   3.463  -2.154  0.00  0.00    +0.043 C 
ATOM     11  C   UNL     1      -3.231   3.475  -3.470  0.00  0.00    +0.005 C 
ATOM     12  C   UNL     1      -2.528   2.124  -3.627  0.00  0.00    +0.005 C 
ATOM     13  C   UNL     1      -1.396   2.005  -2.604  0.00  0.00    +0.037 C 
BRANCH   5  14
ATOM     14  C   UNL     1      -0.014   1.212   0.009  0.00  0.00    +0.342 C 
ATOM     15  O   UNL     1       0.002  -0.004   0.002  0.00  0.00    -0.245 OA
BRANCH  14  16
ATOM     16  O   UNL     1       1.144   1.902   0.001  0.00  0.00    -0.461 OA
BRANCH  16  18
ATOM     17  C   UNL     1       3.573   2.077  -0.021  0.00  0.00    +0.048 C 
ATOM     18  C   UNL     1       2.373   1.128  -0.015  0.00  0.00    +0.229 C 
ENDBRANCH  16  18
ENDBRANCH  14  16
ENDBRANCH   5  14
ENDBRANCH   1   9
BRANCH   2  19
ATOM     19  C   UNL     1      -1.771   2.182   4.960  0.00  0.00    +0.171 C 
BRANCH  19  20
ATOM     20  S   UNL     1      -2.979   2.855   6.128  0.00  0.00    -0.100 S 
BRANCH  20  21
ATOM     21  C   UNL     1      -2.207   2.419   7.651  0.00  0.00    +0.082 C 
ATOM     22  C   UNL     1      -2.804   2.750   8.829  0.00  0.00    +0.065 C 
ATOM     23  C   UNL     1      -2.152   2.382  10.137  0.00  0.00    +0.077 C 
ATOM     24  C   UNL     1      -0.631   2.451   9.985  0.00  0.00    +0.110 C 
ATOM     25  C   UNL     1      -0.216   1.728   8.731  0.00  0.00    +0.219 C 
ATOM     26  O   UNL     1       0.836   1.126   8.704  0.00  0.00    -0.275 OA
ATOM     27  N   UNL     1      -1.007   1.741   7.640  0.00  0.00    -0.279 N 
ATOM     28  H   UNL     1      -0.729   1.271   6.838  0.00  0.00    +0.155 HD
BRANCH  23  29
ATOM     29  C   UNL     1      -2.555   0.981  10.522  0.00  0.00    -0.002 A 
ATOM     30  C   UNL     1      -3.211   0.556  11.629  0.00  0.00    +0.012 A 
ATOM     31  C   UNL     1      -3.478  -0.793  11.773  0.00  0.00    +0.008 A 
ATOM     32  C   UNL     1      -3.075  -1.650  10.803  0.00  0.00    +0.045 A 
ATOM     33  S   UNL     1      -2.299  -0.546   9.634  0.00  0.00    -0.101 S 
ENDBRANCH  23  29
BRANCH  22  34
ATOM     34  C   UNL     1      -4.053   3.450   8.826  0.00  0.00    +0.098 C 
ATOM     35  N   UNL     1      -5.045   4.005   8.823  0.00  0.00    -0.191 NA
ENDBRANCH  22  34
ENDBRANCH  20  21
ENDBRANCH  19  20
ENDBRANCH   2  19
TORSDOF 9
