REMARK  Name = ZINC38971664
REMARK  8 active torsions:
REMARK  status: ('A' for Active; 'I' for Inactive)
REMARK    1  A    between atoms: C_1  and  C_2
REMARK    2  A    between atoms: C_5  and  S_9
REMARK    3  A    between atoms: C_6  and  C_8
REMARK    4  A    between atoms: S_9  and  N_12
REMARK    5  A    between atoms: C_14  and  N_24
REMARK    6  A    between atoms: N_24  and  C_25
REMARK    7  A    between atoms: C_28  and  C_31
REMARK    8  A    between atoms: C_31  and  O_33
REMARK                            x       y       z     vdW  Elec       q    Type
REMARK                         _______ _______ _______ _____ _____    ______ ____
ROOT
ATOM      1  N   UNL     1       1.469  -5.120   0.340  0.00  0.00    -0.110 NA
ATOM      2  C   UNL     1       1.784  -6.351   0.616  0.00  0.00    +0.192 C 
ATOM      3  C   UNL     1       3.068  -6.668   1.348  0.00  0.00    +0.237 C 
ATOM      4  N   UNL     1       3.367  -8.081   1.631  0.00  0.00    -0.359 N 
ATOM      5  C   UNL     1       2.515  -8.987   1.240  0.00  0.00    +0.063 A 
ATOM      6  C   UNL     1       2.767 -10.413   1.498  0.00  0.00    +0.027 A 
ATOM      7  C   UNL     1       1.861 -11.323   1.078  0.00  0.00    +0.002 A 
ATOM      8  C   UNL     1       0.690 -10.942   0.403  0.00  0.00    +0.002 A 
ATOM      9  C   UNL     1       0.391  -9.653   0.130  0.00  0.00    +0.030 A 
ATOM     10  C   UNL     1       1.270  -8.613   0.525  0.00  0.00    +0.089 A 
ATOM     11  N   UNL     1       0.971  -7.359   0.260  0.00  0.00    -0.226 NA
ATOM     12  H   UNL     1       4.179  -8.332   2.098  0.00  0.00    +0.162 HD
ENDROOT
BRANCH   1  13
ATOM     13  S   UNL     1       0.056  -4.786  -0.457  0.00  0.00    +0.101 S 
ATOM     14  O   UNL     1      -1.001  -5.149   0.421  0.00  0.00    -0.146 OA
ATOM     15  O   UNL     1       0.185  -5.335  -1.761  0.00  0.00    -0.146 OA
BRANCH  13  20
ATOM     16  C   UNL     1      -0.244   1.202  -1.129  0.00  0.00    +0.044 C 
ATOM     17  C   UNL     1      -0.169  -0.293  -0.961  0.00  0.00    -0.050 A 
ATOM     18  C   UNL     1      -0.061  -1.109  -2.072  0.00  0.00    +0.005 A 
ATOM     19  C   UNL     1       0.008  -2.481  -1.918  0.00  0.00    +0.029 A 
ATOM     20  C   UNL     1      -0.031  -3.037  -0.653  0.00  0.00    +0.115 A 
ATOM     21  C   UNL     1      -0.138  -2.222   0.458  0.00  0.00    -0.023 A 
ATOM     22  C   UNL     1      -0.202  -0.849   0.304  0.00  0.00    +0.008 A 
ATOM     23  C   UNL     1      -0.180  -2.828   1.837  0.00  0.00    +0.046 C 
ENDBRANCH  13  20
ENDBRANCH   1  13
BRANCH   3  24
ATOM     24  N   UNL     1       4.178  -6.127   0.560  0.00  0.00    -0.318 N 
ATOM     25  H   UNL     1       4.191  -6.244  -0.403  0.00  0.00    +0.148 HD
BRANCH  24  26
ATOM     26  C   UNL     1       5.212  -5.446   1.191  0.00  0.00    +0.029 A 
ATOM     27  C   UNL     1       6.179  -4.793   0.432  0.00  0.00    +0.024 A 
ATOM     28  C   UNL     1       7.200  -4.119   1.052  0.00  0.00    +0.017 A 
ATOM     29  C   UNL     1       7.269  -4.089   2.448  0.00  0.00    +0.059 A 
ATOM     30  C   UNL     1       6.296  -4.746   3.208  0.00  0.00    +0.017 A 
ATOM     31  C   UNL     1       5.275  -5.413   2.582  0.00  0.00    +0.024 A 
BRANCH  29  32
ATOM     32  C   UNL     1       8.366  -3.366   3.118  0.00  0.00    +0.337 C 
ATOM     33  O   UNL     1       9.211  -2.796   2.456  0.00  0.00    -0.245 OA
BRANCH  32  34
ATOM     34  O   UNL     1       8.431  -3.338   4.463  0.00  0.00    -0.477 OA
ATOM     35  H   UNL     1       9.184  -2.840   4.810  0.00  0.00    +0.295 HD
ENDBRANCH  32  34
ENDBRANCH  29  32
ENDBRANCH  24  26
ENDBRANCH   3  24
TORSDOF 6
