REMARK  Name = ZINC65021432
REMARK  8 active torsions:
REMARK  status: ('A' for Active; 'I' for Inactive)
REMARK    1  A    between atoms: C_1  and  C_2
REMARK    2  A    between atoms: C_2  and  O_3
REMARK    3  A    between atoms: O_3  and  C_4
REMARK    4  A    between atoms: C_4  and  C_6
REMARK    5  A    between atoms: C_9  and  N_12
REMARK    6  A    between atoms: N_12  and  S_13
REMARK    7  A    between atoms: S_13  and  C_16
REMARK    8  A    between atoms: C_25  and  C_28
REMARK                            x       y       z     vdW  Elec       q    Type
REMARK                         _______ _______ _______ _____ _____    ______ ____
ROOT
ATOM      1  C   UNL     1       4.498  -5.887   7.443  0.00  0.00    +0.112 A 
ATOM      2  C   UNL     1       5.879  -5.972   7.418  0.00  0.00    +0.030 A 
ATOM      3  C   UNL     1       6.576  -6.197   8.591  0.00  0.00    +0.018 A 
ATOM      4  C   UNL     1       5.890  -6.339   9.785  0.00  0.00    +0.030 A 
ATOM      5  C   UNL     1       4.498  -6.261   9.818  0.00  0.00    +0.049 A 
ATOM      6  C   UNL     1       3.810  -6.023   8.632  0.00  0.00    +0.053 A 
ATOM      7  N   UNL     1       3.780  -6.422  10.999  0.00  0.00    -0.283 N 
ATOM      8  C   UNL     1       4.228  -6.947  12.135  0.00  0.00    +0.240 C 
ATOM      9  O   UNL     1       3.506  -6.914  13.109  0.00  0.00    -0.274 OA
ATOM     10  C   UNL     1       5.588  -7.580  12.271  0.00  0.00    +0.223 C 
ATOM     11  S   UNL     1       6.775  -6.615  11.288  0.00  0.00    -0.101 S 
ATOM     12  H   UNL     1       2.858  -6.120  10.992  0.00  0.00    +0.155 HD
ENDROOT
BRANCH  10  13
ATOM     13  C   UNL     1       5.538  -8.999  11.764  0.00  0.00    +0.238 C 
ATOM     14  O   UNL     1       4.830  -9.281  10.822  0.00  0.00    -0.274 OA
ATOM     15  N   UNL     1       6.283  -9.953  12.358  0.00  0.00    -0.300 N 
ATOM     16  C   UNL     1       7.177  -9.751  13.508  0.00  0.00    +0.108 C 
ATOM     17  C   UNL     1       7.834 -11.111  13.822  0.00  0.00    +0.020 C 
ATOM     18  C   UNL     1       7.704 -11.878  12.479  0.00  0.00    +0.020 C 
ATOM     19  C   UNL     1       6.330 -11.373  11.966  0.00  0.00    +0.108 C 
ENDBRANCH  10  13
BRANCH   1  20
ATOM     20  S   UNL     1       3.613  -5.595   5.948  0.00  0.00    +0.092 S 
ATOM     21  O   UNL     1       2.298  -6.094   6.151  0.00  0.00    -0.148 OA
ATOM     22  O   UNL     1       4.444  -6.047   4.888  0.00  0.00    -0.148 OA
BRANCH  20  23
ATOM     23  N   UNL     1       3.474  -3.954   5.774  0.00  0.00    -0.098 NA
BRANCH  23  27
ATOM     24  C   UNL     1       1.501  -2.373   2.474  0.00  0.00    +0.059 A 
ATOM     25  C   UNL     1       2.049  -1.520   3.438  0.00  0.00    +0.017 A 
ATOM     26  C   UNL     1       2.698  -2.045   4.525  0.00  0.00    +0.027 A 
ATOM     27  C   UNL     1       2.814  -3.425   4.670  0.00  0.00    +0.074 A 
ATOM     28  C   UNL     1       2.270  -4.277   3.713  0.00  0.00    +0.027 A 
ATOM     29  C   UNL     1       1.614  -3.759   2.626  0.00  0.00    +0.017 A 
BRANCH  24  30
ATOM     30  C   UNL     1       0.801  -1.813   1.304  0.00  0.00    +0.339 C 
ATOM     31  O   UNL     1       0.321  -2.555   0.470  0.00  0.00    -0.245 OA
BRANCH  30  32
ATOM     32  O   UNL     1       0.693  -0.477   1.160  0.00  0.00    -0.461 OA
BRANCH  32  34
ATOM     33  C   UNL     1      -0.019   1.526   0.010  0.00  0.00    +0.048 C 
ATOM     34  C   UNL     1       0.002  -0.004   0.002  0.00  0.00    +0.229 C 
ENDBRANCH  32  34
ENDBRANCH  30  32
ENDBRANCH  24  30
ENDBRANCH  23  27
ENDBRANCH  20  23
ENDBRANCH   1  20
TORSDOF 7
