REMARK  Name = ZINC04233954
REMARK  10 active torsions:
REMARK  status: ('A' for Active; 'I' for Inactive)
REMARK    1  A    between atoms: C_1  and  C_2
REMARK    2  A    between atoms: C_2  and  C_3
REMARK    3  A    between atoms: C_2  and  C_4
REMARK    4  A    between atoms: C_4  and  N_6
REMARK    5  A    between atoms: N_8  and  C_20
REMARK    6  A    between atoms: C_12  and  S_16
REMARK    7  A    between atoms: S_16  and  N_19
REMARK    8  A    between atoms: C_20  and  C_21
REMARK    9  A    between atoms: C_21  and  O_23
REMARK   10  A    between atoms: O_23  and  C_24
REMARK                            x       y       z     vdW  Elec       q    Type
REMARK                         _______ _______ _______ _____ _____    ______ ____
ROOT
ATOM      1  N   UNL     1      -2.313   1.495   0.803  0.00  0.00    -0.156 NA
ATOM      2  C   UNL     1      -2.543   1.621   2.108  0.00  0.00    +0.167 A 
ATOM      3  N   UNL     1      -3.640   1.236   2.812  0.00  0.00    -0.310 N 
ATOM      4  C   UNL     1      -3.700   1.451   4.176  0.00  0.00    +0.058 A 
ATOM      5  C   UNL     1      -4.738   1.127   5.064  0.00  0.00    +0.029 A 
ATOM      6  C   UNL     1      -4.632   1.415   6.404  0.00  0.00    +0.030 A 
ATOM      7  C   UNL     1      -3.504   2.032   6.919  0.00  0.00    +0.106 A 
ATOM      8  C   UNL     1      -2.466   2.363   6.066  0.00  0.00    +0.045 A 
ATOM      9  C   UNL     1      -2.571   2.075   4.726  0.00  0.00    +0.041 A 
ATOM     10  S   UNL     1      -1.512   2.309   3.321  0.00  0.00    -0.052 S 
ENDROOT
BRANCH   7  11
ATOM     11  S   UNL     1      -3.393   2.392   8.640  0.00  0.00    +0.056 S 
ATOM     12  O   UNL     1      -2.466   3.462   8.772  0.00  0.00    -0.153 OA
ATOM     13  O   UNL     1      -4.726   2.475   9.125  0.00  0.00    -0.153 OA
BRANCH  11  14
ATOM     14  N   UNL     1      -2.703   1.077   9.372  0.00  0.00    -0.204 NA
ATOM     15  H   UNL     1      -2.166   1.192  10.171  0.00  0.00    +0.144 HD
ATOM     16  H   UNL     1      -2.837   0.190   9.001  0.00  0.00    +0.144 HD
ENDBRANCH  11  14
ENDBRANCH   7  11
BRANCH   1  17
ATOM     17  C   UNL     1      -1.171   1.934   0.284  0.00  0.00    +0.241 C 
ATOM     18  O   UNL     1      -0.336   2.451   1.002  0.00  0.00    -0.273 OA
BRANCH  17  20
ATOM     19  C   UNL     1       0.465   2.373  -1.527  0.00  0.00    +0.017 C 
ATOM     20  C   UNL     1      -0.910   1.792  -1.193  0.00  0.00    +0.071 C 
ATOM     21  C   UNL     1      -1.986   2.547  -1.976  0.00  0.00    +0.017 C 
ENDBRANCH  17  20
ENDBRANCH   1  17
BRANCH   3  22
ATOM     22  C   UNL     1      -4.761   0.591   2.123  0.00  0.00    +0.244 C 
BRANCH  22  23
ATOM     23  C   UNL     1      -5.008   1.284   0.808  0.00  0.00    +0.327 C 
ATOM     24  O   UNL     1      -4.433   2.316   0.551  0.00  0.00    -0.249 OA
BRANCH  23  25
ATOM     25  O   UNL     1      -5.866   0.755  -0.079  0.00  0.00    -0.467 OA
ATOM     26  C   UNL     1      -6.054   1.476  -1.325  0.00  0.00    +0.280 C 
ENDBRANCH  23  25
ENDBRANCH  22  23
ENDBRANCH   3  22
TORSDOF 7
