REMARK  Name = ZINC59895409
REMARK  5 active torsions:
REMARK  status: ('A' for Active; 'I' for Inactive)
REMARK    1  A    between atoms: N_8  and  C_9
REMARK    2  A    between atoms: C_9  and  C_10
REMARK    3  A    between atoms: C_10  and  N_11
REMARK    4  A    between atoms: C_12  and  C_14
REMARK    5  A    between atoms: C_20  and  C_22
REMARK                            x       y       z     vdW  Elec       q    Type
REMARK                         _______ _______ _______ _____ _____    ______ ____
ROOT
ATOM      1  C   UNL     1       4.848  -7.016  -0.117  0.00  0.00    +0.162 C 
ATOM      2  C   UNL     1       5.503  -6.627  -1.459  0.00  0.00    +0.033 C 
ATOM      3  C   UNL     1       6.133  -7.962  -1.938  0.00  0.00    +0.021 C 
ATOM      4  C   UNL     1       5.090  -8.994  -1.441  0.00  0.00    +0.108 C 
ATOM      5  N   UNL     1       4.629  -8.469  -0.139  0.00  0.00    -0.289 N 
ATOM      6  C   UNL     1       4.097  -9.198   0.862  0.00  0.00    +0.222 C 
ATOM      7  O   UNL     1       3.826  -8.671   1.920  0.00  0.00    -0.275 OA
ENDROOT
BRANCH   6   8
ATOM      8  C   UNL     1       3.838 -10.670   0.666  0.00  0.00    +0.048 C 
ATOM      9  C   UNL     1       5.170 -11.418   0.600  0.00  0.00    +0.019 C 
ATOM     10  C   UNL     1       4.907 -12.912   0.402  0.00  0.00    -0.009 C 
ATOM     11  C   UNL     1       4.081 -13.445   1.574  0.00  0.00    +0.007 C 
ATOM     12  C   UNL     1       2.748 -12.697   1.640  0.00  0.00    -0.009 C 
ATOM     13  C   UNL     1       3.011 -11.203   1.838  0.00  0.00    +0.019 C 
ATOM     14  C   UNL     1       1.978 -12.910   0.335  0.00  0.00    +0.007 C 
ATOM     15  C   UNL     1       2.805 -12.377  -0.838  0.00  0.00    -0.009 C 
ATOM     16  C   UNL     1       4.138 -13.126  -0.903  0.00  0.00    +0.007 C 
ATOM     17  C   UNL     1       3.068 -10.883  -0.639  0.00  0.00    +0.019 C 
ENDBRANCH   6   8
BRANCH   1  19
ATOM     18  N   UNL     1       3.494  -4.954   0.074  0.00  0.00    -0.312 N 
ATOM     19  C   UNL     1       3.530  -6.301   0.036  0.00  0.00    +0.234 C 
ATOM     20  O   UNL     1       2.502  -6.938   0.126  0.00  0.00    -0.274 OA
ATOM     21  H   UNL     1       4.317  -4.445   0.003  0.00  0.00    +0.149 HD
BRANCH  18  22
ATOM     22  C   UNL     1       2.213  -4.259   0.223  0.00  0.00    +0.123 C 
BRANCH  22  23
ATOM     23  C   UNL     1       2.451  -2.748   0.237  0.00  0.00    +0.121 C 
BRANCH  23  31
ATOM     24  C   UNL     1      -0.111   1.374   0.603  0.00  0.00    +0.045 A 
ATOM     25  C   UNL     1       1.093   2.059   0.497  0.00  0.00    +0.061 A 
ATOM     26  C   UNL     1       2.268   1.345   0.359  0.00  0.00    +0.133 A 
ATOM     27  N   UNL     1       2.258   0.026   0.327  0.00  0.00    -0.238 NA
ATOM     28  C   UNL     1       1.133  -0.663   0.425  0.00  0.00    +0.137 A 
ATOM     29  C   UNL     1      -0.088  -0.009   0.566  0.00  0.00    +0.082 A 
ATOM     30 CL   UNL     1      -1.563  -0.917   0.695  0.00  0.00    -0.080 Cl
ATOM     31  N   UNL     1       1.170  -2.053   0.386  0.00  0.00    -0.326 N 
ATOM     32 CL   UNL     1       1.121   3.794   0.536  0.00  0.00    -0.082 Cl
ATOM     33  H   UNL     1       0.347  -2.563   0.457  0.00  0.00    +0.148 HD
ENDBRANCH  23  31
ENDBRANCH  22  23
ENDBRANCH  18  22
ENDBRANCH   1  19
TORSDOF 5
