REMARK  Name = ZINC03360619
REMARK  5 active torsions:
REMARK  status: ('A' for Active; 'I' for Inactive)
REMARK    1  A    between atoms: C_4  and  N_20
REMARK    2  A    between atoms: C_5  and  C_7
REMARK    3  A    between atoms: N_9  and  C_10
REMARK    4  A    between atoms: N_20  and  S_21
REMARK    5  A    between atoms: S_21  and  C_24
REMARK                            x       y       z     vdW  Elec       q    Type
REMARK                         _______ _______ _______ _____ _____    ______ ____
ROOT
ATOM      1  C   UNL     1       7.332  -2.700   0.201  0.00  0.00    +0.001 A 
ATOM      2  C   UNL     1       7.343  -4.074   0.386  0.00  0.00    +0.002 A 
ATOM      3  C   UNL     1       6.161  -4.785   0.403  0.00  0.00    +0.025 A 
ATOM      4  C   UNL     1       4.949  -4.127   0.234  0.00  0.00    +0.060 A 
ATOM      5  C   UNL     1       4.935  -2.736   0.046  0.00  0.00    +0.059 A 
ATOM      6  C   UNL     1       6.141  -2.030   0.027  0.00  0.00    +0.015 A 
ENDROOT
BRANCH   5   7
ATOM      7  C   UNL     1       3.656  -2.025  -0.134  0.00  0.00    +0.250 C 
ATOM      8  O   UNL     1       2.610  -2.644  -0.122  0.00  0.00    -0.270 OA
ATOM      9  N   UNL     1       3.648  -0.690  -0.314  0.00  0.00    -0.281 N 
ATOM     10  H   UNL     1       4.484  -0.206  -0.401  0.00  0.00    +0.155 HD
BRANCH   9  11
ATOM     11  C   UNL     1       2.431   0.001  -0.375  0.00  0.00    +0.037 A 
ATOM     12  C   UNL     1       2.306   1.119  -1.188  0.00  0.00    +0.027 A 
ATOM     13  C   UNL     1       1.106   1.800  -1.248  0.00  0.00    +0.051 A 
ATOM     14  C   UNL     1       0.022   1.371  -0.496  0.00  0.00    +0.162 A 
ATOM     15  C   UNL     1       0.143   0.250   0.317  0.00  0.00    +0.164 A 
ATOM     16  C   UNL     1       1.348  -0.433   0.378  0.00  0.00    +0.072 A 
ATOM     17  O   UNL     1      -0.911  -0.192   1.056  0.00  0.00    -0.485 OA
ATOM     18  C   UNL     1      -1.987   0.731   1.258  0.00  0.00    +0.270 C 
ATOM     19  C   UNL     1      -2.321   1.383  -0.090  0.00  0.00    +0.270 C 
ATOM     20  O   UNL     1      -1.150   2.060  -0.562  0.00  0.00    -0.485 OA
ENDBRANCH   9  11
ENDBRANCH   5   7
BRANCH   4  21
ATOM     21  N   UNL     1       3.759  -4.842   0.250  0.00  0.00    -0.215 N 
ATOM     22  H   UNL     1       3.027  -4.578  -0.330  0.00  0.00    +0.174 HD
BRANCH  21  23
ATOM     23  S   UNL     1       3.588  -6.144   1.259  0.00  0.00    +0.079 S 
ATOM     24  O   UNL     1       2.237  -6.570   1.146  0.00  0.00    -0.149 OA
ATOM     25  O   UNL     1       4.684  -7.009   0.995  0.00  0.00    -0.149 OA
BRANCH  23  26
ATOM     26  C   UNL     1       3.795  -5.557   2.907  0.00  0.00    +0.146 A 
ATOM     27  C   UNL     1       2.861  -5.087   3.769  0.00  0.00    +0.036 A 
ATOM     28  C   UNL     1       3.258  -4.676   5.029  0.00  0.00    +0.010 A 
ATOM     29  C   UNL     1       4.569  -4.756   5.363  0.00  0.00    +0.047 A 
ATOM     30  S   UNL     1       5.289  -5.433   3.877  0.00  0.00    -0.077 S 
ENDBRANCH  23  26
ENDBRANCH  21  23
ENDBRANCH   4  21
TORSDOF 5
