REMARK  Name = ZINC65639235
REMARK  10 active torsions:
REMARK  status: ('A' for Active; 'I' for Inactive)
REMARK    1  A    between atoms: C_1  and  C_2
REMARK    2  A    between atoms: C_5  and  C_23
REMARK    3  A    between atoms: C_7  and  N_8
REMARK    4  A    between atoms: C_9  and  C_11
REMARK    5  A    between atoms: N_13  and  C_14
REMARK    6  A    between atoms: C_14  and  C_15
REMARK    7  A    between atoms: N_18  and  C_20
REMARK    8  A    between atoms: C_20  and  C_21
REMARK    9  A    between atoms: C_20  and  C_22
REMARK   10  A    between atoms: N_25  and  C_26
REMARK                            x       y       z     vdW  Elec       q    Type
REMARK                         _______ _______ _______ _____ _____    ______ ____
ROOT
ATOM      1  N   UNL     1       0.025  -0.009   2.416  0.00  0.00    -0.277 N 
ATOM      2  C   UNL     1      -0.057  -0.684   3.579  0.00  0.00    +0.303 C 
ATOM      3  O   UNL     1      -0.040  -1.898   3.579  0.00  0.00    -0.265 OA
ATOM      4  H   UNL     1       0.078   0.960   2.420  0.00  0.00    +0.155 HD
ENDROOT
BRANCH   1  11
ATOM      5  C   UNL     1      -1.267   1.183   0.183  0.00  0.00    +0.045 C 
ATOM      6  C   UNL     1      -0.587  -0.158   0.086  0.00  0.00    -0.029 A 
ATOM      7  C   UNL     1      -0.576  -0.839  -1.117  0.00  0.00    +0.006 A 
ATOM      8  C   UNL     1       0.044  -2.068  -1.215  0.00  0.00    +0.013 A 
ATOM      9  C   UNL     1       0.664  -2.627  -0.096  0.00  0.00    +0.038 A 
ATOM     10  C   UNL     1       0.655  -1.941   1.117  0.00  0.00    +0.036 A 
ATOM     11  C   UNL     1       0.033  -0.704   1.204  0.00  0.00    +0.037 A 
BRANCH   9  12
ATOM     12  C   UNL     1       1.329  -3.944  -0.198  0.00  0.00    +0.244 C 
ATOM     13  O   UNL     1       1.869  -4.429   0.777  0.00  0.00    -0.270 OA
ATOM     14  N   UNL     1       1.337  -4.606  -1.372  0.00  0.00    -0.314 N 
ATOM     15  C   UNL     1       1.996  -5.911  -1.472  0.00  0.00    +0.128 C 
ATOM     16  H   UNL     1       0.906  -4.219  -2.150  0.00  0.00    +0.149 HD
ENDBRANCH   9  12
ENDBRANCH   1  11
BRANCH   2  17
ATOM     17  C   UNL     1      -0.167   0.060   4.869  0.00  0.00    +0.299 C 
ATOM     18  O   UNL     1      -0.183   1.274   4.870  0.00  0.00    -0.265 OA
ATOM     19  N   UNL     1      -0.248  -0.615   6.033  0.00  0.00    -0.307 N 
ATOM     20  H   UNL     1      -0.235  -1.585   6.032  0.00  0.00    +0.149 HD
BRANCH  19  21
ATOM     21  C   UNL     1      -0.357   0.116   7.298  0.00  0.00    +0.106 C 
BRANCH  21  22
ATOM     22  C   UNL     1      -0.434  -0.880   8.457  0.00  0.00    -0.012 C 
ATOM     23  C   UNL     1       0.934  -1.566   8.680  0.00  0.00    -0.015 C 
ATOM     24  C   UNL     1       1.091  -1.661  10.209  0.00  0.00    -0.078 C 
ATOM     25  N   UNL     1      -0.135  -1.089  10.808  0.00  0.00    +0.381 N 
ATOM     26  C   UNL     1      -0.675  -0.143   9.798  0.00  0.00    -0.074 C 
ATOM     27  H   UNL     1      -0.805  -1.820  10.994  0.00  0.00    -0.081 HD
BRANCH  25  28
ATOM     28  C   UNL     1       0.194  -0.373  12.048  0.00  0.00    -0.075 C 
ATOM     29  C   UNL     1      -1.079   0.242  12.634  0.00  0.00    -0.014 C 
ATOM     30  C   UNL     1       0.799  -1.352  13.056  0.00  0.00    -0.014 C 
ENDBRANCH  25  28
ENDBRANCH  21  22
ENDBRANCH  19  21
ENDBRANCH   2  17
TORSDOF 6
