REMARK  Name = ZINC40227240
REMARK  2 active torsions:
REMARK  status: ('A' for Active; 'I' for Inactive)
REMARK    1  A    between atoms: C_9  and  N_11
REMARK    2  A    between atoms: N_11  and  C_12
REMARK                            x       y       z     vdW  Elec       q    Type
REMARK                         _______ _______ _______ _____ _____    ______ ____
ROOT
ATOM      1  N   UNL     1       1.214  -2.087  -0.021  0.00  0.00    -0.335 N 
ATOM      2  H   UNL     1       2.058  -2.565  -0.031  0.00  0.00    +0.147 HD
ENDROOT
BRANCH   1  11
ATOM      3  C   UNL     1      -0.017   1.385   0.010  0.00  0.00    +0.003 A 
ATOM      4  C   UNL     1       1.146   2.098   0.002  0.00  0.00    +0.011 A 
ATOM      5  C   UNL     1       2.378   1.429  -0.013  0.00  0.00    +0.021 A 
ATOM      6  C   UNL     1       3.725   1.867  -0.024  0.00  0.00    +0.142 A 
ATOM      7  N   UNL     1       4.502   0.823  -0.037  0.00  0.00    -0.181 NA
ATOM      8  N   UNL     1       3.727  -0.344  -0.036  0.00  0.00    -0.275 N 
ATOM      9  H   UNL     1       4.066  -1.253  -0.043  0.00  0.00    +0.189 HD
ATOM     10  C   UNL     1       2.405   0.024  -0.021  0.00  0.00    +0.086 A 
ATOM     11  C   UNL     1       1.203  -0.690  -0.013  0.00  0.00    +0.053 A 
ATOM     12  C   UNL     1       0.002  -0.004   0.002  0.00  0.00    +0.025 A 
ENDBRANCH   1  11
BRANCH   1  13
ATOM     13  C   UNL     1      -0.048  -2.830  -0.013  0.00  0.00    +0.101 C 
ATOM     14  C   UNL     1       0.157  -4.242  -0.603  0.00  0.00    +0.031 C 
ATOM     15  C   UNL     1      -0.817  -5.096   0.236  0.00  0.00    +0.037 C 
ATOM     16  C   UNL     1      -0.956  -4.362   1.552  0.00  0.00    -0.041 A 
ATOM     17  C   UNL     1      -0.516  -3.057   1.409  0.00  0.00    -0.024 A 
ATOM     18  C   UNL     1      -0.552  -2.192   2.490  0.00  0.00    +0.007 A 
ATOM     19  C   UNL     1      -1.028  -2.626   3.712  0.00  0.00    +0.015 A 
ATOM     20  C   UNL     1      -1.469  -3.929   3.857  0.00  0.00    +0.018 A 
ATOM     21  C   UNL     1      -1.431  -4.798   2.777  0.00  0.00    +0.019 A 
ATOM     22 BR   UNL     1      -2.121  -4.527   5.528  0.00  0.00    -0.050 Br
ENDBRANCH   1  13
TORSDOF 2
