REMARK  Name = ZINC13038806
REMARK  14 active torsions:
REMARK  status: ('A' for Active; 'I' for Inactive)
REMARK    1  A    between atoms: C_1  and  C_2
REMARK    2  A    between atoms: C_2  and  O_3
REMARK    3  A    between atoms: O_3  and  C_4
REMARK    4  A    between atoms: C_4  and  C_6
REMARK    5  A    between atoms: C_7  and  C_33
REMARK    6  A    between atoms: C_8  and  C_22
REMARK    7  A    between atoms: C_10  and  N_11
REMARK    8  A    between atoms: C_12  and  C_14
REMARK    9  A    between atoms: C_14  and  N_69
REMARK   10  A    between atoms: C_15  and  N_69
REMARK   11  A    between atoms: C_16  and  N_69
REMARK   12  A    between atoms: N_24  and  C_25
REMARK   13  A    between atoms: C_28  and  C_32
REMARK   14  A    between atoms: C_30  and  C_31
REMARK                            x       y       z     vdW  Elec       q    Type
REMARK                         _______ _______ _______ _____ _____    ______ ____
ROOT
ATOM      1  C   UNL     1       5.253  -2.711   0.355  0.00  0.00    +0.091 A 
ATOM      2  C   UNL     1       3.935  -2.287   0.279  0.00  0.00    -0.015 A 
ATOM      3  C   UNL     1       3.706  -0.942   0.176  0.00  0.00    +0.080 A 
ATOM      4  S   UNL     1       5.354  -0.261   0.180  0.00  0.00    -0.068 S 
ATOM      5  C   UNL     1       6.255  -1.735   0.322  0.00  0.00    +0.087 A 
ATOM      6  C   UNL     1       2.796  -3.272   0.308  0.00  0.00    +0.046 C 
ENDROOT
BRANCH   5   7
ATOM      7  N   UNL     1       7.624  -1.904   0.382  0.00  0.00    -0.281 N 
ATOM      8  C   UNL     1       8.438  -0.831   0.335  0.00  0.00    +0.201 C 
ATOM      9  O   UNL     1       7.968   0.283   0.240  0.00  0.00    -0.278 OA
ATOM     10  H   UNL     1       8.000  -2.795   0.458  0.00  0.00    +0.155 HD
BRANCH   8  11
ATOM     11  C   UNL     1       9.933  -1.015   0.401  0.00  0.00    +0.019 C 
BRANCH  11  13
ATOM     12  C   UNL     1      10.374   0.926  -0.977  0.00  0.00    -0.095 C 
ATOM     13  N   UNL     1      10.580   0.313   0.352  0.00  0.00    +0.385 N 
ATOM     14  H   UNL     1      10.156   0.916   1.067  0.00  0.00    -0.081 HD
BRANCH  13  15
ATOM     15  C   UNL     1      12.025   0.181   0.629  0.00  0.00    -0.068 C 
ATOM     16  C   UNL     1      12.210  -0.387   2.038  0.00  0.00    -0.015 C 
ATOM     17  C   UNL     1      13.704  -0.507   2.348  0.00  0.00    -0.002 C 
ATOM     18  C   UNL     1      14.354   0.875   2.266  0.00  0.00    -0.000 C 
ATOM     19  C   UNL     1      14.169   1.444   0.858  0.00  0.00    -0.002 C 
ATOM     20  C   UNL     1      12.675   1.563   0.548  0.00  0.00    -0.015 C 
ENDBRANCH  13  15
ENDBRANCH  11  13
ENDBRANCH   8  11
ENDBRANCH   5   7
BRANCH   3  21
ATOM     21  C   UNL     1       2.426  -0.237   0.081  0.00  0.00    +0.255 C 
ATOM     22  O   UNL     1       1.383  -0.865   0.088  0.00  0.00    -0.269 OA
ATOM     23  N   UNL     1       2.402   1.107  -0.014  0.00  0.00    -0.281 N 
ATOM     24  H   UNL     1       3.233   1.603  -0.085  0.00  0.00    +0.155 HD
BRANCH  23  25
ATOM     25  C   UNL     1       1.180   1.787  -0.010  0.00  0.00    +0.037 A 
ATOM     26  C   UNL     1       0.064   1.216  -0.608  0.00  0.00    +0.024 A 
ATOM     27  C   UNL     1      -1.140   1.891  -0.607  0.00  0.00    +0.005 A 
ATOM     28  C   UNL     1      -1.238   3.131  -0.002  0.00  0.00    -0.050 A 
ATOM     29  C   UNL     1      -0.130   3.702   0.595  0.00  0.00    +0.008 A 
ATOM     30  C   UNL     1       1.079   3.034   0.592  0.00  0.00    -0.029 A 
ATOM     31  C   UNL     1       2.287   3.657   1.243  0.00  0.00    +0.045 C 
ATOM     32  C   UNL     1      -2.556   3.863   0.003  0.00  0.00    +0.044 C 
ENDBRANCH  23  25
ENDBRANCH   3  21
BRANCH   1  33
ATOM     33  C   UNL     1       5.586  -4.136   0.468  0.00  0.00    +0.342 C 
ATOM     34  O   UNL     1       5.761  -4.800  -0.536  0.00  0.00    -0.245 OA
BRANCH  33  35
ATOM     35  O   UNL     1       5.699  -4.708   1.683  0.00  0.00    -0.461 OA
BRANCH  35  37
ATOM     36  C   UNL     1       6.114  -6.589   3.173  0.00  0.00    +0.048 C 
ATOM     37  C   UNL     1       6.030  -6.121   1.719  0.00  0.00    +0.229 C 
ENDBRANCH  35  37
ENDBRANCH  33  35
ENDBRANCH   1  33
TORSDOF 9
