REMARK  Name = ZINC20876875
REMARK  9 active torsions:
REMARK  status: ('A' for Active; 'I' for Inactive)
REMARK    1  A    between atoms: C_1  and  O_2
REMARK    2  A    between atoms: O_2  and  C_3
REMARK    3  A    between atoms: C_5  and  C_22
REMARK    4  A    between atoms: C_8  and  O_9
REMARK    5  A    between atoms: O_9  and  C_10
REMARK    6  A    between atoms: C_10  and  C_11
REMARK    7  A    between atoms: C_22  and  N_23
REMARK    8  A    between atoms: N_23  and  C_24
REMARK    9  A    between atoms: C_24  and  C_25
REMARK                            x       y       z     vdW  Elec       q    Type
REMARK                         _______ _______ _______ _____ _____    ______ ____
ROOT
ATOM      1  C   UNL     1      -2.424   1.283  -2.894  0.00  0.00    +0.163 A 
ATOM      2  C   UNL     1      -1.750   0.823  -1.774  0.00  0.00    +0.051 A 
ATOM      3  C   UNL     1      -0.742   1.585  -1.213  0.00  0.00    -0.060 A 
ATOM      4  C   UNL     1      -0.397   2.801  -1.773  0.00  0.00    +0.021 A 
ATOM      5  C   UNL     1      -1.062   3.263  -2.894  0.00  0.00    +0.063 A 
ATOM      6  C   UNL     1      -2.078   2.506  -3.458  0.00  0.00    +0.176 A 
ATOM      7 BR   UNL     1      -0.588   4.928  -3.656  0.00  0.00    -0.046 Br
ENDROOT
BRANCH   1   9
ATOM      8  C   UNL     1      -3.721  -0.709  -2.811  0.00  0.00    +0.277 C 
ATOM      9  O   UNL     1      -3.420   0.537  -3.443  0.00  0.00    -0.491 OA
ENDBRANCH   1   9
BRANCH   6  10
ATOM     10  O   UNL     1      -2.733   2.959  -4.560  0.00  0.00    -0.483 OA
BRANCH  10  11
ATOM     11  C   UNL     1      -2.196   2.590  -5.832  0.00  0.00    +0.265 C 
BRANCH  11  12
ATOM     12  C   UNL     1      -3.048   3.178  -6.927  0.00  0.00    -0.007 A 
ATOM     13  C   UNL     1      -4.114   2.458  -7.433  0.00  0.00    +0.011 A 
ATOM     14  C   UNL     1      -4.900   2.995  -8.435  0.00  0.00    +0.050 A 
ATOM     15  C   UNL     1      -4.614   4.254  -8.943  0.00  0.00    +0.162 A 
ATOM     16  C   UNL     1      -3.541   4.976  -8.436  0.00  0.00    +0.162 A 
ATOM     17  C   UNL     1      -2.759   4.433  -7.427  0.00  0.00    +0.056 A 
ATOM     18  O   UNL     1      -3.249   6.217  -8.913  0.00  0.00    -0.485 OA
ATOM     19  C   UNL     1      -3.823   6.572 -10.176  0.00  0.00    +0.270 C 
ATOM     20  C   UNL     1      -5.306   6.177 -10.158  0.00  0.00    +0.270 C 
ATOM     21  O   UNL     1      -5.391   4.765  -9.937  0.00  0.00    -0.485 OA
ENDBRANCH  11  12
ENDBRANCH  10  11
ENDBRANCH   6  10
BRANCH   3  22
ATOM     22  C   UNL     1      -0.013   1.086   0.008  0.00  0.00    -0.046 C 
BRANCH  22  23
ATOM     23  N   UNL     1      -0.700   1.560   1.217  0.00  0.00    +0.384 N 
ATOM     24  H   UNL     1      -0.715   2.659   1.223  0.00  0.00    -0.085 HD
ATOM     25  H   UNL     1      -1.732   1.179   1.224  0.00  0.00    -0.085 HD
BRANCH  23  26
ATOM     26  C   UNL     1      -0.016   1.091   2.429  0.00  0.00    -0.046 C 
BRANCH  26  27
ATOM     27  C   UNL     1      -0.749   1.596   3.646  0.00  0.00    -0.061 A 
ATOM     28  C   UNL     1      -0.402   2.812   4.205  0.00  0.00    +0.005 A 
ATOM     29  C   UNL     1      -1.074   3.281   5.317  0.00  0.00    +0.050 A 
ATOM     30  C   UNL     1      -2.091   2.528   5.883  0.00  0.00    +0.166 A 
ATOM     31  C   UNL     1      -2.437   1.301   5.322  0.00  0.00    +0.166 A 
ATOM     32  C   UNL     1      -1.762   0.839   4.204  0.00  0.00    +0.051 A 
ATOM     33  O   UNL     1      -3.455   0.759   6.053  0.00  0.00    -0.453 OA
ATOM     34  C   UNL     1      -3.453   1.474   7.303  0.00  0.00    +0.466 C 
ATOM     35  O   UNL     1      -2.892   2.756   6.964  0.00  0.00    -0.453 OA
ENDBRANCH  26  27
ENDBRANCH  23  26
ENDBRANCH  22  23
ENDBRANCH   3  22
TORSDOF 8
