REMARK  Name = ZINC19909371
REMARK  7 active torsions:
REMARK  status: ('A' for Active; 'I' for Inactive)
REMARK    1  A    between atoms: C_1  and  C_2
REMARK    2  A    between atoms: C_5  and  C_8
REMARK    3  A    between atoms: N_9  and  N_10
REMARK    4  A    between atoms: C_11  and  C_13
REMARK    5  A    between atoms: C_16  and  N_19
REMARK    6  A    between atoms: N_22  and  C_23
REMARK    7  A    between atoms: C_27  and  C_29
REMARK                            x       y       z     vdW  Elec       q    Type
REMARK                         _______ _______ _______ _____ _____    ______ ____
ROOT
ATOM      1  C   UNL     1       4.680   9.338   0.201  0.00  0.00    +0.038 A 
ATOM      2  C   UNL     1       3.455  10.012   0.214  0.00  0.00    +0.015 A 
ATOM      3  C   UNL     1       2.279   9.298   0.216  0.00  0.00    +0.024 A 
ATOM      4  C   UNL     1       2.307   7.907   0.206  0.00  0.00    +0.035 A 
ATOM      5  C   UNL     1       3.525   7.232   0.199  0.00  0.00    +0.024 A 
ATOM      6  C   UNL     1       4.705   7.940   0.191  0.00  0.00    +0.015 A 
ENDROOT
BRANCH   4   7
ATOM      7  N   UNL     1       1.113   7.186   0.208  0.00  0.00    -0.269 N 
ATOM      8  C   UNL     1       1.021   6.033  -0.483  0.00  0.00    +0.308 C 
ATOM      9  O   UNL     1       2.001   5.577  -1.039  0.00  0.00    -0.252 OA
ATOM     10  N   UNL     1      -0.159   5.385  -0.557  0.00  0.00    -0.269 N 
ATOM     11  H   UNL     1       0.247   7.559   0.774  0.00  0.00    +0.156 HD
ATOM     12  H   UNL     1      -1.064   5.839  -0.127  0.00  0.00    +0.156 HD
BRANCH  10  13
ATOM     13  C   UNL     1      -0.232   4.135  -1.183  0.00  0.00    +0.035 A 
ATOM     14  C   UNL     1       0.842   3.257  -1.111  0.00  0.00    +0.023 A 
ATOM     15  C   UNL     1       0.766   2.024  -1.728  0.00  0.00    +0.002 A 
ATOM     16  C   UNL     1      -0.377   1.664  -2.418  0.00  0.00    +0.012 A 
ATOM     17  C   UNL     1      -1.445   2.538  -2.496  0.00  0.00    +0.057 A 
ATOM     18  C   UNL     1      -1.378   3.770  -1.876  0.00  0.00    +0.035 A 
BRANCH  17  19
ATOM     19  C   UNL     1      -2.687   2.143  -3.254  0.00  0.00    +0.417 C 
ATOM     20  F   UNL     1      -2.521   0.860  -3.785  0.00  0.00    -0.166 F 
ATOM     21  F   UNL     1      -3.785   2.151  -2.387  0.00  0.00    -0.166 F 
ATOM     22  F   UNL     1      -2.907   3.053  -4.294  0.00  0.00    -0.166 F 
ENDBRANCH  17  19
ENDBRANCH  10  13
ENDBRANCH   4   7
BRANCH   1  24
ATOM     23  N   UNL     1       7.123   9.449   0.186  0.00  0.00    -0.203 N 
ATOM     24  C   UNL     1       5.943  10.100   0.198  0.00  0.00    +0.263 C 
ATOM     25  O   UNL     1       5.920  11.316   0.206  0.00  0.00    -0.268 OA
ATOM     26  H   UNL     1       7.144   8.349   0.178  0.00  0.00    +0.178 HD
BRANCH  23  28
ATOM     27  C   UNL     1       9.459   9.545   0.171  0.00  0.00    +0.138 C 
ATOM     28  N   UNL     1       8.323  10.172   0.182  0.00  0.00    -0.187 NA
BRANCH  27  33
ATOM     29  C   UNL     1      14.383  12.516   0.154  0.00  0.00    +0.044 C 
ATOM     30  C   UNL     1      13.093  11.738   0.159  0.00  0.00    -0.050 A 
ATOM     31  C   UNL     1      13.123  10.354   0.151  0.00  0.00    +0.004 A 
ATOM     32  C   UNL     1      11.946   9.635   0.155  0.00  0.00    +0.010 A 
ATOM     33  C   UNL     1      10.722  10.307   0.167  0.00  0.00    -0.005 A 
ATOM     34  C   UNL     1      10.699  11.704   0.171  0.00  0.00    +0.010 A 
ATOM     35  C   UNL     1      11.884  12.410   0.172  0.00  0.00    +0.004 A 
ENDBRANCH  27  33
ENDBRANCH  23  28
ENDBRANCH   1  24
TORSDOF 6
