REMARK  Name = ZINC47521851
REMARK  8 active torsions:
REMARK  status: ('A' for Active; 'I' for Inactive)
REMARK    1  A    between atoms: C_1  and  C_2
REMARK    2  A    between atoms: C_2  and  C_3
REMARK    3  A    between atoms: C_2  and  C_4
REMARK    4  A    between atoms: C_2  and  C_5
REMARK    5  A    between atoms: C_5  and  C_7
REMARK    6  A    between atoms: C_5  and  N_12
REMARK    7  A    between atoms: N_15  and  C_16
REMARK    8  A    between atoms: C_20  and  N_22
REMARK                            x       y       z     vdW  Elec       q    Type
REMARK                         _______ _______ _______ _____ _____    ______ ____
ROOT
ATOM      1  N   UNL     1       0.766  -1.978  -1.292  0.00  0.00    -0.291 N 
ATOM      2  C   UNL     1      -0.298  -2.659  -1.762  0.00  0.00    +0.304 C 
ATOM      3  O   UNL     1      -1.271  -2.057  -2.174  0.00  0.00    -0.252 OA
ATOM      4  N   UNL     1      -0.285  -4.006  -1.774  0.00  0.00    -0.269 N 
ATOM      5  H   UNL     1       1.542  -2.459  -0.963  0.00  0.00    +0.151 HD
ATOM      6  H   UNL     1       0.515  -4.486  -1.506  0.00  0.00    +0.156 HD
ENDROOT
BRANCH   4   7
ATOM      7  C   UNL     1      -1.424  -4.714  -2.174  0.00  0.00    +0.037 A 
ATOM      8  C   UNL     1      -2.236  -4.211  -3.183  0.00  0.00    +0.023 A 
ATOM      9  C   UNL     1      -3.361  -4.909  -3.579  0.00  0.00    +0.004 A 
ATOM     10  C   UNL     1      -3.682  -6.109  -2.973  0.00  0.00    +0.024 A 
ATOM     11  C   UNL     1      -2.874  -6.617  -1.964  0.00  0.00    +0.040 A 
ATOM     12  C   UNL     1      -1.740  -5.921  -1.568  0.00  0.00    +0.047 A 
BRANCH  11  13
ATOM     13  N   UNL     1      -3.199  -7.832  -1.351  0.00  0.00    -0.254 N 
ATOM     14  C   UNL     1      -4.293  -8.726  -1.759  0.00  0.00    +0.134 C 
ATOM     15  C   UNL     1      -4.204  -9.898  -0.762  0.00  0.00    +0.125 C 
ATOM     16  N   UNL     1      -3.069  -9.539   0.103  0.00  0.00    -0.297 N 
ATOM     17  C   UNL     1      -2.561  -8.368  -0.302  0.00  0.00    +0.307 C 
ATOM     18  O   UNL     1      -1.608  -7.837   0.236  0.00  0.00    -0.252 OA
ATOM     19  H   UNL     1      -2.739 -10.069   0.845  0.00  0.00    +0.150 HD
ENDBRANCH  11  13
ENDBRANCH   4   7
BRANCH   1  20
ATOM     20  C   UNL     1       0.751  -0.514  -1.278  0.00  0.00    +0.117 C 
BRANCH  20  21
ATOM     21  C   UNL     1       2.167   0.003  -1.313  0.00  0.00    +0.011 A 
ATOM     22  C   UNL     1       2.672   1.063  -1.990  0.00  0.00    +0.013 A 
ATOM     23  C   UNL     1       4.018   1.355  -1.871  0.00  0.00    +0.008 A 
ATOM     24  C   UNL     1       4.792   0.573  -1.080  0.00  0.00    +0.045 A 
ATOM     25  S   UNL     1       3.611  -0.617  -0.467  0.00  0.00    -0.100 S 
ENDBRANCH  20  21
BRANCH  20  27
ATOM     26  C   UNL     1       0.045   1.508   0.009  0.00  0.00    +0.013 C 
ATOM     27  C   UNL     1       0.060  -0.022  -0.005  0.00  0.00    -0.015 C 
ATOM     28  C   UNL     1       0.821  -0.536   1.219  0.00  0.00    +0.013 C 
ATOM     29  C   UNL     1      -1.377  -0.547   0.031  0.00  0.00    +0.013 C 
ENDBRANCH  20  27
ENDBRANCH   1  20
TORSDOF 5
