REMARK  Name = ZINC65074689
REMARK  5 active torsions:
REMARK  status: ('A' for Active; 'I' for Inactive)
REMARK    1  A    between atoms: C_1  and  C_2
REMARK    2  A    between atoms: C_6  and  C_8
REMARK    3  A    between atoms: C_8  and  N_9
REMARK    4  A    between atoms: N_18  and  S_21
REMARK    5  A    between atoms: S_21  and  C_24
REMARK                            x       y       z     vdW  Elec       q    Type
REMARK                         _______ _______ _______ _____ _____    ______ ____
ROOT
ATOM      1  N   UNL     1       1.440  -3.073   2.903  0.00  0.00    -0.329 N 
ATOM      2  C   UNL     1       1.705  -3.750   4.064  0.00  0.00    +0.089 C 
ATOM      3  N   UNL     1       0.716  -4.171   4.758  0.00  0.00    -0.374 N 
ATOM      4  C   UNL     1       0.859  -4.895   6.017  0.00  0.00    +0.129 C 
ATOM      5  C   UNL     1       2.285  -5.430   6.157  0.00  0.00    +0.102 C 
ATOM      6  N   UNL     1       3.226  -4.333   5.873  0.00  0.00    -0.303 NA
ATOM      7  C   UNL     1       3.142  -3.961   4.451  0.00  0.00    +0.075 C 
ATOM      8  C   UNL     1       3.742  -5.081   3.596  0.00  0.00    +0.047 C 
ATOM      9  C   UNL     1       5.194  -5.320   4.021  0.00  0.00    +0.111 C 
ATOM     10  N   UNL     1       5.924  -4.047   3.945  0.00  0.00    -0.176 NA
ATOM     11  C   UNL     1       5.384  -2.879   4.654  0.00  0.00    +0.111 C 
ATOM     12  C   UNL     1       3.930  -2.669   4.223  0.00  0.00    +0.047 C 
ATOM     13  H   UNL     1       2.171  -2.745   2.355  0.00  0.00    +0.147 HD
ATOM     14  H   UNL     1       3.046  -3.539   6.469  0.00  0.00    +0.123 HD
ATOM     15  H   UNL     1      -0.179  -3.999   4.428  0.00  0.00    +0.161 HD
ENDROOT
BRANCH  10  16
ATOM     16  S   UNL     1       7.329  -3.931   3.076  0.00  0.00    +0.061 S 
ATOM     17  O   UNL     1       8.056  -2.839   3.623  0.00  0.00    -0.153 OA
ATOM     18  O   UNL     1       7.869  -5.243   2.999  0.00  0.00    -0.153 OA
BRANCH  16  19
ATOM     19  C   UNL     1       6.890  -3.470   1.433  0.00  0.00    +0.105 A 
ATOM     20  C   UNL     1       6.622  -4.445   0.490  0.00  0.00    +0.028 A 
ATOM     21  C   UNL     1       6.277  -4.084  -0.799  0.00  0.00    +0.002 A 
ATOM     22  C   UNL     1       6.199  -2.748  -1.145  0.00  0.00    +0.000 A 
ATOM     23  C   UNL     1       6.466  -1.773  -0.202  0.00  0.00    +0.002 A 
ATOM     24  C   UNL     1       6.807  -2.134   1.088  0.00  0.00    +0.028 A 
ENDBRANCH  16  19
ENDBRANCH  10  16
BRANCH   1  25
ATOM     25  C   UNL     1       0.054  -2.845   2.489  0.00  0.00    +0.138 C 
BRANCH  25  31
ATOM     26  C   UNL     1      -0.018   1.503   0.010  0.00  0.00    +0.044 C 
ATOM     27  C   UNL     1       0.002  -0.004   0.002  0.00  0.00    -0.050 A 
ATOM     28  C   UNL     1       0.006  -0.689  -1.199  0.00  0.00    +0.003 A 
ATOM     29  C   UNL     1       0.025  -2.071  -1.207  0.00  0.00    +0.001 A 
ATOM     30  C   UNL     1       0.040  -2.768  -0.013  0.00  0.00    +0.005 A 
ATOM     31  C   UNL     1       0.037  -2.084   1.188  0.00  0.00    -0.030 A 
ATOM     32  C   UNL     1       0.023  -0.702   1.195  0.00  0.00    +0.008 A 
ENDBRANCH  25  31
ENDBRANCH   1  25
TORSDOF 4
