REMARK  Name = ZINC39686728
REMARK  13 active torsions:
REMARK  status: ('A' for Active; 'I' for Inactive)
REMARK    1  A    between atoms: C_1  and  C_2
REMARK    2  A    between atoms: C_2  and  C_4
REMARK    3  A    between atoms: C_2  and  N_13
REMARK    4  A    between atoms: C_4  and  C_5
REMARK    5  A    between atoms: C_10  and  O_11
REMARK    6  A    between atoms: O_11  and  C_12
REMARK    7  A    between atoms: C_14  and  C_16
REMARK    8  A    between atoms: C_27  and  C_29
REMARK    9  A    between atoms: C_29  and  C_31
REMARK   10  A    between atoms: C_29  and  O_34
REMARK   11  A    between atoms: C_31  and  C_32
REMARK   12  A    between atoms: C_31  and  C_33
REMARK   13  A    between atoms: O_34  and  C_35
REMARK                            x       y       z     vdW  Elec       q    Type
REMARK                         _______ _______ _______ _____ _____    ______ ____
ROOT
ATOM      1  C   UNL     1      -4.223  -0.832  -1.454  0.00  0.00    +0.100 C 
ATOM      2  C   UNL     1      -4.005  -2.278  -0.955  0.00  0.00    +0.121 C 
ATOM      3  N   UNL     1      -4.969  -3.091  -1.733  0.00  0.00    -0.297 N 
ATOM      4  C   UNL     1      -4.931  -2.506  -3.094  0.00  0.00    +0.115 C 
ATOM      5  C   UNL     1      -4.831  -0.986  -2.858  0.00  0.00    -0.004 C 
ATOM      6  C   UNL     1      -3.917  -0.350  -3.902  0.00  0.00    -0.010 C 
ATOM      7  C   UNL     1      -4.570  -0.464  -5.282  0.00  0.00    -0.082 C 
ATOM      8  N   UNL     1      -5.873   0.211  -5.267  0.00  0.00    +0.379 N 
ATOM      9  C   UNL     1      -6.776  -0.465  -4.328  0.00  0.00    -0.082 C 
ATOM     10  C   UNL     1      -6.217  -0.350  -2.907  0.00  0.00    -0.010 C 
ATOM     11  C   UNL     1      -5.712  -4.129  -1.300  0.00  0.00    +0.257 C 
ATOM     12  O   UNL     1      -6.461  -4.699  -2.064  0.00  0.00    -0.272 OA
ATOM     13  H   UNL     1      -5.749   1.171  -4.981  0.00  0.00    -0.086 HD
ATOM     14  H   UNL     1      -6.273   0.188  -6.193  0.00  0.00    -0.086 HD
ENDROOT
BRANCH   1  16
ATOM     15  N   UNL     1      -2.860   1.225  -1.276  0.00  0.00    -0.312 N 
ATOM     16  C   UNL     1      -2.909  -0.098  -1.528  0.00  0.00    +0.218 C 
ATOM     17  O   UNL     1      -1.895  -0.698  -1.815  0.00  0.00    -0.275 OA
ATOM     18  H   UNL     1      -3.671   1.705  -1.046  0.00  0.00    +0.149 HD
BRANCH  15  20
ATOM     19  C   UNL     1      -1.311   2.353  -2.795  0.00  0.00    +0.028 C 
ATOM     20  C   UNL     1      -1.583   1.938  -1.348  0.00  0.00    +0.074 C 
BRANCH  20  21
ATOM     21  C   UNL     1      -1.643   3.185  -0.463  0.00  0.00    +0.060 C 
BRANCH  21  22
ATOM     22  C   UNL     1      -1.788   2.770   0.979  0.00  0.00    -0.004 A 
ATOM     23  C   UNL     1      -3.042   2.697   1.555  0.00  0.00    +0.007 A 
ATOM     24  C   UNL     1      -3.175   2.318   2.878  0.00  0.00    +0.000 A 
ATOM     25  C   UNL     1      -2.054   2.010   3.627  0.00  0.00    +0.004 A 
ATOM     26  C   UNL     1      -0.799   2.082   3.056  0.00  0.00    +0.046 A 
ATOM     27  C   UNL     1      -0.663   2.457   1.727  0.00  0.00    +0.123 A 
BRANCH  27  28
ATOM     28  O   UNL     1       0.571   2.522   1.161  0.00  0.00    -0.495 OA
ATOM     29  C   UNL     1       1.684   2.186   1.991  0.00  0.00    +0.277 C 
ENDBRANCH  27  28
ENDBRANCH  21  22
ENDBRANCH  20  21
ENDBRANCH  15  20
ENDBRANCH   1  16
BRANCH  11  30
ATOM     30  C   UNL     1      -5.612  -4.582   0.134  0.00  0.00    +0.261 C 
BRANCH  30  31
ATOM     31  C   UNL     1      -4.205  -5.122   0.401  0.00  0.00    +0.033 C 
ATOM     32  C   UNL     1      -4.104  -5.582   1.857  0.00  0.00    +0.011 C 
ATOM     33  C   UNL     1      -3.930  -6.307  -0.527  0.00  0.00    +0.011 C 
ENDBRANCH  30  31
BRANCH  30  34
ATOM     34  O   UNL     1      -6.572  -5.611   0.377  0.00  0.00    -0.479 OA
BRANCH  34  35
ATOM     35  C   UNL     1      -7.176  -5.617   1.595  0.00  0.00    +0.122 A 
ATOM     36  C   UNL     1      -6.777  -4.717   2.572  0.00  0.00    +0.045 A 
ATOM     37  C   UNL     1      -7.393  -4.724   3.809  0.00  0.00    +0.004 A 
ATOM     38  C   UNL     1      -8.405  -5.628   4.073  0.00  0.00    +0.000 A 
ATOM     39  C   UNL     1      -8.805  -6.526   3.100  0.00  0.00    +0.004 A 
ATOM     40  C   UNL     1      -8.196  -6.518   1.860  0.00  0.00    +0.045 A 
ENDBRANCH  34  35
ENDBRANCH  30  34
ENDBRANCH  11  30
TORSDOF 9
