REMARK  Name = ZINC22620725
REMARK  11 active torsions:
REMARK  status: ('A' for Active; 'I' for Inactive)
REMARK    1  A    between atoms: C_1  and  C_2
REMARK    2  A    between atoms: C_2  and  C_4
REMARK    3  A    between atoms: C_2  and  N_32
REMARK    4  A    between atoms: C_7  and  S_16
REMARK    5  A    between atoms: N_8  and  C_9
REMARK    6  A    between atoms: S_16  and  C_17
REMARK    7  A    between atoms: C_17  and  C_19
REMARK    8  A    between atoms: C_17  and  C_20
REMARK    9  A    between atoms: N_25  and  C_26
REMARK   10  A    between atoms: N_32  and  C_33
REMARK   11  A    between atoms: N_32  and  C_34
REMARK                            x       y       z     vdW  Elec       q    Type
REMARK                         _______ _______ _______ _____ _____    ______ ____
ROOT
ATOM      1  C   UNL     1      -0.462  -0.833  -0.985  0.00  0.00    +0.125 A 
ATOM      2  N   UNL     1      -0.250  -2.058  -0.594  0.00  0.00    -0.135 NA
ATOM      3  N   UNL     1       0.304  -2.062   0.566  0.00  0.00    -0.122 NA
ATOM      4  C   UNL     1       0.483  -0.830   0.981  0.00  0.00    +0.197 A 
ATOM      5  N   UNL     1       0.002  -0.004   0.002  0.00  0.00    -0.275 N 
ENDROOT
BRANCH   5   6
ATOM      6  C   UNL     1      -0.017   1.399   0.010  0.00  0.00    +0.050 A 
ATOM      7  C   UNL     1      -1.228   2.077   0.019  0.00  0.00    +0.028 A 
ATOM      8  C   UNL     1      -1.244   3.458   0.033  0.00  0.00    +0.022 A 
ATOM      9  C   UNL     1      -0.054   4.165   0.025  0.00  0.00    +0.041 A 
ATOM     10  C   UNL     1       1.154   3.491   0.010  0.00  0.00    +0.022 A 
ATOM     11  C   UNL     1       1.175   2.110   0.002  0.00  0.00    +0.028 A 
ATOM     12 CL   UNL     1      -0.078   5.901   0.035  0.00  0.00    -0.084 Cl
ENDBRANCH   5   6
BRANCH   1  14
ATOM     13  C   UNL     1      -0.100  -0.601  -3.427  0.00  0.00    -0.005 C 
ATOM     14  C   UNL     1      -1.097  -0.407  -2.283  0.00  0.00    -0.003 C 
BRANCH  14  15
ATOM     15  N   UNL     1      -2.294  -1.222  -2.534  0.00  0.00    +0.382 N 
ATOM     16  C   UNL     1      -3.236  -1.134  -1.410  0.00  0.00    -0.096 C 
ATOM     17  C   UNL     1      -2.941  -0.834  -3.794  0.00  0.00    -0.096 C 
ATOM     18  H   UNL     1      -1.975  -2.271  -2.626  0.00  0.00    -0.082 HD
ENDBRANCH  14  15
ENDBRANCH   1  14
BRANCH   4  19
ATOM     19  S   UNL     1       1.206  -0.333   2.509  0.00  0.00    -0.073 S 
BRANCH  19  20
ATOM     20  C   UNL     1       1.573  -1.954   3.225  0.00  0.00    +0.137 C 
ATOM     21  C   UNL     1       0.265  -2.700   3.496  0.00  0.00    +0.029 C 
BRANCH  20  22
ATOM     22  C   UNL     1       2.325  -1.774   4.518  0.00  0.00    +0.233 C 
ATOM     23  O   UNL     1       2.207  -0.746   5.150  0.00  0.00    -0.274 OA
ATOM     24  N   UNL     1       3.130  -2.756   4.972  0.00  0.00    -0.239 N 
ATOM     25  C   UNL     1       3.803  -2.594   6.129  0.00  0.00    +0.306 C 
ATOM     26  O   UNL     1       3.684  -1.564   6.762  0.00  0.00    -0.252 OA
ATOM     27  N   UNL     1       4.607  -3.576   6.583  0.00  0.00    -0.296 N 
ATOM     28  H   UNL     1       3.237  -3.688   4.399  0.00  0.00    +0.159 HD
ATOM     29  H   UNL     1       4.714  -4.508   6.010  0.00  0.00    +0.151 HD
BRANCH  27  30
ATOM     30  C   UNL     1       5.339  -3.400   7.840  0.00  0.00    +0.074 C 
ATOM     31  C   UNL     1       6.647  -2.654   7.569  0.00  0.00    +0.022 C 
ATOM     32  C   UNL     1       7.411  -2.471   8.882  0.00  0.00    +0.002 C 
ATOM     33  C   UNL     1       7.721  -3.842   9.487  0.00  0.00    +0.000 C 
ATOM     34  C   UNL     1       6.413  -4.588   9.758  0.00  0.00    +0.002 C 
ATOM     35  C   UNL     1       5.649  -4.771   8.445  0.00  0.00    +0.022 C 
ENDBRANCH  27  30
ENDBRANCH  20  22
ENDBRANCH  19  20
ENDBRANCH   4  19
TORSDOF 7
