REMARK  Name = ZINC20478470
REMARK  2 active torsions:
REMARK  status: ('A' for Active; 'I' for Inactive)
REMARK    1  A    between atoms: C_6  and  C_7
REMARK    2  A    between atoms: N_9  and  C_10
REMARK                            x       y       z     vdW  Elec       q    Type
REMARK                         _______ _______ _______ _____ _____    ______ ____
ROOT
ATOM      1  C   UNL     1      -1.265  -0.763   0.013  0.00  0.00    +0.248 C 
ATOM      2  O   UNL     1      -2.328  -0.172   0.036  0.00  0.00    -0.270 OA
ATOM      3  N   UNL     1      -1.244  -2.111   0.003  0.00  0.00    -0.281 N 
ATOM      4  H   UNL     1      -0.401  -2.582  -0.083  0.00  0.00    +0.155 HD
ENDROOT
BRANCH   3   5
ATOM      5  C   UNL     1      -2.440  -2.831   0.117  0.00  0.00    +0.034 A 
ATOM      6  C   UNL     1      -3.606  -2.337  -0.470  0.00  0.00    +0.025 A 
ATOM      7  C   UNL     1      -4.782  -3.024  -0.371  0.00  0.00    +0.029 A 
ATOM      8  C   UNL     1      -4.829  -4.231   0.321  0.00  0.00    +0.066 A 
ATOM      9  C   UNL     1      -3.659  -4.739   0.917  0.00  0.00    +0.021 A 
ATOM     10  C   UNL     1      -2.458  -4.028   0.804  0.00  0.00    +0.035 A 
ATOM     11  C   UNL     1      -4.034  -5.996   1.555  0.00  0.00    +0.142 A 
ATOM     12  N   UNL     1      -5.305  -6.188   1.341  0.00  0.00    -0.181 NA
ATOM     13  N   UNL     1      -5.830  -5.131   0.590  0.00  0.00    -0.277 N 
ATOM     14  H   UNL     1      -6.753  -5.047   0.305  0.00  0.00    +0.189 HD
ENDBRANCH   3   5
BRANCH   1  20
ATOM     15  C   UNL     1      -0.016   1.392   0.006  0.00  0.00    +0.014 A 
ATOM     16  C   UNL     1       1.170   2.095  -0.009  0.00  0.00    +0.016 A 
ATOM     17  C   UNL     1       2.378   1.418  -0.035  0.00  0.00    +0.018 A 
ATOM     18  C   UNL     1       2.403   0.034  -0.046  0.00  0.00    +0.016 A 
ATOM     19  C   UNL     1       1.224  -0.680  -0.030  0.00  0.00    +0.014 A 
ATOM     20  C   UNL     1       0.002  -0.004  -0.004  0.00  0.00    +0.037 A 
ATOM     21 BR   UNL     1       4.001   2.390  -0.058  0.00  0.00    -0.050 Br
ENDBRANCH   1  20
TORSDOF 2
