REMARK  Name = ZINC44792805
REMARK  3 active torsions:
REMARK  status: ('A' for Active; 'I' for Inactive)
REMARK    1  A    between atoms: C_13  and  C_15
REMARK    2  A    between atoms: C_15  and  C_20
REMARK    3  A    between atoms: N_21  and  O_22
REMARK                            x       y       z     vdW  Elec       q    Type
REMARK                         _______ _______ _______ _____ _____    ______ ____
ROOT
ATOM      1  C   UNL     1       0.073   1.532  -0.004  0.00  0.00    +0.002 C 
ATOM      2  C   UNL     1       1.509   2.054  -0.065  0.00  0.00    +0.003 C 
ATOM      3  C   UNL     1       2.201   1.535  -1.329  0.00  0.00    +0.033 C 
ATOM      4  C   UNL     1       2.202   0.009  -1.302  0.00  0.00    +0.139 C 
ATOM      5  C   UNL     1       0.751  -0.489  -1.288  0.00  0.00    +0.105 C 
ATOM      6  C   UNL     1       0.073  -0.001  -0.010  0.00  0.00    +0.025 C 
ATOM      7  N   UNL     1       0.775  -1.957  -1.339  0.00  0.00    -0.293 N 
ATOM      8  C   UNL     1       1.570  -2.582  -2.412  0.00  0.00    +0.136 C 
ATOM      9  C   UNL     1       2.970  -1.960  -2.419  0.00  0.00    +0.179 C 
ATOM     10  O   UNL     1       2.855  -0.532  -2.448  0.00  0.00    -0.373 OA
ATOM     11  C   UNL     1       0.099  -2.702  -0.443  0.00  0.00    +0.229 C 
ATOM     12  O   UNL     1      -0.477  -2.165   0.480  0.00  0.00    -0.275 OA
ENDROOT
BRANCH  11  13
ATOM     13  C   UNL     1       0.060  -4.201  -0.586  0.00  0.00    +0.105 C 
ATOM     14  C   UNL     1      -0.854  -4.810   0.493  0.00  0.00    +0.024 C 
ATOM     15  C   UNL     1       0.030  -5.748   1.341  0.00  0.00    +0.001 C 
ATOM     16  C   UNL     1       1.466  -5.205   1.137  0.00  0.00    +0.001 C 
ATOM     17  C   UNL     1       1.466  -4.791  -0.356  0.00  0.00    +0.024 C 
BRANCH  13  18
ATOM     18  C   UNL     1      -0.439  -4.576  -1.957  0.00  0.00    +0.147 C 
ATOM     19  N   UNL     1      -1.579  -4.133  -2.373  0.00  0.00    -0.076 NA
ATOM     20  N   UNL     1       0.320  -5.390  -2.768  0.00  0.00    -0.343 N 
ATOM     21  H   UNL     1       1.142  -5.780  -2.430  0.00  0.00    +0.144 HD
ATOM     22  H   UNL     1       0.034  -5.573  -3.676  0.00  0.00    +0.144 HD
BRANCH  19  23
ATOM     23  O   UNL     1      -2.410  -3.387  -1.502  0.00  0.00    -0.408 OA
ATOM     24  H   UNL     1      -3.241  -3.099  -1.902  0.00  0.00    +0.328 HD
ENDBRANCH  19  23
ENDBRANCH  13  18
ENDBRANCH  11  13
TORSDOF 3
