REMARK  Name = ZINC20720297
REMARK  5 active torsions:
REMARK  status: ('A' for Active; 'I' for Inactive)
REMARK    1  A    between atoms: C_1  and  C_2
REMARK    2  A    between atoms: C_2  and  C_4
REMARK    3  A    between atoms: C_2  and  N_10
REMARK    4  A    between atoms: C_11  and  C_13
REMARK    5  A    between atoms: C_20  and  C_29
REMARK                            x       y       z     vdW  Elec       q    Type
REMARK                         _______ _______ _______ _____ _____    ______ ____
ROOT
ATOM      1  C   UNL     1      -1.093  -0.676  -0.575  0.00  0.00    +0.058 A 
ATOM      2  C   UNL     1      -1.134  -2.071  -0.570  0.00  0.00    +0.015 A 
ATOM      3  C   UNL     1      -0.084  -2.782  -0.032  0.00  0.00    +0.001 A 
ATOM      4  C   UNL     1       1.006  -2.118   0.500  0.00  0.00    +0.006 A 
ATOM      5  C   UNL     1       1.066  -0.732   0.504  0.00  0.00    -0.019 A 
ATOM      6  C   UNL     1       0.019  -0.004  -0.032  0.00  0.00    +0.044 A 
ATOM      7  N   UNL     1       0.017   1.382  -0.057  0.00  0.00    -0.336 N 
ATOM      8  C   UNL     1       1.376   1.925  -0.102  0.00  0.00    +0.107 C 
ATOM      9  C   UNL     1       2.173   1.450   1.090  0.00  0.00    +0.029 C 
ATOM     10  C   UNL     1       2.290  -0.088   1.101  0.00  0.00    +0.049 C 
ATOM     11  C   UNL     1       2.331  -0.439   2.579  0.00  0.00    -0.023 C 
ATOM     12  C   UNL     1       1.807   0.523   3.295  0.00  0.00    -0.030 C 
ATOM     13  C   UNL     1       1.340   1.657   2.402  0.00  0.00    +0.033 C 
ATOM     14  H   UNL     1      -0.847   2.063  -0.047  0.00  0.00    +0.147 HD
ENDROOT
BRANCH   8  15
ATOM     15  C   UNL     1       2.061   1.457  -1.361  0.00  0.00    -0.002 A 
ATOM     16  C   UNL     1       1.716   0.398  -2.111  0.00  0.00    +0.089 A 
ATOM     17  N   UNL     1       2.566   0.285  -3.177  0.00  0.00    -0.360 N 
ATOM     18  H   UNL     1       2.429  -0.527  -3.906  0.00  0.00    +0.165 HD
ATOM     19  C   UNL     1       3.507   1.289  -3.134  0.00  0.00    +0.047 A 
ATOM     20  C   UNL     1       3.232   2.067  -1.994  0.00  0.00    +0.005 A 
ATOM     21  C   UNL     1       4.034   3.170  -1.693  0.00  0.00    +0.010 A 
ATOM     22  C   UNL     1       5.083   3.488  -2.508  0.00  0.00    +0.001 A 
ATOM     23  C   UNL     1       5.359   2.723  -3.634  0.00  0.00    +0.002 A 
ATOM     24  C   UNL     1       4.581   1.631  -3.949  0.00  0.00    +0.026 A 
ENDBRANCH   8  15
BRANCH   1  26
ATOM     25  N   UNL     1      -3.210  -0.546  -1.790  0.00  0.00    -0.305 N 
ATOM     26  C   UNL     1      -2.212   0.093  -1.149  0.00  0.00    +0.246 C 
ATOM     27  O   UNL     1      -2.235   1.304  -1.043  0.00  0.00    -0.270 OA
ATOM     28  H   UNL     1      -3.190  -1.642  -1.886  0.00  0.00    +0.150 HD
BRANCH  25  30
ATOM     29  C   UNL     1      -5.375   0.470  -1.280  0.00  0.00    +0.033 C 
ATOM     30  C   UNL     1      -4.322   0.218  -2.361  0.00  0.00    +0.100 C 
BRANCH  30  31
ATOM     31  C   UNL     1      -4.940  -0.562  -3.492  0.00  0.00    -0.027 A 
ATOM     32  C   UNL     1      -5.097  -1.931  -3.383  0.00  0.00    +0.005 A 
ATOM     33  C   UNL     1      -5.668  -2.646  -4.419  0.00  0.00    +0.000 A 
ATOM     34  C   UNL     1      -6.073  -1.994  -5.568  0.00  0.00    +0.000 A 
ATOM     35  C   UNL     1      -5.912  -0.625  -5.680  0.00  0.00    +0.000 A 
ATOM     36  C   UNL     1      -5.345   0.090  -4.642  0.00  0.00    +0.005 A 
ENDBRANCH  30  31
ENDBRANCH  25  30
ENDBRANCH   1  26
TORSDOF 4
