REMARK  Name = ZINC43319912
REMARK  5 active torsions:
REMARK  status: ('A' for Active; 'I' for Inactive)
REMARK    1  A    between atoms: C_1  and  C_2
REMARK    2  A    between atoms: C_3  and  N_9
REMARK    3  A    between atoms: N_9  and  S_10
REMARK    4  A    between atoms: S_10  and  C_13
REMARK    5  A    between atoms: C_18  and  N_19
REMARK                            x       y       z     vdW  Elec       q    Type
REMARK                         _______ _______ _______ _____ _____    ______ ____
ROOT
ATOM      1  S   UNL     1      -0.737  -0.663  -3.817  0.00  0.00    +0.074 S 
ATOM      2  O   UNL     1      -0.549   0.141  -4.973  0.00  0.00    -0.150 OA
ATOM      3  O   UNL     1      -0.302  -2.014  -3.749  0.00  0.00    -0.150 OA
ENDROOT
BRANCH   1   4
ATOM      4  C   UNL     1      -2.468  -0.674  -3.488  0.00  0.00    +0.129 A 
ATOM      5  C   UNL     1      -3.124  -1.871  -3.277  0.00  0.00    +0.032 A 
ATOM      6  C   UNL     1      -4.482  -1.882  -3.018  0.00  0.00    +0.017 A 
ATOM      7  C   UNL     1      -5.189  -0.693  -2.970  0.00  0.00    +0.020 A 
ATOM      8  C   UNL     1      -4.539   0.508  -3.180  0.00  0.00    +0.040 A 
ATOM      9  C   UNL     1      -3.173   0.521  -3.434  0.00  0.00    +0.053 A 
ATOM     10 BR   UNL     1      -7.046  -0.712  -2.616  0.00  0.00    -0.050 Br
BRANCH   9  11
ATOM     11  N   UNL     1      -2.512   1.734  -3.642  0.00  0.00    -0.356 N 
ATOM     12  H   UNL     1      -1.546   1.751  -3.730  0.00  0.00    +0.142 HD
ATOM     13  H   UNL     1      -3.018   2.559  -3.698  0.00  0.00    +0.142 HD
ENDBRANCH   9  11
ENDBRANCH   1   4
BRANCH   1  14
ATOM     14  N   UNL     1      -0.005   0.134  -2.563  0.00  0.00    -0.216 N 
ATOM     15  H   UNL     1       0.509   0.938  -2.733  0.00  0.00    +0.174 HD
BRANCH  14  18
ATOM     16  C   UNL     1      -0.178   2.017  -0.438  0.00  0.00    +0.049 C 
ATOM     17  C   UNL     1      -0.217   0.531  -0.192  0.00  0.00    +0.007 A 
ATOM     18  C   UNL     1      -0.129  -0.353  -1.260  0.00  0.00    +0.054 A 
ATOM     19  C   UNL     1      -0.165  -1.723  -1.029  0.00  0.00    +0.025 A 
ATOM     20  C   UNL     1      -0.288  -2.202   0.261  0.00  0.00    +0.005 A 
ATOM     21  C   UNL     1      -0.376  -1.321   1.323  0.00  0.00    +0.039 A 
ATOM     22  C   UNL     1      -0.335   0.045   1.098  0.00  0.00    +0.128 A 
ATOM     23  F   UNL     1      -0.415   0.903   2.138  0.00  0.00    -0.205 F 
ENDBRANCH  14  18
ENDBRANCH   1  14
TORSDOF 4
