REMARK  Name = ZINC43424803
REMARK  3 active torsions:
REMARK  status: ('A' for Active; 'I' for Inactive)
REMARK    1  A    between atoms: C_3  and  N_10
REMARK    2  A    between atoms: C_4  and  C_8
REMARK    3  A    between atoms: C_6  and  N_7
REMARK                            x       y       z     vdW  Elec       q    Type
REMARK                         _______ _______ _______ _____ _____    ______ ____
ROOT
ATOM      1  C   UNL     1      -0.017   1.387   0.010  0.00  0.00    +0.024 A 
ATOM      2  C   UNL     1       1.165   2.100   0.002  0.00  0.00    +0.026 A 
ATOM      3  C   UNL     1       2.382   1.433  -0.013  0.00  0.00    +0.048 A 
ATOM      4  C   UNL     1       2.409   0.030  -0.021  0.00  0.00    +0.074 A 
ATOM      5  C   UNL     1       1.208  -0.684  -0.013  0.00  0.00    +0.043 A 
ATOM      6  C   UNL     1       0.002  -0.004   0.002  0.00  0.00    +0.026 A 
ENDROOT
BRANCH   3   7
ATOM      7  N   UNL     1       3.574   2.155  -0.022  0.00  0.00    -0.321 N 
ATOM      8  C   UNL     1       4.210   2.561  -1.285  0.00  0.00    +0.133 C 
ATOM      9  C   UNL     1       4.514   4.061  -1.220  0.00  0.00    +0.179 C 
ATOM     10  O   UNL     1       5.237   4.348  -0.019  0.00  0.00    -0.373 OA
ATOM     11  C   UNL     1       4.518   4.044   1.176  0.00  0.00    +0.139 C 
ATOM     12  C   UNL     1       4.240   2.544   1.235  0.00  0.00    +0.102 C 
ATOM     13  C   UNL     1       5.566   1.784   1.332  0.00  0.00    +0.025 C 
ATOM     14  C   UNL     1       6.330   2.233   2.578  0.00  0.00    +0.002 C 
ATOM     15  C   UNL     1       6.624   3.732   2.477  0.00  0.00    +0.003 C 
ATOM     16  C   UNL     1       5.315   4.476   2.402  0.00  0.00    +0.033 C 
ENDBRANCH   3   7
BRANCH   6  17
ATOM     17  N   UNL     1      -1.202  -0.719   0.010  0.00  0.00    -0.358 N 
ATOM     18  H   UNL     1      -2.048  -0.244   0.020  0.00  0.00    +0.142 HD
ATOM     19  H   UNL     1      -1.190  -1.688   0.004  0.00  0.00    +0.142 HD
ENDBRANCH   6  17
BRANCH   4  20
ATOM     20  C   UNL     1       3.660  -0.666  -0.038  0.00  0.00    +0.101 C 
ATOM     21  N   UNL     1       4.652  -1.218  -0.051  0.00  0.00    -0.191 NA
ENDBRANCH   4  20
TORSDOF 3
