REMARK  Name = ZINC12489263
REMARK  11 active torsions:
REMARK  status: ('A' for Active; 'I' for Inactive)
REMARK    1  A    between atoms: C_1  and  C_2
REMARK    2  A    between atoms: C_7  and  O_8
REMARK    3  A    between atoms: O_8  and  C_9
REMARK    4  A    between atoms: C_9  and  C_10
REMARK    5  A    between atoms: N_12  and  N_13
REMARK    6  A    between atoms: C_14  and  C_16
REMARK    7  A    between atoms: C_16  and  O_17
REMARK    8  A    between atoms: O_17  and  C_18
REMARK    9  A    between atoms: C_21  and  C_25
REMARK   10  A    between atoms: C_25  and  C_26
REMARK   11  A    between atoms: C_25  and  C_27
REMARK                            x       y       z     vdW  Elec       q    Type
REMARK                         _______ _______ _______ _____ _____    ______ ____
ROOT
ATOM      1  N   UNL     1       3.910  -2.192  -0.047  0.00  0.00    -0.231 N 
ATOM      2  C   UNL     1       3.714  -0.859  -0.038  0.00  0.00    +0.267 C 
ATOM      3  O   UNL     1       4.664  -0.105  -0.043  0.00  0.00    -0.271 OA
ATOM      4  H   UNL     1       3.150  -2.794  -0.043  0.00  0.00    +0.173 HD
ENDROOT
BRANCH   1   7
ATOM      5  C   UNL     1       5.409  -4.041  -0.071  0.00  0.00    +0.267 C 
ATOM      6  O   UNL     1       4.459  -4.794  -0.066  0.00  0.00    -0.271 OA
ATOM      7  N   UNL     1       5.213  -2.708  -0.062  0.00  0.00    -0.231 N 
ATOM      8  H   UNL     1       5.973  -2.106  -0.066  0.00  0.00    +0.173 HD
BRANCH   5   9
ATOM      9  C   UNL     1       6.810  -4.596  -0.087  0.00  0.00    +0.326 C 
BRANCH   9  10
ATOM     10  O   UNL     1       6.757  -6.024  -0.095  0.00  0.00    -0.482 OA
BRANCH  10  17
ATOM     11  C   UNL     1       6.673  -8.847  -0.096  0.00  0.00    +0.047 C 
ATOM     12  C   UNL     1       7.966  -8.073  -0.111  0.00  0.00    -0.008 A 
ATOM     13  C   UNL     1       9.174  -8.744  -0.132  0.00  0.00    +0.022 A 
ATOM     14  C   UNL     1      10.360  -8.033  -0.139  0.00  0.00    +0.018 A 
ATOM     15  C   UNL     1      10.341  -6.650  -0.132  0.00  0.00    +0.019 A 
ATOM     16  C   UNL     1       9.135  -5.975  -0.117  0.00  0.00    +0.047 A 
ATOM     17  C   UNL     1       7.944  -6.686  -0.110  0.00  0.00    +0.124 A 
ATOM     18 BR   UNL     1      12.012  -8.954  -0.160  0.00  0.00    -0.050 Br
ENDBRANCH  10  17
ENDBRANCH   9  10
ENDBRANCH   5   9
ENDBRANCH   1   7
BRANCH   2  19
ATOM     19  C   UNL     1       2.313  -0.304  -0.022  0.00  0.00    +0.326 C 
BRANCH  19  20
ATOM     20  O   UNL     1       2.366   1.124  -0.015  0.00  0.00    -0.482 OA
BRANCH  20  21
ATOM     21  C   UNL     1       1.179   1.786   0.000  0.00  0.00    +0.135 A 
ATOM     22  C   UNL     1      -0.013   1.076   0.008  0.00  0.00    +0.047 A 
ATOM     23  C   UNL     1      -1.218   1.751   0.017  0.00  0.00    +0.007 A 
ATOM     24  C   UNL     1      -1.238   3.133   0.030  0.00  0.00    -0.044 A 
ATOM     25  C   UNL     1      -0.052   3.844   0.022  0.00  0.00    +0.022 A 
ATOM     26  C   UNL     1       1.157   3.174   0.008  0.00  0.00    +0.060 A 
ATOM     27 BR   UNL     1       2.778   4.147  -0.002  0.00  0.00    -0.047 Br
BRANCH  24  28
ATOM     28  C   UNL     1      -2.554   3.866   0.046  0.00  0.00    +0.013 C 
ATOM     29  C   UNL     1      -3.363   3.491  -1.197  0.00  0.00    +0.012 C 
ATOM     30  C   UNL     1      -3.339   3.478   1.301  0.00  0.00    +0.012 C 
ENDBRANCH  24  28
ENDBRANCH  20  21
ENDBRANCH  19  20
ENDBRANCH   2  19
TORSDOF 8
