REMARK  Name = ZINC16401260
REMARK  3 active torsions:
REMARK  status: ('A' for Active; 'I' for Inactive)
REMARK    1  A    between atoms: C_3  and  C_13
REMARK    2  A    between atoms: C_6  and  C_7
REMARK    3  A    between atoms: C_13  and  C_15
REMARK                            x       y       z     vdW  Elec       q    Type
REMARK                         _______ _______ _______ _____ _____    ______ ____
ROOT
ATOM      1  C   UNL     1      -1.214  -0.729   0.010  0.00  0.00    +0.080 C 
ATOM      2  C   UNL     1      -1.196  -2.090   0.002  0.00  0.00    +0.099 C 
ATOM      3  C   UNL     1      -2.452  -2.891   0.016  0.00  0.00    +0.263 C 
ATOM      4  O   UNL     1      -3.485  -2.429   0.458  0.00  0.00    -0.268 OA
ATOM      5  N   UNL     1      -2.404  -4.150  -0.483  0.00  0.00    -0.278 N 
ATOM      6  C   UNL     1      -1.205  -4.652  -0.985  0.00  0.00    +0.075 A 
ATOM      7  C   UNL     1      -1.194  -5.830  -1.725  0.00  0.00    +0.043 A 
ATOM      8  C   UNL     1       0.022  -6.294  -2.205  0.00  0.00    +0.038 A 
ATOM      9  C   UNL     1       1.177  -5.580  -1.936  0.00  0.00    +0.128 A 
ATOM     10  N   UNL     1       1.139  -4.465  -1.231  0.00  0.00    -0.237 NA
ATOM     11  C   UNL     1       0.003  -3.985  -0.754  0.00  0.00    +0.144 A 
ATOM     12  N   UNL     1      -0.007  -2.804  -0.013  0.00  0.00    -0.294 N 
ATOM     13 BR   UNL     1       0.102  -7.888  -3.219  0.00  0.00    -0.049 Br
ATOM     14  H   UNL     1      -3.202  -4.701  -0.488  0.00  0.00    +0.155 HD
ATOM     15  H   UNL     1       0.778  -2.497   0.468  0.00  0.00    +0.154 HD
ENDROOT
BRANCH   1  16
ATOM     16  C   UNL     1       0.002  -0.004   0.002  0.00  0.00    +0.188 C 
ATOM     17  O   UNL     1       1.065  -0.599  -0.011  0.00  0.00    -0.287 OA
BRANCH  16  20
ATOM     18  C   UNL     1       1.154   3.572   0.010  0.00  0.00    +0.004 A 
ATOM     19  C   UNL     1       1.180   2.193   0.003  0.00  0.00    +0.012 A 
ATOM     20  C   UNL     1      -0.018   1.475   0.010  0.00  0.00    +0.022 A 
ATOM     21  C   UNL     1      -1.235   2.160   0.020  0.00  0.00    +0.012 A 
ATOM     22  C   UNL     1      -1.246   3.539   0.033  0.00  0.00    +0.004 A 
ATOM     23  C   UNL     1      -0.056   4.244   0.024  0.00  0.00    -0.044 A 
BRANCH  23  24
ATOM     24  C   UNL     1      -0.076   5.751   0.032  0.00  0.00    +0.019 C 
ATOM     25  C   UNL     1      -0.792   6.245   1.291  0.00  0.00    +0.008 C 
ATOM     26  C   UNL     1      -0.813   7.775   1.299  0.00  0.00    +0.001 C 
ATOM     27  C   UNL     1      -1.553   8.281   0.059  0.00  0.00    +0.000 C 
ATOM     28  C   UNL     1      -0.837   7.787  -1.200  0.00  0.00    +0.001 C 
ATOM     29  C   UNL     1      -0.816   6.257  -1.208  0.00  0.00    +0.008 C 
ENDBRANCH  23  24
ENDBRANCH  16  20
ENDBRANCH   1  16
TORSDOF 3
