REMARK  Name = ZINC12206295
REMARK  7 active torsions:
REMARK  status: ('A' for Active; 'I' for Inactive)
REMARK    1  A    between atoms: C_3  and  N_27
REMARK    2  A    between atoms: C_5  and  N_7
REMARK    3  A    between atoms: C_10  and  N_74
REMARK    4  A    between atoms: C_13  and  C_14
REMARK    5  A    between atoms: C_13  and  N_74
REMARK    6  A    between atoms: C_28  and  C_30
REMARK    7  A    between atoms: C_30  and  C_31
REMARK                            x       y       z     vdW  Elec       q    Type
REMARK                         _______ _______ _______ _____ _____    ______ ____
ROOT
ATOM      1  N   UNL     1      -1.063   1.331  -7.206  0.00  0.00    -0.330 N 
ATOM      2  C   UNL     1      -0.953  -0.129  -7.314  0.00  0.00    +0.103 C 
ATOM      3  C   UNL     1      -0.405  -0.500  -8.695  0.00  0.00    +0.003 C 
ATOM      4  C   UNL     1      -1.347   0.041  -9.774  0.00  0.00    -0.069 C 
ATOM      5  C   UNL     1      -1.482   1.558  -9.608  0.00  0.00    +0.003 C 
ATOM      6  C   UNL     1      -1.998   1.868  -8.202  0.00  0.00    +0.103 C 
ENDROOT
BRANCH   1  11
ATOM      7  C   UNL     1      -2.932   2.871  -4.440  0.00  0.00    +0.004 A 
ATOM      8  C   UNL     1      -2.183   2.462  -3.353  0.00  0.00    +0.023 A 
ATOM      9  C   UNL     1      -1.050   1.681  -3.543  0.00  0.00    +0.035 A 
ATOM     10  C   UNL     1      -0.677   1.303  -4.825  0.00  0.00    +0.046 A 
ATOM     11  C   UNL     1      -1.435   1.710  -5.914  0.00  0.00    +0.031 A 
ATOM     12  C   UNL     1      -2.564   2.496  -5.717  0.00  0.00    +0.023 A 
BRANCH   9  13
ATOM     13  N   UNL     1      -0.288   1.272  -2.443  0.00  0.00    -0.285 N 
ATOM     14  C   UNL     1      -0.174   2.075  -1.367  0.00  0.00    +0.217 C 
ATOM     15  O   UNL     1      -0.650   3.191  -1.389  0.00  0.00    -0.275 OA
ATOM     16  H   UNL     1       0.157   0.411  -2.455  0.00  0.00    +0.155 HD
BRANCH  14  17
ATOM     17  C   UNL     1       0.545   1.588  -0.136  0.00  0.00    +0.099 C 
BRANCH  17  18
ATOM     18  C   UNL     1       0.533   2.685   0.931  0.00  0.00    -0.002 C 
ATOM     19  C   UNL     1       1.405   3.873   0.476  0.00  0.00    +0.004 C 
ATOM     20  C   UNL     1       2.084   4.366   1.779  0.00  0.00    +0.000 C 
ATOM     21  C   UNL     1       2.381   3.044   2.530  0.00  0.00    +0.000 C 
ATOM     22  C   UNL     1       1.153   2.158   2.236  0.00  0.00    +0.004 C 
ENDBRANCH  17  18
ENDBRANCH  14  17
ENDBRANCH   9  13
ENDBRANCH   1  11
BRANCH   4  23
ATOM     23  N   UNL     1      -0.792  -0.254 -11.108  0.00  0.00    +0.381 N 
ATOM     24  H   UNL     1       0.233  -0.196 -11.069  0.00  0.00    -0.086 HD
ATOM     25  H   UNL     1      -1.148   0.433 -11.783  0.00  0.00    -0.086 HD
BRANCH  23  26
ATOM     26  C   UNL     1      -1.186  -1.608 -11.539  0.00  0.00    -0.077 C 
BRANCH  26  27
ATOM     27  C   UNL     1      -0.597  -1.886 -12.923  0.00  0.00    -0.011 C 
ATOM     28  C   UNL     1      -1.103  -3.238 -13.432  0.00  0.00    +0.005 C 
ATOM     29  C   UNL     1      -0.462  -3.536 -14.791  0.00  0.00    +0.019 C 
ATOM     30  C   UNL     1       1.061  -3.522 -14.645  0.00  0.00    +0.108 C 
ATOM     31  N   UNL     1       1.495  -2.207 -14.156  0.00  0.00    -0.299 N 
ATOM     32  C   UNL     1       0.930  -1.919 -12.832  0.00  0.00    +0.109 C 
ATOM     33  C   UNL     1       2.876  -2.116 -14.137  0.00  0.00    +0.218 A 
ATOM     34  N   UNL     1       3.469  -1.136 -14.803  0.00  0.00    -0.223 NA
ATOM     35  C   UNL     1       4.787  -1.018 -14.800  0.00  0.00    +0.116 A 
ATOM     36  C   UNL     1       5.547  -1.940 -14.099  0.00  0.00    +0.039 A 
ATOM     37  C   UNL     1       4.894  -2.955 -13.417  0.00  0.00    +0.116 A 
ATOM     38  N   UNL     1       3.574  -3.013 -13.456  0.00  0.00    -0.223 NA
ENDBRANCH  26  27
ENDBRANCH  23  26
ENDBRANCH   4  23
TORSDOF 7
