REMARK  Name = ZINC13048892
REMARK  11 active torsions:
REMARK  status: ('A' for Active; 'I' for Inactive)
REMARK    1  A    between atoms: C_1  and  C_2
REMARK    2  A    between atoms: C_2  and  C_4
REMARK    3  A    between atoms: C_2  and  N_14
REMARK    4  A    between atoms: C_15  and  C_17
REMARK    5  A    between atoms: C_17  and  S_18
REMARK    6  A    between atoms: S_18  and  C_19
REMARK    7  A    between atoms: C_23  and  C_34
REMARK    8  A    between atoms: N_29  and  C_30
REMARK    9  A    between atoms: C_30  and  C_31
REMARK   10  A    between atoms: C_31  and  C_32
REMARK   11  A    between atoms: C_31  and  C_33
REMARK                            x       y       z     vdW  Elec       q    Type
REMARK                         _______ _______ _______ _____ _____    ______ ____
ROOT
ATOM      1  S   UNL     1      -4.100  -1.225  -2.832  0.00  0.00    -0.078 S 
ENDROOT
BRANCH   1   2
ATOM      2  C   UNL     1      -5.739  -1.846  -2.652  0.00  0.00    +0.173 A 
ATOM      3  N   UNL     1      -6.173  -2.124  -1.448  0.00  0.00    -0.223 NA
ATOM      4  C   UNL     1      -7.421  -2.604  -1.237  0.00  0.00    +0.080 A 
ATOM      5  C   UNL     1      -7.882  -2.899   0.049  0.00  0.00    +0.043 A 
ATOM      6  C   UNL     1      -9.171  -3.390   0.217  0.00  0.00    +0.065 A 
ATOM      7  C   UNL     1     -10.005  -3.590  -0.892  0.00  0.00    +0.016 A 
ATOM      8  C   UNL     1      -9.565  -3.306  -2.153  0.00  0.00    +0.016 A 
ATOM      9  C   UNL     1      -8.275  -2.812  -2.344  0.00  0.00    +0.065 A 
ATOM     10  C   UNL     1      -7.761  -2.491  -3.685  0.00  0.00    +0.262 A 
ATOM     11  O   UNL     1      -8.448  -2.648  -4.678  0.00  0.00    -0.267 OA
ATOM     12  N   UNL     1      -6.499  -2.012  -3.775  0.00  0.00    -0.287 N 
BRANCH   6  13
ATOM     13  C   UNL     1      -9.667  -3.704   1.573  0.00  0.00    +0.387 C 
ATOM     14  O   UNL     1      -8.943  -3.532   2.544  0.00  0.00    -0.241 OA
ATOM     15  O   UNL     1     -10.800  -4.136   1.726  0.00  0.00    -0.241 OA
ENDBRANCH   6  13
BRANCH  12  16
ATOM     16  C   UNL     1      -5.942  -1.672  -5.086  0.00  0.00    +0.130 C 
BRANCH  16  17
ATOM     17  C   UNL     1      -5.251  -2.901  -5.681  0.00  0.00    +0.003 C 
ATOM     18  C   UNL     1      -6.292  -3.989  -5.953  0.00  0.00    +0.009 C 
ATOM     19  C   UNL     1      -4.563  -2.515  -6.992  0.00  0.00    +0.009 C 
ENDBRANCH  16  17
ENDBRANCH  12  16
ENDBRANCH   1   2
BRANCH   1  20
ATOM     20  C   UNL     1      -3.465  -1.164  -1.134  0.00  0.00    +0.173 C 
BRANCH  20  22
ATOM     21  N   UNL     1      -1.372  -0.511   0.012  0.00  0.00    -0.312 N 
ATOM     22  C   UNL     1      -2.051  -0.643  -1.145  0.00  0.00    +0.224 C 
ATOM     23  O   UNL     1      -1.524  -0.341  -2.194  0.00  0.00    -0.275 OA
ATOM     24  H   UNL     1      -1.794  -0.752   0.852  0.00  0.00    +0.149 HD
BRANCH  21  26
ATOM     25  C   UNL     1      -0.019   1.526   0.010  0.00  0.00    +0.028 C 
ATOM     26  C   UNL     1       0.002  -0.004   0.002  0.00  0.00    +0.076 C 
BRANCH  26  27
ATOM     27  C   UNL     1       0.742  -0.511   1.242  0.00  0.00    -0.010 C 
ATOM     28  C   UNL     1       0.763  -2.041   1.233  0.00  0.00    +0.012 C 
ATOM     29  C   UNL     1       1.503  -2.548   2.473  0.00  0.00    -0.010 C 
ATOM     30  C   UNL     1       2.938  -2.018   2.462  0.00  0.00    +0.007 C 
ATOM     31  C   UNL     1       2.917  -0.488   2.470  0.00  0.00    -0.010 C 
ATOM     32  C   UNL     1       2.178   0.019   1.231  0.00  0.00    +0.012 C 
ATOM     33  C   UNL     1       2.201   0.005   3.729  0.00  0.00    +0.007 C 
ATOM     34  C   UNL     1       0.766  -0.524   3.740  0.00  0.00    -0.010 C 
ATOM     35  C   UNL     1       0.787  -2.054   3.732  0.00  0.00    +0.007 C 
ATOM     36  C   UNL     1       0.026  -0.018   2.500  0.00  0.00    +0.012 C 
ENDBRANCH  26  27
ENDBRANCH  21  26
ENDBRANCH  20  22
ENDBRANCH   1  20
TORSDOF 8
