REMARK  Name = ZINC09292103
REMARK  8 active torsions:
REMARK  status: ('A' for Active; 'I' for Inactive)
REMARK    1  A    between atoms: C_1  and  C_2
REMARK    2  A    between atoms: C_5  and  C_7
REMARK    3  A    between atoms: C_10  and  C_21
REMARK    4  A    between atoms: C_16  and  N_20
REMARK    5  A    between atoms: C_17  and  C_18
REMARK    6  A    between atoms: C_24  and  O_27
REMARK    7  A    between atoms: O_27  and  C_28
REMARK    8  A    between atoms: C_28  and  C_29
REMARK                            x       y       z     vdW  Elec       q    Type
REMARK                         _______ _______ _______ _____ _____    ______ ____
ROOT
ATOM      1  C   UNL     1       1.033  -4.191  -0.036  0.00  0.00    +0.108 C 
ATOM      2  C   UNL     1       1.998  -4.306   1.117  0.00  0.00    +0.054 A 
ATOM      3  C   UNL     1       1.750  -4.348   2.448  0.00  0.00    +0.074 A 
ATOM      4  N   UNL     1       2.957  -4.454   3.081  0.00  0.00    -0.273 N 
ATOM      5  H   UNL     1       3.096  -4.506   4.039  0.00  0.00    +0.189 HD
ATOM      6  N   UNL     1       3.958  -4.477   2.098  0.00  0.00    -0.135 NA
ATOM      7  C   UNL     1       3.391  -4.389   0.928  0.00  0.00    +0.245 A 
ATOM      8  O   UNL     1       3.952  -4.374  -0.311  0.00  0.00    -0.421 OA
ATOM      9  C   UNL     1       3.133  -4.551  -1.367  0.00  0.00    +0.201 C 
ATOM     10  C   UNL     1       1.786  -4.483  -1.309  0.00  0.00    +0.099 C 
ENDROOT
BRANCH   1  15
ATOM     11  C   UNL     1      -0.152   1.344  -0.244  0.00  0.00    +0.051 C 
ATOM     12  C   UNL     1      -0.098  -0.161  -0.187  0.00  0.00    -0.013 A 
ATOM     13  C   UNL     1      -1.120  -1.051  -0.152  0.00  0.00    +0.011 A 
ATOM     14  C   UNL     1      -0.831  -2.401  -0.102  0.00  0.00    +0.012 A 
ATOM     15  C   UNL     1       0.466  -2.796  -0.088  0.00  0.00    +0.003 A 
ATOM     16  S   UNL     1       1.328  -1.234  -0.154  0.00  0.00    -0.097 S 
ENDBRANCH   1  15
BRANCH   3  17
ATOM     17  C   UNL     1       0.422  -4.289   3.097  0.00  0.00    +0.000 A 
ATOM     18  C   UNL     1      -0.620  -5.091   2.630  0.00  0.00    +0.013 A 
ATOM     19  C   UNL     1      -1.857  -5.034   3.237  0.00  0.00    +0.046 A 
ATOM     20  C   UNL     1      -2.066  -4.180   4.311  0.00  0.00    +0.121 A 
ATOM     21  C   UNL     1      -1.032  -3.381   4.779  0.00  0.00    +0.046 A 
ATOM     22  C   UNL     1       0.209  -3.436   4.180  0.00  0.00    +0.013 A 
BRANCH  20  23
ATOM     23  O   UNL     1      -3.286  -4.127   4.907  0.00  0.00    -0.487 OA
BRANCH  23  24
ATOM     24  C   UNL     1      -3.432  -3.226   6.007  0.00  0.00    +0.264 C 
BRANCH  24  25
ATOM     25  C   UNL     1      -4.841  -3.303   6.535  0.00  0.00    -0.010 A 
ATOM     26  C   UNL     1      -5.819  -2.473   6.019  0.00  0.00    +0.007 A 
ATOM     27  C   UNL     1      -7.112  -2.543   6.503  0.00  0.00    +0.000 A 
ATOM     28  C   UNL     1      -7.427  -3.443   7.504  0.00  0.00    +0.000 A 
ATOM     29  C   UNL     1      -6.450  -4.274   8.020  0.00  0.00    +0.000 A 
ATOM     30  C   UNL     1      -5.158  -4.207   7.532  0.00  0.00    +0.007 A 
ENDBRANCH  24  25
ENDBRANCH  23  24
ENDBRANCH  20  23
ENDBRANCH   3  17
BRANCH   9  31
ATOM     31  N   UNL     1       3.708  -4.818  -2.584  0.00  0.00    -0.328 N 
ATOM     32  H   UNL     1       4.673  -4.874  -2.663  0.00  0.00    +0.145 HD
ATOM     33  H   UNL     1       3.149  -4.950  -3.366  0.00  0.00    +0.145 HD
ENDBRANCH   9  31
BRANCH  10  34
ATOM     34  C   UNL     1       1.037  -4.698  -2.511  0.00  0.00    +0.101 C 
ATOM     35  N   UNL     1       0.444  -4.868  -3.465  0.00  0.00    -0.191 NA
ENDBRANCH  10  34
TORSDOF 7
