REMARK  Name = ZINC02208082
REMARK  10 active torsions:
REMARK  status: ('A' for Active; 'I' for Inactive)
REMARK    1  A    between atoms: C_1  and  C_2
REMARK    2  A    between atoms: C_4  and  C_7
REMARK    3  A    between atoms: N_9  and  C_10
REMARK    4  A    between atoms: N_9  and  N_23
REMARK    5  A    between atoms: C_10  and  C_12
REMARK    6  A    between atoms: C_10  and  C_18
REMARK    7  A    between atoms: C_24  and  C_26
REMARK    8  A    between atoms: C_26  and  C_27
REMARK    9  A    between atoms: C_26  and  C_33
REMARK   10  A    between atoms: C_26  and  O_39
REMARK                            x       y       z     vdW  Elec       q    Type
REMARK                         _______ _______ _______ _____ _____    ______ ____
ROOT
ATOM      1  C   UNL     1       2.197   4.566   3.429  0.00  0.00    +0.264 C 
ATOM      2  O   UNL     1       1.349   4.254   4.243  0.00  0.00    -0.268 OA
ATOM      3  N   UNL     1       2.346   3.845   2.300  0.00  0.00    -0.201 N 
ENDROOT
BRANCH   1   7
ATOM      4  C   UNL     1       4.110   8.340   6.287  0.00  0.00    +0.051 C 
ATOM      5  C   UNL     1       3.897   7.460   5.082  0.00  0.00    -0.013 A 
ATOM      6  C   UNL     1       3.067   6.407   4.951  0.00  0.00    +0.024 A 
ATOM      7  C   UNL     1       3.061   5.732   3.677  0.00  0.00    +0.046 A 
ATOM      8  C   UNL     1       3.897   6.230   2.700  0.00  0.00    +0.058 A 
ATOM      9  S   UNL     1       4.673   7.565   3.483  0.00  0.00    -0.101 S 
ENDBRANCH   1   7
BRANCH   3  10
ATOM     10  N   UNL     1       3.200   4.300   1.286  0.00  0.00    -0.228 N 
ATOM     11  C   UNL     1       4.448   3.802   1.182  0.00  0.00    +0.270 C 
ATOM     12  O   UNL     1       4.822   2.938   1.947  0.00  0.00    -0.270 OA
ATOM     13  H   UNL     1       2.892   4.972   0.659  0.00  0.00    +0.173 HD
BRANCH  11  14
ATOM     14  C   UNL     1       5.379   4.320   0.117  0.00  0.00    +0.194 C 
BRANCH  14  15
ATOM     15  C   UNL     1       6.071   5.563   0.614  0.00  0.00    -0.003 A 
ATOM     16  C   UNL     1       6.626   5.585   1.880  0.00  0.00    +0.007 A 
ATOM     17  C   UNL     1       7.265   6.723   2.335  0.00  0.00    +0.000 A 
ATOM     18  C   UNL     1       7.339   7.843   1.528  0.00  0.00    +0.000 A 
ATOM     19  C   UNL     1       6.779   7.823   0.264  0.00  0.00    +0.000 A 
ATOM     20  C   UNL     1       6.145   6.683  -0.192  0.00  0.00    +0.007 A 
ENDBRANCH  14  15
BRANCH  14  21
ATOM     21  C   UNL     1       6.408   3.268  -0.206  0.00  0.00    -0.003 A 
ATOM     22  C   UNL     1       7.304   2.857   0.763  0.00  0.00    +0.007 A 
ATOM     23  C   UNL     1       8.245   1.888   0.469  0.00  0.00    +0.000 A 
ATOM     24  C   UNL     1       8.296   1.337  -0.798  0.00  0.00    +0.000 A 
ATOM     25  C   UNL     1       7.404   1.751  -1.769  0.00  0.00    +0.000 A 
ATOM     26  C   UNL     1       6.460   2.716  -1.473  0.00  0.00    +0.007 A 
ENDBRANCH  14  21
BRANCH  14  27
ATOM     27  O   UNL     1       4.630   4.631  -1.060  0.00  0.00    -0.371 OA
ATOM     28  H   UNL     1       4.158   3.876  -1.436  0.00  0.00    +0.212 HD
ENDBRANCH  14  27
ENDBRANCH  11  14
ENDBRANCH   3  10
BRANCH   3  29
ATOM     29  C   UNL     1       1.617   2.586   2.134  0.00  0.00    +0.193 C 
BRANCH  29  30
ATOM     30  C   UNL     1       2.591   1.477   1.830  0.00  0.00    -0.018 A 
ATOM     31  C   UNL     1       2.874   0.523   2.789  0.00  0.00    +0.006 A 
ATOM     32  C   UNL     1       3.767  -0.494   2.510  0.00  0.00    +0.000 A 
ATOM     33  C   UNL     1       4.377  -0.558   1.271  0.00  0.00    +0.000 A 
ATOM     34  C   UNL     1       4.094   0.396   0.312  0.00  0.00    +0.000 A 
ATOM     35  C   UNL     1       3.201   1.413   0.591  0.00  0.00    +0.006 A 
ENDBRANCH  29  30
BRANCH  29  36
ATOM     36  C   UNL     1       0.637   2.720   0.997  0.00  0.00    +0.131 A 
ATOM     37  C   UNL     1      -0.645   2.312   1.011  0.00  0.00    +0.047 A 
ATOM     38  C   UNL     1      -1.191   2.634  -0.253  0.00  0.00    +0.041 A 
ATOM     39  C   UNL     1      -0.208   3.212  -0.967  0.00  0.00    +0.195 A 
ATOM     40  O   UNL     1       0.897   3.261  -0.205  0.00  0.00    -0.466 OA
ENDBRANCH  29  36
ENDBRANCH   3  29
TORSDOF 9
