REMARK  Name = ZINC04143471
REMARK  7 active torsions:
REMARK  status: ('A' for Active; 'I' for Inactive)
REMARK    1  A    between atoms: C_1  and  C_2
REMARK    2  A    between atoms: C_2  and  C_3
REMARK    3  A    between atoms: C_6  and  C_8
REMARK    4  A    between atoms: C_10  and  C_30
REMARK    5  A    between atoms: C_11  and  N_29
REMARK    6  A    between atoms: N_12  and  C_20
REMARK    7  A    between atoms: C_25  and  N_26
REMARK                            x       y       z     vdW  Elec       q    Type
REMARK                         _______ _______ _______ _____ _____    ______ ____
ROOT
ATOM      1  C   UNL     1       1.357   3.507   0.039  0.00  0.00    +0.104 C 
ATOM      2  C   UNL     1       1.287   2.018   0.208  0.00  0.00    +0.077 C 
ATOM      3  C   UNL     1       0.097   1.364   0.180  0.00  0.00    +0.107 C 
ATOM      4  N   UNL     1      -1.073   2.067  -0.003  0.00  0.00    -0.258 N 
ATOM      5  C   UNL     1      -1.120   3.415   0.247  0.00  0.00    +0.025 C 
ATOM      6  C   UNL     1       0.013   4.147   0.283  0.00  0.00    +0.026 C 
ATOM      7  C   UNL     1      -0.023   5.527   0.549  0.00  0.00    +0.162 C 
ATOM      8  O   UNL     1       1.014   6.159   0.564  0.00  0.00    -0.292 OA
ATOM      9  C   UNL     1      -1.323   6.236   0.817  0.00  0.00    +0.080 C 
ATOM     10  C   UNL     1      -2.314   5.242   1.432  0.00  0.00    +0.014 C 
ATOM     11  C   UNL     1      -2.467   4.056   0.478  0.00  0.00    +0.052 C 
ENDROOT
BRANCH   4  12
ATOM     12  C   UNL     1      -2.223   1.399  -0.441  0.00  0.00    +0.070 A 
ATOM     13  C   UNL     1      -2.522   1.345  -1.796  0.00  0.00    +0.026 A 
ATOM     14  C   UNL     1      -3.656   0.685  -2.226  0.00  0.00    +0.002 A 
ATOM     15  C   UNL     1      -4.494   0.078  -1.308  0.00  0.00    +0.002 A 
ATOM     16  C   UNL     1      -4.199   0.129   0.042  0.00  0.00    +0.034 A 
ATOM     17  C   UNL     1      -3.063   0.783   0.477  0.00  0.00    +0.148 A 
BRANCH  17  18
ATOM     18  N   UNL     1      -2.744   0.833   1.922  0.00  0.00    +0.058 N 
ATOM     19  O   UNL     1      -3.427   0.213   2.718  0.00  0.00    -0.126 OA
ATOM     20  O   UNL     1      -1.799   1.493   2.315  0.00  0.00    -0.126 OA
ENDBRANCH  17  18
ENDBRANCH   4  12
BRANCH   1  24
ATOM     21  C   UNL     1       2.248   4.130  -4.007  0.00  0.00    -0.010 A 
ATOM     22  C   UNL     1       3.088   4.728  -3.127  0.00  0.00    +0.011 A 
ATOM     23  C   UNL     1       2.863   4.572  -1.772  0.00  0.00    +0.012 A 
ATOM     24  C   UNL     1       1.808   3.825  -1.363  0.00  0.00    +0.003 A 
ATOM     25  S   UNL     1       1.097   3.308  -2.917  0.00  0.00    -0.097 S 
BRANCH  21  27
ATOM     26  C   UNL     1       3.126   2.979  -6.020  0.00  0.00    +0.009 C 
ATOM     27  C   UNL     1       2.281   4.149  -5.513  0.00  0.00    +0.039 C 
ENDBRANCH  21  27
ENDBRANCH   1  24
BRANCH   3  28
ATOM     28  N   UNL     1       0.061  -0.001   0.330  0.00  0.00    -0.345 N 
ATOM     29  H   UNL     1       0.885  -0.497   0.455  0.00  0.00    +0.144 HD
ATOM     30  H   UNL     1      -0.789  -0.469   0.310  0.00  0.00    +0.144 HD
ENDBRANCH   3  28
BRANCH   2  31
ATOM     31  C   UNL     1       2.495   1.274   0.402  0.00  0.00    +0.099 C 
ATOM     32  N   UNL     1       3.453   0.684   0.556  0.00  0.00    -0.191 NA
ENDBRANCH   2  31
TORSDOF 6
