REMARK  Name = ZINC35724594
REMARK  14 active torsions:
REMARK  status: ('A' for Active; 'I' for Inactive)
REMARK    1  A    between atoms: C_1  and  C_2
REMARK    2  A    between atoms: C_2  and  C_3
REMARK    3  A    between atoms: C_3  and  C_5
REMARK    4  A    between atoms: C_3  and  C_6
REMARK    5  A    between atoms: C_6  and  C_8
REMARK    6  A    between atoms: C_6  and  N_23
REMARK    7  A    between atoms: C_14  and  C_16
REMARK    8  A    between atoms: N_26  and  C_27
REMARK    9  A    between atoms: C_28  and  C_36
REMARK   10  A    between atoms: C_32  and  C_33
REMARK   11  A    between atoms: C_33  and  C_34
REMARK   12  A    between atoms: C_33  and  C_35
REMARK   13  A    between atoms: C_36  and  C_37
REMARK   14  A    between atoms: C_36  and  C_38
REMARK                            x       y       z     vdW  Elec       q    Type
REMARK                         _______ _______ _______ _____ _____    ______ ____
ROOT
ATOM      1  C   UNL     1      -0.586  -4.039   0.388  0.00  0.00    +0.163 C 
ENDROOT
BRANCH   1   2
ATOM      2  C   UNL     1      -1.019  -4.792   1.619  0.00  0.00    +0.239 C 
ATOM      3  O   UNL     1      -1.405  -5.938   1.525  0.00  0.00    -0.273 OA
ATOM      4  N   UNL     1      -0.977  -4.192   2.826  0.00  0.00    -0.262 N 
ATOM      5  C   UNL     1      -1.377  -4.887   3.961  0.00  0.00    +0.188 A 
ATOM      6  N   UNL     1      -1.822  -6.130   4.087  0.00  0.00    -0.125 NA
ATOM      7  N   UNL     1      -2.146  -6.612   5.207  0.00  0.00    -0.140 NA
ATOM      8  C   UNL     1      -2.061  -5.903   6.326  0.00  0.00    +0.134 A 
ATOM      9  S   UNL     1      -1.430  -4.361   5.672  0.00  0.00    -0.030 S 
ATOM     10  H   UNL     1      -0.668  -3.276   2.901  0.00  0.00    +0.157 HD
BRANCH   8  11
ATOM     11  C   UNL     1      -2.389  -6.282   7.717  0.00  0.00    +0.009 A 
ATOM     12  C   UNL     1      -2.225  -5.359   8.751  0.00  0.00    +0.012 A 
ATOM     13  C   UNL     1      -2.532  -5.717  10.047  0.00  0.00    +0.020 A 
ATOM     14  C   UNL     1      -3.002  -6.990  10.323  0.00  0.00    +0.041 A 
ATOM     15  C   UNL     1      -3.166  -7.911   9.302  0.00  0.00    +0.020 A 
ATOM     16  C   UNL     1      -2.868  -7.561   8.001  0.00  0.00    +0.012 A 
ATOM     17 CL   UNL     1      -3.386  -7.435  11.957  0.00  0.00    -0.084 Cl
ENDBRANCH   8  11
ENDBRANCH   1   2
BRANCH   1  18
ATOM     18  N   UNL     1      -0.724  -4.904  -0.787  0.00  0.00    -0.288 N 
ATOM     19  C   UNL     1      -0.892  -4.359  -2.008  0.00  0.00    +0.304 C 
ATOM     20  O   UNL     1      -0.928  -3.150  -2.135  0.00  0.00    -0.252 OA
ATOM     21  N   UNL     1      -1.019  -5.154  -3.089  0.00  0.00    -0.269 N 
ATOM     22  H   UNL     1      -0.696  -5.868  -0.686  0.00  0.00    +0.151 HD
ATOM     23  H   UNL     1      -0.929  -6.115  -2.997  0.00  0.00    +0.156 HD
BRANCH  21  24
ATOM     24  C   UNL     1      -1.282  -4.592  -4.343  0.00  0.00    +0.042 A 
ATOM     25  C   UNL     1      -0.410  -4.813  -5.401  0.00  0.00    -0.023 A 
ATOM     26  C   UNL     1      -0.673  -4.258  -6.638  0.00  0.00    +0.006 A 
ATOM     27  C   UNL     1      -1.803  -3.483  -6.824  0.00  0.00    +0.001 A 
ATOM     28  C   UNL     1      -2.673  -3.261  -5.772  0.00  0.00    +0.006 A 
ATOM     29  C   UNL     1      -2.419  -3.818  -4.535  0.00  0.00    -0.023 A 
BRANCH  29  30
ATOM     30  C   UNL     1      -3.371  -3.581  -3.391  0.00  0.00    +0.015 C 
ATOM     31  C   UNL     1      -4.131  -2.273  -3.622  0.00  0.00    +0.012 C 
ATOM     32  C   UNL     1      -4.367  -4.740  -3.307  0.00  0.00    +0.012 C 
ENDBRANCH  29  30
BRANCH  25  33
ATOM     33  C   UNL     1       0.822  -5.657  -5.199  0.00  0.00    +0.015 C 
ATOM     34  C   UNL     1       0.754  -6.884  -6.111  0.00  0.00    +0.012 C 
ATOM     35  C   UNL     1       2.065  -4.835  -5.543  0.00  0.00    +0.012 C 
ENDBRANCH  25  33
ENDBRANCH  21  24
ENDBRANCH   1  18
BRANCH   1  36
ATOM     36  C   UNL     1       0.876  -3.614   0.539  0.00  0.00    +0.015 C 
ATOM     37  C   UNL     1       1.280  -2.744  -0.654  0.00  0.00    +0.010 C 
BRANCH  36  39
ATOM     38  C   UNL     1       3.212  -4.438   0.862  0.00  0.00    +0.004 C 
ATOM     39  C   UNL     1       1.767  -4.857   0.587  0.00  0.00    +0.002 C 
ENDBRANCH  36  39
ENDBRANCH   1  36
TORSDOF 8
