REMARK  Name = ZINC27563802
REMARK  10 active torsions:
REMARK  status: ('A' for Active; 'I' for Inactive)
REMARK    1  A    between atoms: C_1  and  C_2
REMARK    2  A    between atoms: C_3  and  C_31
REMARK    3  A    between atoms: C_4  and  C_12
REMARK    4  A    between atoms: C_17  and  O_18
REMARK    5  A    between atoms: O_18  and  C_19
REMARK    6  A    between atoms: C_19  and  C_20
REMARK    7  A    between atoms: C_23  and  C_26
REMARK    8  A    between atoms: C_26  and  C_27
REMARK    9  A    between atoms: C_26  and  C_28
REMARK   10  A    between atoms: C_26  and  C_29
REMARK                            x       y       z     vdW  Elec       q    Type
REMARK                         _______ _______ _______ _____ _____    ______ ____
ROOT
ATOM      1  C   UNL     1      -1.754  -3.172  -1.437  0.00  0.00    +0.022 A 
ATOM      2  C   UNL     1      -0.889  -3.690  -2.382  0.00  0.00    +0.024 A 
ATOM      3  C   UNL     1      -1.385  -4.393  -3.465  0.00  0.00    +0.018 A 
ATOM      4  C   UNL     1      -2.749  -4.580  -3.604  0.00  0.00    +0.019 A 
ATOM      5  C   UNL     1      -3.618  -4.065  -2.662  0.00  0.00    +0.047 A 
ATOM      6  C   UNL     1      -3.121  -3.364  -1.572  0.00  0.00    +0.126 A 
ATOM      7 BR   UNL     1      -0.198  -5.100  -4.756  0.00  0.00    -0.050 Br
ENDROOT
BRANCH   1  11
ATOM      8  C   UNL     1       2.619  -1.982  -0.039  0.00  0.00    +0.066 C 
ATOM      9  C   UNL     1       1.198  -2.391   0.249  0.00  0.00    +0.052 C 
ATOM     10  C   UNL     1       0.205  -1.969  -0.587  0.00  0.00    +0.062 C 
ATOM     11  C   UNL     1      -1.212  -2.406  -0.258  0.00  0.00    +0.169 C 
ATOM     12  N   UNL     1      -1.365  -3.243   0.935  0.00  0.00    -0.191 N 
ATOM     13  C   UNL     1      -0.247  -3.572   1.664  0.00  0.00    +0.258 C 
ATOM     14  N   UNL     1       0.949  -3.155   1.306  0.00  0.00    -0.217 NA
ATOM     15  N   UNL     1      -0.691  -4.336   2.687  0.00  0.00    -0.094 NA
ATOM     16  N   UNL     1      -1.967  -4.474   2.610  0.00  0.00    -0.060 NA
ATOM     17  N   UNL     1      -2.441  -3.848   1.587  0.00  0.00    -0.163 N 
ATOM     18  H   UNL     1      -3.373  -3.805   1.320  0.00  0.00    +0.195 HD
BRANCH  10  19
ATOM     19  C   UNL     1       0.483  -1.162  -1.708  0.00  0.00    +0.241 C 
ATOM     20  O   UNL     1       1.637  -0.918  -2.012  0.00  0.00    -0.271 OA
ATOM     21  N   UNL     1      -0.529  -0.660  -2.444  0.00  0.00    -0.325 N 
ATOM     22  H   UNL     1      -1.445  -0.901  -2.237  0.00  0.00    +0.145 HD
ATOM     23  H   UNL     1      -0.340  -0.058  -3.181  0.00  0.00    +0.145 HD
ENDBRANCH  10  19
ENDBRANCH   1  11
BRANCH   6  24
ATOM     24  O   UNL     1      -3.974  -2.860  -0.641  0.00  0.00    -0.487 OA
BRANCH  24  25
ATOM     25  C   UNL     1      -5.360  -3.168  -0.797  0.00  0.00    +0.264 C 
BRANCH  25  26
ATOM     26  C   UNL     1      -6.146  -2.529   0.319  0.00  0.00    -0.010 A 
ATOM     27  C   UNL     1      -6.357  -3.219   1.498  0.00  0.00    +0.007 A 
ATOM     28  C   UNL     1      -7.077  -2.633   2.522  0.00  0.00    +0.004 A 
ATOM     29  C   UNL     1      -7.586  -1.357   2.367  0.00  0.00    -0.042 A 
ATOM     30  C   UNL     1      -7.374  -0.667   1.188  0.00  0.00    +0.004 A 
ATOM     31  C   UNL     1      -6.650  -1.252   0.166  0.00  0.00    +0.007 A 
BRANCH  29  32
ATOM     32  C   UNL     1      -8.372  -0.719   3.483  0.00  0.00    -0.013 C 
ATOM     33  C   UNL     1      -7.494  -0.617   4.732  0.00  0.00    +0.015 C 
ATOM     34  C   UNL     1      -8.817   0.682   3.057  0.00  0.00    +0.015 C 
ATOM     35  C   UNL     1      -9.603  -1.573   3.793  0.00  0.00    +0.015 C 
ENDBRANCH  29  32
ENDBRANCH  25  26
ENDBRANCH  24  25
ENDBRANCH   6  24
TORSDOF 6
