REMARK  Name = ZINC00674761
REMARK  5 active torsions:
REMARK  status: ('A' for Active; 'I' for Inactive)
REMARK    1  A    between atoms: C_3  and  C_6
REMARK    2  A    between atoms: C_9  and  C_32
REMARK    3  A    between atoms: C_14  and  C_16
REMARK    4  A    between atoms: N_18  and  C_19
REMARK    5  A    between atoms: C_20  and  C_29
REMARK                            x       y       z     vdW  Elec       q    Type
REMARK                         _______ _______ _______ _____ _____    ______ ____
ROOT
ATOM      1  C   UNL     1       3.599   0.625  -0.029  0.00  0.00    +0.140 C 
ATOM      2  C   UNL     1       4.093   0.360  -1.456  0.00  0.00    +0.066 C 
ATOM      3  C   UNL     1       3.487  -0.944  -1.985  0.00  0.00    +0.215 C 
ATOM      4  N   UNL     1       3.692  -2.001  -0.990  0.00  0.00    -0.238 N 
ATOM      5  C   UNL     1       3.970  -1.759   0.326  0.00  0.00    +0.119 A 
ATOM      6  C   UNL     1       4.101  -2.945   0.952  0.00  0.00    +0.078 A 
ATOM      7  C   UNL     1       3.895  -3.960  -0.009  0.00  0.00    +0.149 A 
ATOM      8  N   UNL     1       3.650  -3.382  -1.172  0.00  0.00    -0.164 NA
ATOM      9  N   UNL     1       4.078  -0.462   0.847  0.00  0.00    -0.319 N 
ATOM     10  H   UNL     1       4.447  -0.287   1.727  0.00  0.00    +0.148 HD
ENDROOT
BRANCH   1  13
ATOM     11  C   UNL     1      -0.016   1.341   0.009  0.00  0.00    +0.041 A 
ATOM     12  C   UNL     1       1.331   1.769  -0.001  0.00  0.00    +0.046 A 
ATOM     13  C   UNL     1       2.092   0.660  -0.014  0.00  0.00    +0.125 A 
ATOM     14  O   UNL     1       1.282  -0.411  -0.012  0.00  0.00    -0.466 OA
ATOM     15  C   UNL     1       0.002  -0.004   0.002  0.00  0.00    +0.195 A 
ENDBRANCH   1  13
BRANCH   7  16
ATOM     16  C   UNL     1       3.945  -5.415   0.242  0.00  0.00    +0.269 C 
ATOM     17  O   UNL     1       4.182  -5.830   1.360  0.00  0.00    -0.268 OA
ATOM     18  N   UNL     1       3.729  -6.281  -0.767  0.00  0.00    -0.274 N 
ATOM     19  H   UNL     1       3.541  -5.949  -1.659  0.00  0.00    +0.156 HD
BRANCH  18  20
ATOM     20  C   UNL     1       3.777  -7.647  -0.531  0.00  0.00    +0.090 A 
ATOM     21  C   UNL     1       3.588  -8.674  -1.439  0.00  0.00    +0.084 A 
ATOM     22  C   UNL     1       3.689 -10.037  -0.938  0.00  0.00    -0.018 A 
ATOM     23  C   UNL     1       3.956 -10.117   0.383  0.00  0.00    -0.004 A 
ATOM     24  S   UNL     1       4.084  -8.434   0.919  0.00  0.00    -0.077 S 
ATOM     25  C   UNL     1       4.105 -11.353   1.213  0.00  0.00    +0.043 C 
ATOM     26  C   UNL     1       5.058 -12.324   0.504  0.00  0.00    +0.005 C 
ATOM     27  C   UNL     1       4.241 -13.218  -0.424  0.00  0.00    +0.001 C 
ATOM     28  C   UNL     1       3.048 -12.446  -0.985  0.00  0.00    +0.005 C 
ATOM     29  C   UNL     1       3.524 -11.264  -1.824  0.00  0.00    +0.037 C 
BRANCH  21  30
ATOM     30  C   UNL     1       3.303  -8.407  -2.817  0.00  0.00    +0.102 C 
ATOM     31  N   UNL     1       3.078  -8.195  -3.909  0.00  0.00    -0.191 NA
ENDBRANCH  21  30
ENDBRANCH  18  20
ENDBRANCH   7  16
BRANCH   3  32
ATOM     32  C   UNL     1       4.172  -1.333  -3.297  0.00  0.00    +0.412 C 
ATOM     33  F   UNL     1       5.541  -1.513  -3.072  0.00  0.00    -0.168 F 
ATOM     34  F   UNL     1       3.618  -2.523  -3.778  0.00  0.00    -0.168 F 
ATOM     35  F   UNL     1       3.985  -0.316  -4.240  0.00  0.00    -0.168 F 
ENDBRANCH   3  32
TORSDOF 5
