REMARK  Name = ZINC39666152
REMARK  13 active torsions:
REMARK  status: ('A' for Active; 'I' for Inactive)
REMARK    1  A    between atoms: C_1  and  C_2
REMARK    2  A    between atoms: C_2  and  C_3
REMARK    3  A    between atoms: C_3  and  C_4
REMARK    4  A    between atoms: C_4  and  C_5
REMARK    5  A    between atoms: C_5  and  C_6
REMARK    6  A    between atoms: C_6  and  C_7
REMARK    7  A    between atoms: C_11  and  C_20
REMARK    8  A    between atoms: N_22  and  C_23
REMARK    9  A    between atoms: C_23  and  C_24
REMARK   10  A    between atoms: C_24  and  C_26
REMARK   11  A    between atoms: C_24  and  O_27
REMARK   12  A    between atoms: O_27  and  C_28
REMARK   13  A    between atoms: C_31  and  C_34
REMARK                            x       y       z     vdW  Elec       q    Type
REMARK                         _______ _______ _______ _____ _____    ______ ____
ROOT
ATOM      1  C   UNL     1       2.163  -4.521  -3.725  0.00  0.00    +0.216 C 
ATOM      2  O   UNL     1       2.596  -3.716  -4.522  0.00  0.00    -0.276 OA
ATOM      3  N   UNL     1       2.301  -5.841  -3.957  0.00  0.00    -0.300 N 
ATOM      4  C   UNL     1       1.836  -6.965  -3.111  0.00  0.00    +0.121 C 
ATOM      5  C   UNL     1       1.318  -8.020  -4.114  0.00  0.00    +0.100 C 
ATOM      6  C   UNL     1       2.055  -7.708  -5.428  0.00  0.00    -0.004 C 
ATOM      7  C   UNL     1       2.947  -6.496  -5.120  0.00  0.00    +0.115 C 
ATOM      8  C   UNL     1       2.909  -8.900  -5.850  0.00  0.00    -0.010 C 
ATOM      9  C   UNL     1       3.587  -8.588  -7.187  0.00  0.00    -0.082 C 
ATOM     10  N   UNL     1       2.564  -8.309  -8.203  0.00  0.00    +0.379 N 
ATOM     11  C   UNL     1       1.808  -7.106  -7.834  0.00  0.00    -0.082 C 
ATOM     12  C   UNL     1       1.055  -7.355  -6.524  0.00  0.00    -0.010 C 
ATOM     13  H   UNL     1       3.010  -8.164  -9.096  0.00  0.00    -0.086 HD
ATOM     14  H   UNL     1       1.934  -9.094  -8.268  0.00  0.00    -0.086 HD
ENDROOT
BRANCH   5  15
ATOM     15  C   UNL     1       1.656  -9.409  -3.637  0.00  0.00    +0.218 C 
ATOM     16  O   UNL     1       2.690  -9.609  -3.037  0.00  0.00    -0.275 OA
ATOM     17  N   UNL     1       0.808 -10.429  -3.877  0.00  0.00    -0.312 N 
ATOM     18  H   UNL     1      -0.020 -10.269  -4.357  0.00  0.00    +0.149 HD
BRANCH  17  19
ATOM     19  C   UNL     1       1.136 -11.779  -3.413  0.00  0.00    +0.148 C 
BRANCH  19  20
ATOM     20  C   UNL     1       0.016 -12.742  -3.812  0.00  0.00    +0.187 C 
ATOM     21  C   UNL     1       0.359 -14.152  -3.328  0.00  0.00    +0.053 C 
BRANCH  20  22
ATOM     22  O   UNL     1      -1.211 -12.319  -3.216  0.00  0.00    -0.488 OA
BRANCH  22  23
ATOM     23  C   UNL     1      -2.361 -12.697  -3.834  0.00  0.00    +0.121 A 
ATOM     24  C   UNL     1      -3.583 -12.222  -3.380  0.00  0.00    +0.046 A 
ATOM     25  C   UNL     1      -4.750 -12.608  -4.011  0.00  0.00    +0.007 A 
ATOM     26  C   UNL     1      -4.700 -13.466  -5.093  0.00  0.00    -0.050 A 
ATOM     27  C   UNL     1      -3.484 -13.941  -5.547  0.00  0.00    +0.007 A 
ATOM     28  C   UNL     1      -2.314 -13.554  -4.924  0.00  0.00    +0.046 A 
ATOM     29  C   UNL     1      -5.975 -13.886  -5.779  0.00  0.00    +0.044 C 
ENDBRANCH  22  23
ENDBRANCH  20  22
ENDBRANCH  19  20
ENDBRANCH  17  19
ENDBRANCH   5  15
BRANCH   1  30
ATOM     30  C   UNL     1       1.470  -4.044  -2.474  0.00  0.00    +0.096 C 
BRANCH  30  31
ATOM     31  C   UNL     1       1.448  -2.514  -2.455  0.00  0.00    +0.009 C 
BRANCH  31  32
ATOM     32  C   UNL     1       0.745  -2.030  -1.185  0.00  0.00    +0.000 C 
BRANCH  32  33
ATOM     33  C   UNL     1       0.722  -0.500  -1.166  0.00  0.00    -0.000 C 
BRANCH  33  35
ATOM     34  C   UNL     1      -0.003   1.513   0.123  0.00  0.00    +0.004 C 
ATOM     35  C   UNL     1       0.019  -0.017   0.103  0.00  0.00    -0.003 C 
ENDBRANCH  33  35
ENDBRANCH  32  33
ENDBRANCH  31  32
ENDBRANCH  30  31
ENDBRANCH   1  30
TORSDOF 10
