REMARK  Name = ZINC51994043
REMARK  5 active torsions:
REMARK  status: ('A' for Active; 'I' for Inactive)
REMARK    1  A    between atoms: C_3  and  S_9
REMARK    2  A    between atoms: C_4  and  N_8
REMARK    3  A    between atoms: S_9  and  N_12
REMARK    4  A    between atoms: N_12  and  C_13
REMARK    5  A    between atoms: C_19  and  O_21
REMARK                            x       y       z     vdW  Elec       q    Type
REMARK                         _______ _______ _______ _____ _____    ______ ____
ROOT
ATOM      1  S   UNL     1       3.910   2.232   0.012  0.00  0.00    +0.060 S 
ATOM      2  O   UNL     1       4.765   1.603  -0.933  0.00  0.00    -0.153 OA
ATOM      3  O   UNL     1       3.434   3.560  -0.157  0.00  0.00    -0.153 OA
ENDROOT
BRANCH   1   6
ATOM      4  C   UNL     1       1.260  -0.749  -0.477  0.00  0.00    +0.017 A 
ATOM      5  C   UNL     1       2.375   0.060  -0.599  0.00  0.00    +0.031 A 
ATOM      6  C   UNL     1       2.488   1.203   0.168  0.00  0.00    +0.126 A 
ATOM      7  C   UNL     1       1.480   1.541   1.062  0.00  0.00    +0.052 A 
ATOM      8  C   UNL     1       0.361   0.728   1.182  0.00  0.00    +0.040 A 
ATOM      9  C   UNL     1       0.254  -0.415   0.413  0.00  0.00    +0.020 A 
ATOM     10 BR   UNL     1      -1.270  -1.524   0.575  0.00  0.00    -0.050 Br
BRANCH   7  11
ATOM     11  N   UNL     1       1.592   2.697   1.839  0.00  0.00    -0.356 N 
ATOM     12  H   UNL     1       2.342   3.298   1.709  0.00  0.00    +0.142 HD
ATOM     13  H   UNL     1       0.919   2.898   2.508  0.00  0.00    +0.142 HD
ENDBRANCH   7  11
ENDBRANCH   1   6
BRANCH   1  14
ATOM     14  N   UNL     1       4.702   2.195   1.466  0.00  0.00    -0.184 NA
ATOM     15  H   UNL     1       4.773   3.001   2.000  0.00  0.00    +0.148 HD
BRANCH  14  16
ATOM     16  C   UNL     1       5.297   0.944   1.944  0.00  0.00    +0.105 C 
ATOM     17  C   UNL     1       4.325   0.250   2.900  0.00  0.00    +0.023 C 
ATOM     18  C   UNL     1       4.946  -1.056   3.400  0.00  0.00    +0.002 C 
ATOM     19  C   UNL     1       6.253  -0.751   4.134  0.00  0.00    +0.003 C 
ATOM     20  C   UNL     1       7.225  -0.057   3.178  0.00  0.00    +0.033 C 
ATOM     21  C   UNL     1       6.604   1.249   2.678  0.00  0.00    +0.133 C 
BRANCH  21  22
ATOM     22  O   UNL     1       7.512   1.897   1.785  0.00  0.00    -0.390 OA
ATOM     23  H   UNL     1       8.364   2.121   2.184  0.00  0.00    +0.210 HD
ENDBRANCH  21  22
ENDBRANCH  14  16
ENDBRANCH   1  14
TORSDOF 5
