REMARK  Name = ZINC15636939
REMARK  10 active torsions:
REMARK  status: ('A' for Active; 'I' for Inactive)
REMARK    1  A    between atoms: C_1  and  C_2
REMARK    2  A    between atoms: C_2  and  C_3
REMARK    3  A    between atoms: C_3  and  C_4
REMARK    4  A    between atoms: N_6  and  C_7
REMARK    5  A    between atoms: C_7  and  C_9
REMARK    6  A    between atoms: C_7  and  N_13
REMARK    7  A    between atoms: N_13  and  C_14
REMARK    8  A    between atoms: C_14  and  N_16
REMARK    9  A    between atoms: N_16  and  C_17
REMARK   10  A    between atoms: C_18  and  C_26
REMARK                            x       y       z     vdW  Elec       q    Type
REMARK                         _______ _______ _______ _____ _____    ______ ____
ROOT
ATOM      1  C   UNL     1      -2.279   7.221  -2.923  0.00  0.00    +0.136 C 
ATOM      2  S   UNL     1      -2.252   5.976  -4.098  0.00  0.00    -0.019 S 
ENDROOT
BRANCH   1   3
ATOM      3  N   UNL     1      -2.613   8.477  -3.280  0.00  0.00    -0.305 N 
ATOM      4  H   UNL     1      -2.628   9.183  -2.614  0.00  0.00    +0.150 HD
BRANCH   3   5
ATOM      5  C   UNL     1      -2.953   8.777  -4.673  0.00  0.00    +0.211 C 
BRANCH   5   8
ATOM      6  C   UNL     1      -1.037   8.844  -6.176  0.00  0.00    +0.214 C 
ATOM      7  O   UNL     1      -1.237   7.677  -6.436  0.00  0.00    -0.276 OA
ATOM      8  N   UNL     1      -1.840   9.488  -5.306  0.00  0.00    -0.294 N 
ATOM      9  H   UNL     1      -1.680  10.422  -5.098  0.00  0.00    +0.151 HD
BRANCH   6  10
ATOM     10  C   UNL     1       0.108   9.576  -6.827  0.00  0.00    +0.095 C 
BRANCH  10  12
ATOM     11  C   UNL     1       2.018   9.366  -8.425  0.00  0.00    +0.004 C 
ATOM     12  C   UNL     1       0.855   8.623  -7.764  0.00  0.00    +0.006 C 
ENDBRANCH  10  12
ENDBRANCH   6  10
ENDBRANCH   5   8
BRANCH   5  13
ATOM     13  C   UNL     1      -4.207   9.653  -4.714  0.00  0.00    +0.225 C 
ATOM     14 CL   UNL     1      -3.894  11.192  -3.827  0.00  0.00    -0.080 Cl
ATOM     15 CL   UNL     1      -4.626  10.023  -6.428  0.00  0.00    -0.080 Cl
ATOM     16 CL   UNL     1      -5.578   8.779  -3.935  0.00  0.00    -0.080 Cl
ENDBRANCH   5  13
ENDBRANCH   3   5
ENDBRANCH   1   3
BRANCH   1  17
ATOM     17  N   UNL     1      -1.965   6.946  -1.641  0.00  0.00    -0.290 N 
ATOM     18  H   UNL     1      -1.980   7.651  -0.976  0.00  0.00    +0.154 HD
BRANCH  17  19
ATOM     19  C   UNL     1      -1.621   5.653  -1.274  0.00  0.00    +0.089 A 
ATOM     20  C   UNL     1      -1.271   5.177  -0.019  0.00  0.00    +0.084 A 
ATOM     21  C   UNL     1      -0.951   3.765   0.100  0.00  0.00    -0.018 A 
ATOM     22  C   UNL     1      -1.032   3.059  -1.049  0.00  0.00    -0.004 A 
ATOM     23  S   UNL     1      -1.524   4.240  -2.273  0.00  0.00    -0.077 S 
ATOM     24  C   UNL     1      -0.761   1.597  -1.232  0.00  0.00    +0.043 C 
ATOM     25  C   UNL     1      -0.013   1.086   0.008  0.00  0.00    +0.005 C 
ATOM     26  C   UNL     1      -0.735   1.583   1.264  0.00  0.00    +0.005 C 
ATOM     27  C   UNL     1      -0.551   3.094   1.407  0.00  0.00    +0.037 C 
BRANCH  20  28
ATOM     28  C   UNL     1      -1.226   6.047   1.118  0.00  0.00    +0.102 C 
ATOM     29  N   UNL     1      -1.191   6.737   2.020  0.00  0.00    -0.191 NA
ENDBRANCH  20  28
ENDBRANCH  17  19
ENDBRANCH   1  17
TORSDOF 9
