REMARK  Name = ZINC06557918
REMARK  8 active torsions:
REMARK  status: ('A' for Active; 'I' for Inactive)
REMARK    1  A    between atoms: C_1  and  C_2
REMARK    2  A    between atoms: C_5  and  C_8
REMARK    3  A    between atoms: C_11  and  S_14
REMARK    4  A    between atoms: N_12  and  N_13
REMARK    5  A    between atoms: S_14  and  C_15
REMARK    6  A    between atoms: C_15  and  C_17
REMARK    7  A    between atoms: C_15  and  C_18
REMARK    8  A    between atoms: N_20  and  C_21
REMARK                            x       y       z     vdW  Elec       q    Type
REMARK                         _______ _______ _______ _____ _____    ______ ____
ROOT
ATOM      1  S   UNL     1       7.523   2.693  -0.534  0.00  0.00    -0.072 S 
ENDROOT
BRANCH   1   5
ATOM      2  C   UNL     1      10.073   4.292  -3.025  0.00  0.00    +0.182 A 
ATOM      3  N   UNL     1       9.213   3.709  -3.828  0.00  0.00    -0.127 NA
ATOM      4  N   UNL     1       8.296   3.128  -3.140  0.00  0.00    -0.121 NA
ATOM      5  C   UNL     1       8.514   3.305  -1.856  0.00  0.00    +0.209 A 
ATOM      6  N   UNL     1       9.649   4.056  -1.738  0.00  0.00    -0.224 N 
BRANCH   2  11
ATOM      7  C   UNL     1      14.729   7.288  -4.596  0.00  0.00    +0.044 C 
ATOM      8  C   UNL     1      13.510   6.503  -4.184  0.00  0.00    -0.050 A 
ATOM      9  C   UNL     1      12.531   6.212  -5.118  0.00  0.00    +0.004 A 
ATOM     10  C   UNL     1      11.412   5.494  -4.748  0.00  0.00    +0.012 A 
ATOM     11  C   UNL     1      11.270   5.061  -3.429  0.00  0.00    +0.021 A 
ATOM     12  C   UNL     1      12.258   5.364  -2.490  0.00  0.00    +0.012 A 
ATOM     13  C   UNL     1      13.374   6.077  -2.875  0.00  0.00    +0.004 A 
ENDBRANCH   2  11
BRANCH   6  14
ATOM     14  N   UNL     1      10.241   4.481  -0.583  0.00  0.00    -0.295 N 
ATOM     15  H   UNL     1      10.915   3.807  -0.253  0.00  0.00    +0.163 HD
ATOM     16  H   UNL     1      10.666   5.388  -0.707  0.00  0.00    +0.163 HD
ENDBRANCH   6  14
ENDBRANCH   1   5
BRANCH   1  17
ATOM     17  C   UNL     1       6.241   1.830  -1.475  0.00  0.00    +0.137 C 
ATOM     18  C   UNL     1       5.437   2.845  -2.290  0.00  0.00    +0.029 C 
BRANCH  17  19
ATOM     19  C   UNL     1       5.321   1.107  -0.525  0.00  0.00    +0.227 C 
ATOM     20  O   UNL     1       5.202   1.496   0.617  0.00  0.00    -0.275 OA
ATOM     21  N   UNL     1       4.631   0.029  -0.946  0.00  0.00    -0.308 N 
ATOM     22  H   UNL     1       4.726  -0.282  -1.860  0.00  0.00    +0.149 HD
BRANCH  21  23
ATOM     23  C   UNL     1       3.737  -0.675  -0.022  0.00  0.00    +0.103 C 
ATOM     24  C   UNL     1       3.599  -2.130  -0.465  0.00  0.00    +0.027 C 
ATOM     25  C   UNL     1       2.501  -2.789   0.378  0.00  0.00    +0.007 C 
ATOM     26  C   UNL     1       1.155  -2.199  -0.036  0.00  0.00    +0.035 C 
ATOM     27  C   UNL     1       1.208  -0.693  -0.014  0.00  0.00    -0.042 A 
ATOM     28  C   UNL     1       2.393   0.007  -0.016  0.00  0.00    -0.024 A 
ATOM     29  C   UNL     1       2.372   1.395  -0.011  0.00  0.00    +0.006 A 
ATOM     30  C   UNL     1       1.174   2.078   0.002  0.00  0.00    +0.000 A 
ATOM     31  C   UNL     1      -0.017   1.375   0.010  0.00  0.00    +0.000 A 
ATOM     32  C   UNL     1       0.002  -0.004   0.002  0.00  0.00    +0.004 A 
ENDBRANCH  21  23
ENDBRANCH  17  19
ENDBRANCH   1  17
TORSDOF 6
