REMARK  Name = ZINC17080407
REMARK  10 active torsions:
REMARK  status: ('A' for Active; 'I' for Inactive)
REMARK    1  A    between atoms: C_1  and  C_2
REMARK    2  A    between atoms: C_2  and  C_4
REMARK    3  A    between atoms: C_7  and  N_10
REMARK    4  A    between atoms: N_13  and  N_14
REMARK    5  A    between atoms: C_15  and  C_17
REMARK    6  A    between atoms: C_20  and  C_22
REMARK    7  A    between atoms: C_25  and  C_28
REMARK    8  A    between atoms: C_28  and  C_29
REMARK    9  A    between atoms: C_28  and  C_30
REMARK   10  A    between atoms: C_28  and  C_31
REMARK                            x       y       z     vdW  Elec       q    Type
REMARK                         _______ _______ _______ _____ _____    ______ ____
ROOT
ATOM      1  N   UNL     1      -2.349   1.131   0.861  0.00  0.00    -0.233 N 
ATOM      2  C   UNL     1      -1.143   1.734   0.833  0.00  0.00    +0.233 C 
ATOM      3  O   UNL     1      -1.008   2.842   1.306  0.00  0.00    -0.274 OA
ATOM      4  H   UNL     1      -2.457   0.245   0.482  0.00  0.00    +0.173 HD
ENDROOT
BRANCH   1   8
ATOM      5  N   UNL     1      -4.800  -0.050   0.941  0.00  0.00    -0.268 N 
ATOM      6  C   UNL     1      -4.650   1.182   1.468  0.00  0.00    +0.320 C 
ATOM      7  O   UNL     1      -5.601   1.749   1.969  0.00  0.00    -0.251 OA
ATOM      8  N   UNL     1      -3.445   1.785   1.439  0.00  0.00    -0.218 N 
ATOM      9  H   UNL     1      -4.062  -0.471   0.475  0.00  0.00    +0.156 HD
ATOM     10  H   UNL     1      -3.337   2.671   1.818  0.00  0.00    +0.174 HD
BRANCH   5  14
ATOM     11  C   UNL     1      -8.429  -2.040   1.315  0.00  0.00    +0.017 A 
ATOM     12  C   UNL     1      -7.988  -1.185   2.333  0.00  0.00    +0.013 A 
ATOM     13  C   UNL     1      -6.795  -0.533   2.207  0.00  0.00    +0.024 A 
ATOM     14  C   UNL     1      -6.017  -0.717   1.067  0.00  0.00    +0.035 A 
ATOM     15  C   UNL     1      -6.453  -1.561   0.049  0.00  0.00    +0.024 A 
ATOM     16  C   UNL     1      -7.643  -2.221   0.170  0.00  0.00    +0.013 A 
BRANCH  11  18
ATOM     17  C   UNL     1     -10.126  -3.755   0.410  0.00  0.00    +0.091 C 
ATOM     18  C   UNL     1      -9.711  -2.742   1.446  0.00  0.00    +0.160 C 
ATOM     19  O   UNL     1     -10.437  -2.508   2.390  0.00  0.00    -0.292 OA
ENDBRANCH  11  18
ENDBRANCH   5  14
ENDBRANCH   1   8
BRANCH   2  20
ATOM     20  C   UNL     1       0.036   1.031   0.211  0.00  0.00    +0.084 C 
ATOM     21  C   UNL     1       0.591   1.602  -1.095  0.00  0.00    +0.022 C 
ATOM     22  C   UNL     1       1.376   1.769   0.207  0.00  0.00    +0.032 C 
BRANCH  22  23
ATOM     23  C   UNL     1       1.416   3.143   0.825  0.00  0.00    -0.044 A 
ATOM     24  C   UNL     1       0.622   4.153   0.315  0.00  0.00    +0.004 A 
ATOM     25  C   UNL     1       0.655   5.412   0.884  0.00  0.00    +0.004 A 
ATOM     26  C   UNL     1       1.489   5.664   1.958  0.00  0.00    -0.042 A 
ATOM     27  C   UNL     1       2.288   4.655   2.464  0.00  0.00    +0.004 A 
ATOM     28  C   UNL     1       2.251   3.395   1.898  0.00  0.00    +0.004 A 
BRANCH  26  29
ATOM     29  C   UNL     1       1.529   7.038   2.575  0.00  0.00    -0.013 C 
ATOM     30  C   UNL     1       2.947   7.602   2.472  0.00  0.00    +0.015 C 
ATOM     31  C   UNL     1       0.559   7.959   1.833  0.00  0.00    +0.015 C 
ATOM     32  C   UNL     1       1.121   6.948   4.047  0.00  0.00    +0.015 C 
ENDBRANCH  26  29
ENDBRANCH  22  23
ENDBRANCH   2  20
TORSDOF 6
