REMARK  Name = ZINC54691218
REMARK  5 active torsions:
REMARK  status: ('A' for Active; 'I' for Inactive)
REMARK    1  A    between atoms: C_1  and  C_2
REMARK    2  A    between atoms: C_7  and  S_10
REMARK    3  A    between atoms: S_10  and  C_11
REMARK    4  A    between atoms: C_12  and  C_20
REMARK    5  A    between atoms: N_21  and  O_22
REMARK                            x       y       z     vdW  Elec       q    Type
REMARK                         _______ _______ _______ _____ _____    ______ ____
ROOT
ATOM      1  C   UNL     1       1.708  -4.388   2.475  0.00  0.00    +0.108 A 
ATOM      2  C   UNL     1       2.325  -5.195   3.444  0.00  0.00    +0.050 A 
ATOM      3  C   UNL     1       2.365  -6.575   3.238  0.00  0.00    +0.019 A 
ATOM      4  C   UNL     1       1.792  -7.091   2.086  0.00  0.00    -0.025 A 
ATOM      5  C   UNL     1       1.201  -6.236   1.174  0.00  0.00    +0.046 A 
ATOM      6  N   UNL     1       1.172  -4.930   1.395  0.00  0.00    -0.244 NA
ATOM      7  C   UNL     1       0.652  -7.036   0.010  0.00  0.00    +0.056 C 
ATOM      8  C   UNL     1       1.355  -8.408   0.095  0.00  0.00    +0.011 C 
ATOM      9  C   UNL     1       1.684  -8.519   1.598  0.00  0.00    +0.037 C 
ENDROOT
BRANCH   2  10
ATOM     10  C   UNL     1       2.922  -4.596   4.656  0.00  0.00    +0.165 C 
ATOM     11  N   UNL     1       2.878  -3.307   4.834  0.00  0.00    -0.071 NA
ATOM     12  N   UNL     1       3.527  -5.405   5.603  0.00  0.00    -0.340 N 
ATOM     13  H   UNL     1       3.560  -6.365   5.470  0.00  0.00    +0.144 HD
ATOM     14  H   UNL     1       3.918  -5.012   6.399  0.00  0.00    +0.144 HD
BRANCH  11  15
ATOM     15  O   UNL     1       3.449  -2.732   5.996  0.00  0.00    -0.408 OA
ATOM     16  H   UNL     1       3.367  -1.770   6.040  0.00  0.00    +0.328 HD
ENDBRANCH  11  15
ENDBRANCH   2  10
BRANCH   1  17
ATOM     17  S   UNL     1       1.640  -2.642   2.703  0.00  0.00    -0.102 S 
BRANCH  17  23
ATOM     18  C   UNL     1      -0.019   1.526   0.010  0.00  0.00    +0.007 C 
ATOM     19  C   UNL     1       0.002  -0.004   0.002  0.00  0.00    -0.013 C 
ATOM     20  C   UNL     1      -1.433  -0.534   0.013  0.00  0.00    +0.003 C 
ATOM     21  C   UNL     1      -1.413  -2.063   0.004  0.00  0.00    +0.001 C 
ATOM     22  C   UNL     1      -0.673  -2.570   1.244  0.00  0.00    +0.014 C 
ATOM     23  C   UNL     1       0.763  -2.041   1.233  0.00  0.00    +0.053 C 
ATOM     24  C   UNL     1       0.742  -0.511   1.242  0.00  0.00    +0.018 C 
ENDBRANCH  17  23
ENDBRANCH   1  17
TORSDOF 4
