REMARK  Name = ZINC11852420
REMARK  10 active torsions:
REMARK  status: ('A' for Active; 'I' for Inactive)
REMARK    1  A    between atoms: C_1  and  C_2
REMARK    2  A    between atoms: C_5  and  S_8
REMARK    3  A    between atoms: S_8  and  C_11
REMARK    4  A    between atoms: C_11  and  N_12
REMARK    5  A    between atoms: C_13  and  C_14
REMARK    6  A    between atoms: N_20  and  C_21
REMARK    7  A    between atoms: C_21  and  N_23
REMARK    8  A    between atoms: N_23  and  N_24
REMARK    9  A    between atoms: N_24  and  C_25
REMARK   10  A    between atoms: N_24  and  C_31
REMARK                            x       y       z     vdW  Elec       q    Type
REMARK                         _______ _______ _______ _____ _____    ______ ____
ROOT
ATOM      1  N   UNL     1       2.683  -3.799   0.079  0.00  0.00    -0.354 N 
ATOM      2  C   UNL     1       3.441  -4.711   0.616  0.00  0.00    +0.106 C 
ATOM      3  N   UNL     1       4.618  -4.349   1.243  0.00  0.00    -0.282 N 
ATOM      4  H   UNL     1       5.373  -4.959   1.246  0.00  0.00    +0.155 HD
ATOM      5  H   UNL     1       2.928  -2.863   0.147  0.00  0.00    +0.162 HD
ENDROOT
BRANCH   2   6
ATOM      6  C   UNL     1       3.041  -6.135   0.554  0.00  0.00    +0.013 A 
ATOM      7  C   UNL     1       3.676  -7.003  -0.335  0.00  0.00    +0.011 A 
ATOM      8  C   UNL     1       3.299  -8.329  -0.387  0.00  0.00    +0.001 A 
ATOM      9  C   UNL     1       2.294  -8.799   0.439  0.00  0.00    +0.000 A 
ATOM     10  C   UNL     1       1.661  -7.944   1.323  0.00  0.00    +0.001 A 
ATOM     11  C   UNL     1       2.033  -6.616   1.390  0.00  0.00    +0.011 A 
ENDBRANCH   2   6
BRANCH   3  12
ATOM     12  C   UNL     1       4.718  -3.151   1.851  0.00  0.00    +0.152 C 
ATOM     13  S   UNL     1       3.346  -2.132   1.965  0.00  0.00    -0.017 S 
BRANCH  12  14
ATOM     14  N   UNL     1       5.897  -2.753   2.369  0.00  0.00    -0.241 N 
ATOM     15  H   UNL     1       5.969  -1.890   2.806  0.00  0.00    +0.172 HD
BRANCH  14  16
ATOM     16  N   UNL     1       7.019  -3.586   2.275  0.00  0.00    -0.221 N 
BRANCH  16  17
ATOM     17  C   UNL     1       8.032  -3.294   1.359  0.00  0.00    +0.053 A 
ATOM     18  C   UNL     1       7.712  -2.982   0.043  0.00  0.00    +0.025 A 
ATOM     19  C   UNL     1       8.716  -2.693  -0.860  0.00  0.00    +0.002 A 
ATOM     20  C   UNL     1      10.039  -2.714  -0.457  0.00  0.00    +0.000 A 
ATOM     21  C   UNL     1      10.361  -3.024   0.852  0.00  0.00    +0.002 A 
ATOM     22  C   UNL     1       9.362  -3.307   1.762  0.00  0.00    +0.025 A 
ENDBRANCH  16  17
BRANCH  16  23
ATOM     23  C   UNL     1       7.126  -4.710   3.099  0.00  0.00    +0.053 A 
ATOM     24  C   UNL     1       6.885  -4.599   4.462  0.00  0.00    +0.025 A 
ATOM     25  C   UNL     1       6.991  -5.712   5.273  0.00  0.00    +0.002 A 
ATOM     26  C   UNL     1       7.337  -6.935   4.729  0.00  0.00    +0.000 A 
ATOM     27  C   UNL     1       7.577  -7.049   3.372  0.00  0.00    +0.002 A 
ATOM     28  C   UNL     1       7.467  -5.942   2.555  0.00  0.00    +0.025 A 
ENDBRANCH  16  23
ENDBRANCH  14  16
ENDBRANCH  12  14
ENDBRANCH   3  12
BRANCH   1  29
ATOM     29  C   UNL     1       1.460  -4.186  -0.629  0.00  0.00    +0.288 C 
BRANCH  29  30
ATOM     30  S   UNL     1       0.189  -2.917  -0.379  0.00  0.00    +0.015 S 
ATOM     31  O   UNL     1       0.109  -2.568   0.996  0.00  0.00    -0.168 OA
ATOM     32  O   UNL     1      -0.983  -3.247  -1.112  0.00  0.00    -0.168 OA
BRANCH  30  37
ATOM     33  C   UNL     1       2.362   2.014  -3.094  0.00  0.00    +0.044 C 
ATOM     34  C   UNL     1       1.819   0.782  -2.416  0.00  0.00    -0.050 A 
ATOM     35  C   UNL     1       1.042  -0.112  -3.127  0.00  0.00    +0.005 A 
ATOM     36  C   UNL     1       0.544  -1.242  -2.505  0.00  0.00    +0.027 A 
ATOM     37  C   UNL     1       0.824  -1.477  -1.172  0.00  0.00    +0.090 A 
ATOM     38  C   UNL     1       1.603  -0.583  -0.462  0.00  0.00    +0.027 A 
ATOM     39  C   UNL     1       2.104   0.544  -1.085  0.00  0.00    +0.005 A 
ENDBRANCH  30  37
ENDBRANCH  29  30
ENDBRANCH   1  29
TORSDOF 9
