REMARK  Name = ZINC14467181
REMARK  4 active torsions:
REMARK  status: ('A' for Active; 'I' for Inactive)
REMARK    1  A    between atoms: C_2  and  N_27
REMARK    2  A    between atoms: C_4  and  O_26
REMARK    3  A    between atoms: C_14  and  C_17
REMARK    4  A    between atoms: C_22  and  O_23
REMARK                            x       y       z     vdW  Elec       q    Type
REMARK                         _______ _______ _______ _____ _____    ______ ____
ROOT
ATOM      1  C   UNL     1      -4.500   2.549  -1.246  0.00  0.00    +0.039 A 
ATOM      2  C   UNL     1      -5.441   2.919  -2.187  0.00  0.00    +0.130 A 
ATOM      3  C   UNL     1      -5.170   2.743  -3.531  0.00  0.00    +0.080 A 
ATOM      4  C   UNL     1      -3.962   2.207  -3.932  0.00  0.00    +0.140 A 
ATOM      5  C   UNL     1      -2.997   1.833  -2.988  0.00  0.00    +0.074 A 
ATOM      6  C   UNL     1      -3.293   2.004  -1.635  0.00  0.00    -0.014 A 
ATOM      7  C   UNL     1      -2.279   1.574  -0.647  0.00  0.00    +0.049 C 
ATOM      8  C   UNL     1      -2.140   2.204   0.688  0.00  0.00    -0.023 C 
ATOM      9  C   UNL     1      -0.861   2.151   1.048  0.00  0.00    -0.030 C 
ATOM     10  C   UNL     1      -0.034   1.499  -0.062  0.00  0.00    +0.033 C 
ATOM     11  C   UNL     1      -0.882   1.812  -1.300  0.00  0.00    +0.029 C 
ATOM     12  C   UNL     1      -0.831   0.838  -2.459  0.00  0.00    +0.109 C 
ATOM     13  N   UNL     1      -1.793   1.313  -3.467  0.00  0.00    -0.334 N 
ATOM     14  H   UNL     1      -1.355   1.951  -4.113  0.00  0.00    +0.147 HD
ENDROOT
BRANCH  12  15
ATOM     15  C   UNL     1       0.557   0.809  -3.045  0.00  0.00    +0.017 A 
ATOM     16  C   UNL     1       0.889   1.666  -4.078  0.00  0.00    +0.029 A 
ATOM     17  C   UNL     1       2.163   1.640  -4.617  0.00  0.00    +0.043 A 
ATOM     18  C   UNL     1       3.107   0.757  -4.123  0.00  0.00    +0.043 A 
ATOM     19  C   UNL     1       2.780  -0.100  -3.090  0.00  0.00    +0.084 A 
ATOM     20  C   UNL     1       1.503  -0.072  -2.545  0.00  0.00    +0.140 A 
ATOM     21 CL   UNL     1       3.965  -1.207  -2.470  0.00  0.00    -0.080 Cl
ATOM     22 CL   UNL     1       2.576   2.716  -5.915  0.00  0.00    -0.083 Cl
BRANCH  20  23
ATOM     23  O   UNL     1       1.179  -0.911  -1.525  0.00  0.00    -0.505 OA
ATOM     24  H   UNL     1       0.827  -1.764  -1.815  0.00  0.00    +0.292 HD
ENDBRANCH  20  23
ENDBRANCH  12  15
BRANCH   2  25
ATOM     25  N   UNL     1      -6.733   3.500  -1.758  0.00  0.00    +0.057 N 
ATOM     26  O   UNL     1      -6.969   3.653  -0.573  0.00  0.00    -0.126 OA
ATOM     27  O   UNL     1      -7.560   3.825  -2.591  0.00  0.00    -0.126 OA
ENDBRANCH   2  25
BRANCH   4  28
ATOM     28  O   UNL     1      -3.706   2.040  -5.257  0.00  0.00    -0.505 OA
ATOM     29  H   UNL     1      -3.980   1.181  -5.606  0.00  0.00    +0.292 HD
ENDBRANCH   4  28
TORSDOF 4
