REMARK  Name = ZINC27488966
REMARK  3 active torsions:
REMARK  status: ('A' for Active; 'I' for Inactive)
REMARK    1  A    between atoms: C_3  and  C_8
REMARK    2  A    between atoms: C_11  and  C_21
REMARK    3  A    between atoms: C_11  and  O_25
REMARK                            x       y       z     vdW  Elec       q    Type
REMARK                         _______ _______ _______ _____ _____    ______ ____
ROOT
ATOM      1  C   UNL     1      -4.023   4.034   1.456  0.00  0.00    +0.263 C 
ATOM      2  O   UNL     1      -4.297   4.381   2.589  0.00  0.00    -0.269 OA
ATOM      3  N   UNL     1      -3.318   2.904   1.249  0.00  0.00    -0.193 N 
ATOM      4  C   UNL     1      -2.922   1.949   2.299  0.00  0.00    +0.250 C 
ATOM      5  C   UNL     1      -2.160   0.815   1.551  0.00  0.00    +0.068 C 
ATOM      6  C   UNL     1      -0.673   1.187   1.608  0.00  0.00    +0.010 C 
ATOM      7  C   UNL     1       0.114   0.439   0.536  0.00  0.00    +0.001 C 
ATOM      8  C   UNL     1      -0.413   0.860  -0.841  0.00  0.00    +0.002 C 
ATOM      9  C   UNL     1      -1.867   0.405  -0.953  0.00  0.00    +0.021 C 
ATOM     10  C   UNL     1      -2.725   1.007   0.131  0.00  0.00    +0.081 C 
ATOM     11  N   UNL     1      -2.859   2.472   0.027  0.00  0.00    -0.231 NA
ATOM     12  H   UNL     1      -1.974   2.900  -0.200  0.00  0.00    +0.145 HD
ENDROOT
BRANCH   1  15
ATOM     13  C   UNL     1      -5.482   6.847  -0.560  0.00  0.00    +0.002 A 
ATOM     14  C   UNL     1      -5.072   6.089   0.518  0.00  0.00    +0.013 A 
ATOM     15  C   UNL     1      -4.465   4.851   0.306  0.00  0.00    +0.039 A 
ATOM     16  C   UNL     1      -4.272   4.389  -0.997  0.00  0.00    +0.028 A 
ATOM     17  C   UNL     1      -4.691   5.154  -2.066  0.00  0.00    +0.019 A 
ATOM     18  C   UNL     1      -5.293   6.382  -1.848  0.00  0.00    +0.015 A 
ATOM     19 BR   UNL     1      -4.438   4.528  -3.832  0.00  0.00    -0.050 Br
ENDBRANCH   1  15
BRANCH   4  20
ATOM     20  C   UNL     1      -2.002   2.626   3.317  0.00  0.00    +0.437 C 
ATOM     21  F   UNL     1      -1.003   3.336   2.642  0.00  0.00    -0.166 F 
ATOM     22  F   UNL     1      -2.749   3.507   4.106  0.00  0.00    -0.166 F 
ATOM     23  F   UNL     1      -1.414   1.654   4.132  0.00  0.00    -0.166 F 
ENDBRANCH   4  20
BRANCH   4  24
ATOM     24  O   UNL     1      -4.080   1.422   2.951  0.00  0.00    -0.363 OA
ATOM     25  H   UNL     1      -3.967   0.690   3.764  0.00  0.00    +0.212 HD
ENDBRANCH   4  24
TORSDOF 3
