REMARK  Name = ZINC16949341
REMARK  8 active torsions:
REMARK  status: ('A' for Active; 'I' for Inactive)
REMARK    1  A    between atoms: C_1  and  C_2
REMARK    2  A    between atoms: C_5  and  C_8
REMARK    3  A    between atoms: C_8  and  O_36
REMARK    4  A    between atoms: N_12  and  C_13
REMARK    5  A    between atoms: C_14  and  C_19
REMARK    6  A    between atoms: N_21  and  C_22
REMARK    7  A    between atoms: C_25  and  C_28
REMARK    8  A    between atoms: N_29  and  C_30
REMARK                            x       y       z     vdW  Elec       q    Type
REMARK                         _______ _______ _______ _____ _____    ______ ____
ROOT
ATOM      1  C   UNL     1       0.891  -4.578   0.011  0.00  0.00    +0.174 C 
ATOM      2  C   UNL     1      -0.614  -4.858  -0.214  0.00  0.00    +0.137 C 
ATOM      3  S   UNL     1      -0.905  -6.111   1.105  0.00  0.00    -0.085 S 
ATOM      4  C   UNL     1       0.504  -5.719   2.131  0.00  0.00    +0.166 C 
ATOM      5  N   UNL     1       0.669  -5.975   3.415  0.00  0.00    -0.206 NA
ATOM      6  N   UNL     1       1.377  -5.092   1.277  0.00  0.00    -0.246 N 
ENDROOT
BRANCH   1  11
ATOM      7  C   UNL     1       1.763   1.132  -0.140  0.00  0.00    +0.044 C 
ATOM      8  C   UNL     1       1.536  -0.357  -0.100  0.00  0.00    -0.050 A 
ATOM      9  C   UNL     1       1.448  -1.074  -1.279  0.00  0.00    +0.004 A 
ATOM     10  C   UNL     1       1.240  -2.440  -1.243  0.00  0.00    +0.008 A 
ATOM     11  C   UNL     1       1.119  -3.089  -0.028  0.00  0.00    +0.003 A 
ATOM     12  C   UNL     1       1.208  -2.372   1.150  0.00  0.00    +0.008 A 
ATOM     13  C   UNL     1       1.421  -1.007   1.114  0.00  0.00    +0.004 A 
ENDBRANCH   1  11
BRANCH   5  14
ATOM     14  C   UNL     1      -0.331  -6.537   4.123  0.00  0.00    +0.165 A 
ATOM     15  C   UNL     1      -0.828  -6.111   5.358  0.00  0.00    +0.169 A 
ATOM     16  N   UNL     1      -1.828  -6.964   5.704  0.00  0.00    -0.229 NA
ATOM     17  C   UNL     1      -1.969  -7.864   4.777  0.00  0.00    +0.198 A 
ATOM     18  N   UNL     1      -1.069  -7.638   3.776  0.00  0.00    -0.329 N 
ATOM     19  H   UNL     1      -0.969  -8.163   2.966  0.00  0.00    +0.168 HD
BRANCH  15  20
ATOM     20  C   UNL     1      -0.359  -4.963   6.133  0.00  0.00    +0.270 C 
ATOM     21  O   UNL     1       0.551  -4.273   5.710  0.00  0.00    -0.268 OA
ATOM     22  N   UNL     1      -0.935  -4.668   7.315  0.00  0.00    -0.280 N 
ATOM     23  H   UNL     1      -1.608  -5.259   7.688  0.00  0.00    +0.155 HD
BRANCH  22  24
ATOM     24  C   UNL     1      -0.562  -3.510   8.005  0.00  0.00    +0.034 A 
ATOM     25  C   UNL     1      -0.548  -3.502   9.394  0.00  0.00    +0.023 A 
ATOM     26  C   UNL     1      -0.179  -2.357  10.072  0.00  0.00    +0.005 A 
ATOM     27  C   UNL     1       0.177  -1.220   9.370  0.00  0.00    -0.050 A 
ATOM     28  C   UNL     1       0.164  -1.225   7.988  0.00  0.00    +0.005 A 
ATOM     29  C   UNL     1      -0.199  -2.368   7.303  0.00  0.00    +0.023 A 
ATOM     30  C   UNL     1       0.580   0.028  10.114  0.00  0.00    +0.044 C 
ENDBRANCH  22  24
ENDBRANCH  15  20
ENDBRANCH   5  14
BRANCH   6  31
ATOM     31  C   UNL     1       2.724  -4.951   1.624  0.00  0.00    +0.039 A 
ATOM     32  C   UNL     1       3.577  -4.210   0.817  0.00  0.00    +0.023 A 
ATOM     33  C   UNL     1       4.907  -4.072   1.163  0.00  0.00    +0.002 A 
ATOM     34  C   UNL     1       5.390  -4.673   2.312  0.00  0.00    +0.000 A 
ATOM     35  C   UNL     1       4.544  -5.412   3.117  0.00  0.00    +0.002 A 
ATOM     36  C   UNL     1       3.211  -5.548   2.780  0.00  0.00    +0.023 A 
ENDBRANCH   6  31
BRANCH   1  37
ATOM     37  O   UNL     1       1.633  -5.185  -1.048  0.00  0.00    -0.366 OA
ATOM     38  H   UNL     1       1.393  -4.867  -1.929  0.00  0.00    +0.212 HD
ENDBRANCH   1  37
TORSDOF 6
