REMARK  Name = ZINC08900736
REMARK  5 active torsions:
REMARK  status: ('A' for Active; 'I' for Inactive)
REMARK    1  A    between atoms: C_3  and  N_24
REMARK    2  A    between atoms: C_4  and  N_21
REMARK    3  A    between atoms: C_6  and  C_7
REMARK    4  A    between atoms: N_9  and  C_10
REMARK    5  A    between atoms: C_15  and  C_16
REMARK                            x       y       z     vdW  Elec       q    Type
REMARK                         _______ _______ _______ _____ _____    ______ ____
ROOT
ATOM      1  C   UNL     1      -2.379  -0.361  -0.104  0.00  0.00    +0.248 C 
ATOM      2  O   UNL     1      -1.335  -0.977  -0.196  0.00  0.00    -0.270 OA
ATOM      3  N   UNL     1      -2.361   0.972   0.090  0.00  0.00    -0.281 N 
ATOM      4  H   UNL     1      -3.192   1.453   0.231  0.00  0.00    +0.155 HD
ENDROOT
BRANCH   3   5
ATOM      5  C   UNL     1      -1.145   1.663   0.088  0.00  0.00    +0.045 A 
ATOM      6  C   UNL     1       0.002   1.054   0.584  0.00  0.00    +0.025 A 
ATOM      7  C   UNL     1       1.202   1.737   0.576  0.00  0.00    +0.016 A 
ATOM      8  C   UNL     1       1.263   3.027   0.079  0.00  0.00    +0.014 A 
ATOM      9  C   UNL     1       0.122   3.637  -0.410  0.00  0.00    +0.028 A 
ATOM     10  C   UNL     1      -1.082   2.959  -0.405  0.00  0.00    +0.077 A 
ATOM     11  I   UNL     1       3.087   4.058   0.069  0.00  0.00    -0.044 I 
BRANCH  10  12
ATOM     12  C   UNL     1      -2.324   3.625  -0.938  0.00  0.00    +0.419 C 
ATOM     13  F   UNL     1      -2.009   4.915  -1.379  0.00  0.00    -0.166 F 
ATOM     14  F   UNL     1      -2.831   2.877  -2.007  0.00  0.00    -0.166 F 
ATOM     15  F   UNL     1      -3.285   3.700   0.076  0.00  0.00    -0.166 F 
ENDBRANCH  10  12
ENDBRANCH   3   5
BRANCH   1  21
ATOM     16  C   UNL     1      -4.868  -0.369  -0.094  0.00  0.00    +0.015 A 
ATOM     17  C   UNL     1      -6.068  -1.037  -0.194  0.00  0.00    +0.026 A 
ATOM     18  C   UNL     1      -6.085  -2.414  -0.394  0.00  0.00    +0.060 A 
ATOM     19  C   UNL     1      -4.889  -3.120  -0.499  0.00  0.00    +0.148 A 
ATOM     20  C   UNL     1      -3.687  -2.458  -0.406  0.00  0.00    +0.047 A 
ATOM     21  C   UNL     1      -3.667  -1.074  -0.205  0.00  0.00    +0.039 A 
BRANCH  18  22
ATOM     22  N   UNL     1      -7.298  -3.087  -0.489  0.00  0.00    -0.328 N 
ATOM     23  C   UNL     1      -8.166  -2.787   0.679  0.00  0.00    +0.105 C 
ATOM     24  C   UNL     1      -9.583  -3.151   0.171  0.00  0.00    +0.020 C 
ATOM     25  C   UNL     1      -9.550  -2.689  -1.305  0.00  0.00    +0.020 C 
ATOM     26  C   UNL     1      -8.057  -2.644  -1.679  0.00  0.00    +0.105 C 
ENDBRANCH  18  22
BRANCH  19  27
ATOM     27  N   UNL     1      -4.912  -4.585  -0.713  0.00  0.00    +0.058 N 
ATOM     28  O   UNL     1      -3.871  -5.217  -0.710  0.00  0.00    -0.126 OA
ATOM     29  O   UNL     1      -5.972  -5.158  -0.891  0.00  0.00    -0.126 OA
ENDBRANCH  19  27
ENDBRANCH   1  21
TORSDOF 5
