REMARK  Name = ZINC39666155
REMARK  13 active torsions:
REMARK  status: ('A' for Active; 'I' for Inactive)
REMARK    1  A    between atoms: C_1  and  C_2
REMARK    2  A    between atoms: C_2  and  C_3
REMARK    3  A    between atoms: C_3  and  C_4
REMARK    4  A    between atoms: C_4  and  C_5
REMARK    5  A    between atoms: C_5  and  C_6
REMARK    6  A    between atoms: C_6  and  C_7
REMARK    7  A    between atoms: C_11  and  C_20
REMARK    8  A    between atoms: N_22  and  C_23
REMARK    9  A    between atoms: C_23  and  C_24
REMARK   10  A    between atoms: C_24  and  C_26
REMARK   11  A    between atoms: C_24  and  O_27
REMARK   12  A    between atoms: O_27  and  C_28
REMARK   13  A    between atoms: C_31  and  C_34
REMARK                            x       y       z     vdW  Elec       q    Type
REMARK                         _______ _______ _______ _____ _____    ______ ____
ROOT
ATOM      1  C   UNL     1       1.144  -4.272  -1.984  0.00  0.00    +0.216 C 
ATOM      2  O   UNL     1       1.699  -3.349  -2.541  0.00  0.00    -0.276 OA
ATOM      3  N   UNL     1       1.489  -5.542  -2.277  0.00  0.00    -0.300 N 
ATOM      4  C   UNL     1       0.925  -6.790  -1.711  0.00  0.00    +0.121 C 
ATOM      5  C   UNL     1       0.843  -7.760  -2.911  0.00  0.00    +0.100 C 
ATOM      6  C   UNL     1       1.893  -7.241  -3.908  0.00  0.00    -0.004 C 
ATOM      7  C   UNL     1       2.515  -6.005  -3.242  0.00  0.00    +0.115 C 
ATOM      8  C   UNL     1       1.224  -6.845  -5.221  0.00  0.00    -0.010 C 
ATOM      9  C   UNL     1       2.294  -6.386  -6.215  0.00  0.00    -0.082 C 
ATOM     10  N   UNL     1       3.254  -7.473  -6.440  0.00  0.00    +0.379 N 
ATOM     11  C   UNL     1       3.960  -7.785  -5.191  0.00  0.00    -0.082 C 
ATOM     12  C   UNL     1       2.960  -8.303  -4.154  0.00  0.00    -0.010 C 
ATOM     13  H   UNL     1       2.762  -8.293  -6.761  0.00  0.00    -0.086 HD
ATOM     14  H   UNL     1       3.923  -7.190  -7.141  0.00  0.00    -0.086 HD
ENDROOT
BRANCH   5  15
ATOM     15  C   UNL     1      -0.532  -7.720  -3.525  0.00  0.00    +0.218 C 
ATOM     16  O   UNL     1      -1.193  -6.705  -3.467  0.00  0.00    -0.275 OA
ATOM     17  N   UNL     1      -1.028  -8.812  -4.139  0.00  0.00    -0.312 N 
ATOM     18  H   UNL     1      -0.500  -9.624  -4.186  0.00  0.00    +0.149 HD
BRANCH  17  19
ATOM     19  C   UNL     1      -2.365  -8.773  -4.737  0.00  0.00    +0.148 C 
BRANCH  19  20
ATOM     20  C   UNL     1      -2.683 -10.132  -5.364  0.00  0.00    +0.187 C 
ATOM     21  C   UNL     1      -4.025 -10.055  -6.095  0.00  0.00    +0.053 C 
BRANCH  20  22
ATOM     22  O   UNL     1      -2.756 -11.125  -4.339  0.00  0.00    -0.488 OA
BRANCH  22  23
ATOM     23  C   UNL     1      -2.509 -12.410  -4.706  0.00  0.00    +0.121 A 
ATOM     24  C   UNL     1      -2.305 -12.724  -6.042  0.00  0.00    +0.046 A 
ATOM     25  C   UNL     1      -2.054 -14.031  -6.413  0.00  0.00    +0.007 A 
ATOM     26  C   UNL     1      -2.006 -15.026  -5.454  0.00  0.00    -0.050 A 
ATOM     27  C   UNL     1      -2.210 -14.715  -4.122  0.00  0.00    +0.007 A 
ATOM     28  C   UNL     1      -2.455 -13.409  -3.745  0.00  0.00    +0.046 A 
ATOM     29  C   UNL     1      -1.732 -16.451  -5.861  0.00  0.00    +0.044 C 
ENDBRANCH  22  23
ENDBRANCH  20  22
ENDBRANCH  19  20
ENDBRANCH  17  19
ENDBRANCH   5  15
BRANCH   1  30
ATOM     30  C   UNL     1       0.068  -4.000  -0.965  0.00  0.00    +0.096 C 
BRANCH  30  31
ATOM     31  C   UNL     1      -0.129  -2.490  -0.822  0.00  0.00    +0.009 C 
BRANCH  31  32
ATOM     32  C   UNL     1      -1.222  -2.213   0.213  0.00  0.00    +0.000 C 
BRANCH  32  33
ATOM     33  C   UNL     1      -1.418  -0.703   0.356  0.00  0.00    -0.000 C 
BRANCH  33  35
ATOM     34  C   UNL     1      -2.707   1.085   1.534  0.00  0.00    +0.004 C 
ATOM     35  C   UNL     1      -2.511  -0.426   1.391  0.00  0.00    -0.003 C 
ENDBRANCH  33  35
ENDBRANCH  32  33
ENDBRANCH  31  32
ENDBRANCH  30  31
ENDBRANCH   1  30
TORSDOF 10
