REMARK  Name = ZINC19368109
REMARK  10 active torsions:
REMARK  status: ('A' for Active; 'I' for Inactive)
REMARK    1  A    between atoms: C_1  and  C_2
REMARK    2  A    between atoms: C_5  and  C_8
REMARK    3  A    between atoms: C_8  and  C_9
REMARK    4  A    between atoms: C_8  and  C_16
REMARK    5  A    between atoms: C_8  and  O_30
REMARK    6  A    between atoms: C_12  and  C_15
REMARK    7  A    between atoms: N_18  and  N_19
REMARK    8  A    between atoms: C_20  and  C_22
REMARK    9  A    between atoms: C_22  and  N_23
REMARK   10  A    between atoms: N_26  and  C_29
REMARK                            x       y       z     vdW  Elec       q    Type
REMARK                         _______ _______ _______ _____ _____    ______ ____
ROOT
ATOM      1  C   UNL     1       0.059  -4.275  -0.021  0.00  0.00    +0.194 C 
ENDROOT
BRANCH   1   6
ATOM      2  C   UNL     1      -1.219   1.302   0.788  0.00  0.00    +0.044 C 
ATOM      3  C   UNL     1      -0.885  -0.153   0.577  0.00  0.00    -0.050 A 
ATOM      4  C   UNL     1      -1.192  -1.081   1.554  0.00  0.00    +0.004 A 
ATOM      5  C   UNL     1      -0.887  -2.415   1.361  0.00  0.00    +0.007 A 
ATOM      6  C   UNL     1      -0.275  -2.821   0.189  0.00  0.00    -0.003 A 
ATOM      7  C   UNL     1       0.031  -1.893  -0.788  0.00  0.00    +0.007 A 
ATOM      8  C   UNL     1      -0.278  -0.559  -0.596  0.00  0.00    +0.004 A 
ENDBRANCH   1   6
BRANCH   1   9
ATOM      9  C   UNL     1       0.887  -4.773   1.135  0.00  0.00    -0.003 A 
ATOM     10  C   UNL     1       0.274  -5.122   2.324  0.00  0.00    +0.007 A 
ATOM     11  C   UNL     1       1.034  -5.579   3.385  0.00  0.00    +0.004 A 
ATOM     12  C   UNL     1       2.406  -5.688   3.257  0.00  0.00    -0.050 A 
ATOM     13  C   UNL     1       3.019  -5.340   2.067  0.00  0.00    +0.004 A 
ATOM     14  C   UNL     1       2.259  -4.887   1.005  0.00  0.00    +0.007 A 
ATOM     15  C   UNL     1       3.234  -6.185   4.414  0.00  0.00    +0.044 C 
ENDBRANCH   1   9
BRANCH   1  16
ATOM     16  C   UNL     1      -1.214  -5.076  -0.109  0.00  0.00    +0.270 C 
ATOM     17  O   UNL     1      -2.227  -4.664   0.417  0.00  0.00    -0.270 OA
ATOM     18  N   UNL     1      -1.229  -6.249  -0.772  0.00  0.00    -0.231 N 
ATOM     19  H   UNL     1      -0.419  -6.579  -1.192  0.00  0.00    +0.173 HD
BRANCH  18  20
ATOM     20  N   UNL     1      -2.413  -6.993  -0.853  0.00  0.00    -0.233 N 
ATOM     21  C   UNL     1      -2.427  -8.167  -1.516  0.00  0.00    +0.243 C 
ATOM     22  O   UNL     1      -1.415  -8.579  -2.042  0.00  0.00    -0.273 OA
ATOM     23  H   UNL     1      -3.223  -6.664  -0.432  0.00  0.00    +0.173 HD
BRANCH  21  24
ATOM     24  C   UNL     1      -3.701  -8.967  -1.604  0.00  0.00    +0.181 C 
BRANCH  24  25
ATOM     25  N   UNL     1      -3.456 -10.195  -2.372  0.00  0.00    -0.298 NA
ATOM     26  C   UNL     1      -3.147  -9.885  -3.775  0.00  0.00    +0.066 C 
ATOM     27  C   UNL     1      -2.840 -11.183  -4.525  0.00  0.00    -0.064 C 
ATOM     28  N   UNL     1      -4.001 -12.080  -4.448  0.00  0.00    +0.379 N 
ATOM     29  C   UNL     1      -4.283 -12.399  -3.042  0.00  0.00    -0.064 C 
ATOM     30  C   UNL     1      -4.601 -11.111  -2.280  0.00  0.00    +0.066 C 
ATOM     31  C   UNL     1      -3.713 -13.318  -5.184  0.00  0.00    -0.096 C 
ATOM     32  H   UNL     1      -4.804 -11.625  -4.857  0.00  0.00    -0.082 HD
ENDBRANCH  24  25
ENDBRANCH  21  24
ENDBRANCH  18  20
ENDBRANCH   1  16
BRANCH   1  33
ATOM     33  O   UNL     1       0.799  -4.423  -1.235  0.00  0.00    -0.371 OA
ATOM     34  H   UNL     1       0.326  -4.122  -2.023  0.00  0.00    +0.212 HD
ENDBRANCH   1  33
TORSDOF 7
