REMARK  Name = ZINC12568954
REMARK  11 active torsions:
REMARK  status: ('A' for Active; 'I' for Inactive)
REMARK    1  A    between atoms: C_1  and  C_2
REMARK    2  A    between atoms: C_3  and  C_32
REMARK    3  A    between atoms: C_7  and  N_31
REMARK    4  A    between atoms: C_9  and  C_11
REMARK    5  A    between atoms: C_11  and  N_12
REMARK    6  A    between atoms: N_15  and  S_18
REMARK    7  A    between atoms: S_18  and  C_21
REMARK    8  A    between atoms: C_24  and  C_27
REMARK    9  A    between atoms: C_27  and  C_28
REMARK   10  A    between atoms: C_27  and  C_29
REMARK   11  A    between atoms: C_27  and  C_30
REMARK                            x       y       z     vdW  Elec       q    Type
REMARK                         _______ _______ _______ _____ _____    ______ ____
ROOT
ATOM      1  N   UNL     1      -3.345   3.098  -2.886  0.00  0.00    -0.293 NA
ATOM      2  C   UNL     1      -2.392   3.951  -2.163  0.00  0.00    +0.102 C 
ATOM      3  C   UNL     1      -1.039   3.238  -2.074  0.00  0.00    +0.125 C 
ATOM      4  N   UNL     1      -1.250   1.906  -1.487  0.00  0.00    -0.174 NA
ATOM      5  C   UNL     1      -2.284   1.042  -2.077  0.00  0.00    +0.125 C 
ATOM      6  C   UNL     1      -3.592   1.844  -2.162  0.00  0.00    +0.102 C 
ENDROOT
BRANCH   4   7
ATOM      7  S   UNL     1      -0.345   1.391  -0.200  0.00  0.00    +0.061 S 
ATOM      8  O   UNL     1      -0.367  -0.029  -0.230  0.00  0.00    -0.153 OA
ATOM      9  O   UNL     1       0.866   2.135  -0.231  0.00  0.00    -0.153 OA
BRANCH   7  10
ATOM     10  C   UNL     1      -1.196   1.877   1.264  0.00  0.00    +0.105 A 
ATOM     11  C   UNL     1      -0.934   3.105   1.841  0.00  0.00    +0.029 A 
ATOM     12  C   UNL     1      -1.605   3.488   2.987  0.00  0.00    +0.006 A 
ATOM     13  C   UNL     1      -2.532   2.638   3.562  0.00  0.00    -0.042 A 
ATOM     14  C   UNL     1      -2.791   1.408   2.988  0.00  0.00    +0.006 A 
ATOM     15  C   UNL     1      -2.123   1.027   1.839  0.00  0.00    +0.029 A 
BRANCH  13  16
ATOM     16  C   UNL     1      -3.260   3.054   4.814  0.00  0.00    -0.013 C 
ATOM     17  C   UNL     1      -2.962   2.054   5.933  0.00  0.00    +0.015 C 
ATOM     18  C   UNL     1      -2.792   4.447   5.238  0.00  0.00    +0.015 C 
ATOM     19  C   UNL     1      -4.766   3.082   4.543  0.00  0.00    +0.015 C 
ENDBRANCH  13  16
ENDBRANCH   7  10
ENDBRANCH   4   7
BRANCH   1  20
ATOM     20  C   UNL     1      -4.602   3.814  -3.143  0.00  0.00    +0.160 C 
BRANCH  20  29
ATOM     21  C   UNL     1      -8.827  -0.241  -6.347  0.00  0.00    +0.045 C 
ATOM     22  C   UNL     1      -8.541   0.138  -4.916  0.00  0.00    -0.028 A 
ATOM     23  C   UNL     1      -9.248  -0.408  -3.916  0.00  0.00    -0.008 A 
ATOM     24  S   UNL     1      -8.551   0.342  -2.456  0.00  0.00    -0.074 S 
ATOM     25  C   UNL     1      -7.329   1.368  -3.229  0.00  0.00    +0.114 A 
ATOM     26  C   UNL     1      -7.497   1.099  -4.605  0.00  0.00    +0.050 A 
ATOM     27  C   UNL     1      -6.622   1.805  -5.476  0.00  0.00    +0.128 A 
ATOM     28  N   UNL     1      -5.739   2.646  -4.961  0.00  0.00    -0.216 NA
ATOM     29  C   UNL     1      -5.635   2.845  -3.659  0.00  0.00    +0.146 A 
ATOM     30  N   UNL     1      -6.418   2.220  -2.802  0.00  0.00    -0.223 NA
ATOM     31  C   UNL     1     -10.365  -1.415  -4.004  0.00  0.00    +0.052 C 
BRANCH  27  32
ATOM     32  N   UNL     1      -6.697   1.620  -6.845  0.00  0.00    -0.343 N 
ATOM     33  H   UNL     1      -6.017   2.170  -7.512  0.00  0.00    +0.144 HD
ATOM     34  H   UNL     1      -7.436   0.923  -7.266  0.00  0.00    +0.144 HD
ENDBRANCH  27  32
ENDBRANCH  20  29
ENDBRANCH   1  20
TORSDOF 6
