REMARK  Name = ZINC03014101
REMARK  6 active torsions:
REMARK  status: ('A' for Active; 'I' for Inactive)
REMARK    1  A    between atoms: C_12  and  C_20
REMARK    2  A    between atoms: C_14  and  C_18
REMARK    3  A    between atoms: C_15  and  N_17
REMARK    4  A    between atoms: C_25  and  O_26
REMARK    5  A    between atoms: O_26  and  C_27
REMARK    6  A    between atoms: C_27  and  C_29
REMARK                            x       y       z     vdW  Elec       q    Type
REMARK                         _______ _______ _______ _____ _____    ______ ____
ROOT
ATOM      1  C   UNL     1       0.304   1.595   0.077  0.00  0.00    +0.001 A 
ATOM      2  C   UNL     1       1.522   2.259   0.113  0.00  0.00    +0.004 A 
ATOM      3  C   UNL     1       2.707   1.554   0.106  0.00  0.00    +0.047 A 
ATOM      4  C   UNL     1       2.689   0.166   0.065  0.00  0.00    +0.143 A 
ATOM      5  C   UNL     1       1.457  -0.506   0.030  0.00  0.00    +0.060 A 
ATOM      6  C   UNL     1       0.264   0.219   0.036  0.00  0.00    +0.015 A 
ATOM      7  C   UNL     1       1.452  -1.977  -0.010  0.00  0.00    +0.152 A 
ATOM      8  C   UNL     1       2.651  -2.626  -0.009  0.00  0.00    +0.092 A 
ATOM      9  C   UNL     1       3.843  -1.882   0.027  0.00  0.00    +0.345 A 
ATOM     10  O   UNL     1       4.909  -2.472   0.028  0.00  0.00    -0.245 OA
ATOM     11  O   UNL     1       3.839  -0.540   0.059  0.00  0.00    -0.422 OA
ATOM     12  C   UNL     1       2.709  -4.130  -0.046  0.00  0.00    +0.108 C 
ATOM     13  C   UNL     1       1.383  -4.689  -0.482  0.00  0.00    +0.098 C 
ATOM     14  C   UNL     1       0.262  -3.930  -0.458  0.00  0.00    +0.199 C 
ATOM     15  O   UNL     1       0.286  -2.650  -0.046  0.00  0.00    -0.440 OA
ENDROOT
BRANCH  12  16
ATOM     16  C   UNL     1       3.039  -4.650   1.329  0.00  0.00    +0.008 A 
ATOM     17  C   UNL     1       2.200  -4.378   2.392  0.00  0.00    +0.008 A 
ATOM     18  C   UNL     1       2.503  -4.855   3.653  0.00  0.00    +0.001 A 
ATOM     19  C   UNL     1       3.647  -5.606   3.854  0.00  0.00    +0.004 A 
ATOM     20  C   UNL     1       4.489  -5.881   2.795  0.00  0.00    +0.047 A 
ATOM     21  C   UNL     1       4.184  -5.409   1.527  0.00  0.00    +0.136 A 
BRANCH  21  22
ATOM     22  O   UNL     1       5.008  -5.683   0.482  0.00  0.00    -0.422 OA
BRANCH  22  23
ATOM     23  C   UNL     1       4.748  -6.780  -0.259  0.00  0.00    +0.351 C 
ATOM     24  O   UNL     1       3.757  -7.447  -0.031  0.00  0.00    -0.244 OA
BRANCH  23  25
ATOM     25  C   UNL     1       5.658  -7.167  -1.339  0.00  0.00    +0.097 A 
ATOM     26  C   UNL     1       5.572  -8.242  -2.212  0.00  0.00    +0.022 A 
ATOM     27  C   UNL     1       6.588  -8.347  -3.130  0.00  0.00    +0.008 A 
ATOM     28  C   UNL     1       7.580  -7.421  -3.125  0.00  0.00    +0.046 A 
ATOM     29  S   UNL     1       7.162  -6.375  -1.879  0.00  0.00    -0.090 S 
ENDBRANCH  23  25
ENDBRANCH  22  23
ENDBRANCH  21  22
ENDBRANCH  12  16
BRANCH  14  30
ATOM     30  N   UNL     1      -0.928  -4.481  -0.865  0.00  0.00    -0.328 N 
ATOM     31  H   UNL     1      -0.959  -5.402  -1.165  0.00  0.00    +0.145 HD
ATOM     32  H   UNL     1      -1.738  -3.947  -0.852  0.00  0.00    +0.145 HD
ENDBRANCH  14  30
BRANCH  13  33
ATOM     33  C   UNL     1       1.306  -6.047  -0.931  0.00  0.00    +0.101 C 
ATOM     34  N   UNL     1       1.244  -7.124  -1.287  0.00  0.00    -0.191 NA
ENDBRANCH  13  33
TORSDOF 6
