REMARK  Name = ZINC09237408
REMARK  6 active torsions:
REMARK  status: ('A' for Active; 'I' for Inactive)
REMARK    1  A    between atoms: C_1  and  C_2
REMARK    2  A    between atoms: C_5  and  C_8
REMARK    3  A    between atoms: C_10  and  C_20
REMARK    4  A    between atoms: C_16  and  C_19
REMARK    5  A    between atoms: N_22  and  C_23
REMARK    6  A    between atoms: C_25  and  C_30
REMARK                            x       y       z     vdW  Elec       q    Type
REMARK                         _______ _______ _______ _____ _____    ______ ____
ROOT
ATOM      1  C   UNL     1       1.060  -0.447   1.010  0.00  0.00    +0.140 C 
ATOM      2  C   UNL     1       0.003   0.011  -0.003  0.00  0.00    +0.166 C 
ATOM      3  S   UNL     1      -0.016   1.829  -0.006  0.00  0.00    -0.069 S 
ATOM      4  C   UNL     1       1.730   2.090  -0.022  0.00  0.00    +0.209 A 
ATOM      5  N   UNL     1       2.377   3.198  -0.255  0.00  0.00    -0.121 NA
ATOM      6  N   UNL     1       3.644   2.981  -0.166  0.00  0.00    -0.132 NA
ATOM      7  C   UNL     1       3.866   1.729   0.125  0.00  0.00    +0.148 A 
ATOM      8  N   UNL     1       2.652   1.112   0.221  0.00  0.00    -0.225 N 
ATOM      9  N   UNL     1       2.406  -0.196   0.493  0.00  0.00    -0.272 N 
ATOM     10  C   UNL     1       5.214   1.083   0.320  0.00  0.00    +0.090 C 
ATOM     11  H   UNL     1       3.108  -0.575   1.112  0.00  0.00    +0.167 HD
ENDROOT
BRANCH   1  16
ATOM     12  C   UNL     1       0.434  -6.105   2.002  0.00  0.00    +0.044 C 
ATOM     13  C   UNL     1       0.597  -4.629   1.744  0.00  0.00    -0.050 A 
ATOM     14  C   UNL     1       0.088  -3.710   2.641  0.00  0.00    +0.004 A 
ATOM     15  C   UNL     1       0.238  -2.356   2.404  0.00  0.00    +0.006 A 
ATOM     16  C   UNL     1       0.897  -1.922   1.269  0.00  0.00    -0.024 A 
ATOM     17  C   UNL     1       1.401  -2.842   0.369  0.00  0.00    +0.006 A 
ATOM     18  C   UNL     1       1.256  -4.195   0.609  0.00  0.00    +0.004 A 
ENDBRANCH   1  16
BRANCH   2  19
ATOM     19  C   UNL     1       0.358  -0.498  -1.376  0.00  0.00    +0.233 C 
ATOM     20  O   UNL     1       1.519  -0.692  -1.669  0.00  0.00    -0.274 OA
ATOM     21  N   UNL     1      -0.614  -0.738  -2.278  0.00  0.00    -0.283 N 
ATOM     22  H   UNL     1      -1.546  -0.660  -2.020  0.00  0.00    +0.155 HD
BRANCH  21  23
ATOM     23  C   UNL     1      -0.279  -1.100  -3.588  0.00  0.00    +0.052 A 
ATOM     24  C   UNL     1       0.950  -0.731  -4.119  0.00  0.00    +0.037 A 
ATOM     25  C   UNL     1       1.278  -1.090  -5.412  0.00  0.00    +0.057 A 
ATOM     26  C   UNL     1       0.384  -1.815  -6.179  0.00  0.00    +0.014 A 
ATOM     27  C   UNL     1      -0.841  -2.184  -5.654  0.00  0.00    +0.022 A 
ATOM     28  C   UNL     1      -1.173  -1.833  -4.359  0.00  0.00    +0.062 A 
ATOM     29 CL   UNL     1      -2.709  -2.302  -3.698  0.00  0.00    -0.082 Cl
BRANCH  25  30
ATOM     30  C   UNL     1       2.611  -0.690  -5.989  0.00  0.00    +0.417 C 
ATOM     31  F   UNL     1       3.554  -1.689  -5.722  0.00  0.00    -0.166 F 
ATOM     32  F   UNL     1       2.490  -0.521  -7.372  0.00  0.00    -0.166 F 
ATOM     33  F   UNL     1       3.029   0.513  -5.408  0.00  0.00    -0.166 F 
ENDBRANCH  25  30
ENDBRANCH  21  23
ENDBRANCH   2  19
TORSDOF 4
