REMARK  Name = ZINC34998817
REMARK  11 active torsions:
REMARK  status: ('A' for Active; 'I' for Inactive)
REMARK    1  A    between atoms: C_1  and  C_2
REMARK    2  A    between atoms: C_2  and  C_3
REMARK    3  A    between atoms: C_3  and  C_5
REMARK    4  A    between atoms: C_3  and  C_6
REMARK    5  A    between atoms: C_6  and  C_8
REMARK    6  A    between atoms: C_6  and  N_27
REMARK    7  A    between atoms: C_14  and  C_17
REMARK    8  A    between atoms: C_18  and  C_20
REMARK    9  A    between atoms: C_20  and  C_21
REMARK   10  A    between atoms: C_21  and  C_22
REMARK   11  A    between atoms: N_30  and  C_31
REMARK                            x       y       z     vdW  Elec       q    Type
REMARK                         _______ _______ _______ _____ _____    ______ ____
ROOT
ATOM      1  C   UNL     1      -0.990  -2.916  -0.441  0.00  0.00    +0.163 C 
ENDROOT
BRANCH   1   2
ATOM      2  C   UNL     1       0.144  -3.742  -0.993  0.00  0.00    +0.236 C 
ATOM      3  O   UNL     1       1.008  -4.157  -0.251  0.00  0.00    -0.274 OA
ATOM      4  N   UNL     1       0.197  -4.018  -2.311  0.00  0.00    -0.297 N 
ATOM      5  C   UNL     1      -0.881  -3.584  -3.210  0.00  0.00    +0.127 C 
ATOM      6  C   UNL     1      -1.417  -4.810  -3.960  0.00  0.00    +0.127 C 
ATOM      7  N   UNL     1      -0.280  -5.550  -4.524  0.00  0.00    -0.296 N 
ATOM      8  C   UNL     1       0.798  -5.984  -3.624  0.00  0.00    +0.090 C 
ATOM      9  C   UNL     1       1.337  -4.753  -2.876  0.00  0.00    +0.130 C 
ATOM     10  C   UNL     1       0.253  -7.005  -2.623  0.00  0.00    +0.029 C 
ATOM     11  C   UNL     1      -0.227  -5.827  -5.842  0.00  0.00    +0.216 C 
ATOM     12  O   UNL     1       0.717  -6.438  -6.295  0.00  0.00    -0.276 OA
BRANCH  11  13
ATOM     13  C   UNL     1      -1.340  -5.376  -6.752  0.00  0.00    +0.096 C 
BRANCH  13  14
ATOM     14  C   UNL     1      -1.036  -5.814  -8.186  0.00  0.00    +0.013 C 
BRANCH  14  15
ATOM     15  C   UNL     1      -2.167  -5.356  -9.110  0.00  0.00    -0.011 C 
ATOM     16  C   UNL     1      -3.461  -6.131  -8.785  0.00  0.00    +0.003 C 
ATOM     17  C   UNL     1      -4.123  -6.359 -10.166  0.00  0.00    +0.000 C 
ATOM     18  C   UNL     1      -2.908  -6.639 -11.086  0.00  0.00    +0.000 C 
ATOM     19  C   UNL     1      -1.815  -5.679 -10.572  0.00  0.00    +0.003 C 
ENDBRANCH  14  15
ENDBRANCH  13  14
ENDBRANCH  11  13
ENDBRANCH   1   2
BRANCH   1  20
ATOM     20  N   UNL     1      -1.208  -3.264   0.965  0.00  0.00    -0.288 N 
ATOM     21  C   UNL     1      -2.418  -3.071   1.527  0.00  0.00    +0.305 C 
ATOM     22  O   UNL     1      -3.328  -2.607   0.868  0.00  0.00    -0.252 OA
ATOM     23  N   UNL     1      -2.618  -3.391   2.821  0.00  0.00    -0.268 N 
ATOM     24  H   UNL     1      -0.482  -3.635   1.491  0.00  0.00    +0.151 HD
ATOM     25  H   UNL     1      -1.873  -3.678   3.371  0.00  0.00    +0.156 HD
BRANCH  23  26
ATOM     26  C   UNL     1      -3.903  -3.309   3.371  0.00  0.00    +0.049 A 
ATOM     27  C   UNL     1      -5.016  -3.303   2.541  0.00  0.00    +0.024 A 
ATOM     28  C   UNL     1      -6.282  -3.223   3.087  0.00  0.00    +0.002 A 
ATOM     29  C   UNL     1      -6.443  -3.149   4.458  0.00  0.00    +0.001 A 
ATOM     30  C   UNL     1      -5.337  -3.155   5.288  0.00  0.00    +0.017 A 
ATOM     31  C   UNL     1      -4.067  -3.240   4.749  0.00  0.00    +0.039 A 
ATOM     32 BR   UNL     1      -2.555  -3.256   5.885  0.00  0.00    -0.048 Br
ENDBRANCH  23  26
ENDBRANCH   1  20
BRANCH   1  33
ATOM     33  C   UNL     1      -0.640  -1.431  -0.550  0.00  0.00    +0.015 C 
ATOM     34  C   UNL     1      -0.561  -1.033  -2.026  0.00  0.00    +0.010 C 
BRANCH  33  36
ATOM     35  C   UNL     1       1.004   0.327   0.121  0.00  0.00    +0.004 C 
ATOM     36  C   UNL     1       0.711  -1.175   0.120  0.00  0.00    +0.002 C 
ENDBRANCH  33  36
ENDBRANCH   1  33
TORSDOF 8
