REMARK  Name = ZINC43898541
REMARK  10 active torsions:
REMARK  status: ('A' for Active; 'I' for Inactive)
REMARK    1  A    between atoms: C_1  and  C_2
REMARK    2  A    between atoms: C_3  and  C_33
REMARK    3  A    between atoms: C_5  and  N_11
REMARK    4  A    between atoms: C_6  and  C_7
REMARK    5  A    between atoms: N_9  and  C_10
REMARK    6  A    between atoms: C_12  and  C_14
REMARK    7  A    between atoms: C_17  and  S_20
REMARK    8  A    between atoms: S_20  and  N_23
REMARK    9  A    between atoms: C_25  and  C_32
REMARK   10  A    between atoms: C_28  and  C_31
REMARK                            x       y       z     vdW  Elec       q    Type
REMARK                         _______ _______ _______ _____ _____    ______ ____
ROOT
ATOM      1  C   UNL     1       0.090  -5.448   2.828  0.00  0.00    +0.037 A 
ATOM      2  C   UNL     1       0.085  -5.061   4.169  0.00  0.00    +0.015 A 
ATOM      3  C   UNL     1       0.102  -6.021   5.160  0.00  0.00    +0.029 A 
ATOM      4  C   UNL     1       0.125  -7.364   4.827  0.00  0.00    +0.106 A 
ATOM      5  C   UNL     1       0.131  -7.753   3.500  0.00  0.00    +0.029 A 
ATOM      6  C   UNL     1       0.108  -6.804   2.499  0.00  0.00    +0.015 A 
ENDROOT
BRANCH   1   8
ATOM      7  N   UNL     1       0.055  -3.117   2.081  0.00  0.00    -0.275 N 
ATOM      8  C   UNL     1       0.071  -4.426   1.760  0.00  0.00    +0.249 C 
ATOM      9  O   UNL     1       0.071  -4.765   0.593  0.00  0.00    -0.270 OA
ATOM     10  H   UNL     1       0.055  -2.846   3.013  0.00  0.00    +0.156 HD
BRANCH   7  15
ATOM     11  C   UNL     1      -0.018   1.503   0.010  0.00  0.00    +0.045 C 
ATOM     12  C   UNL     1       0.002  -0.004   0.002  0.00  0.00    -0.027 A 
ATOM     13  C   UNL     1       0.007  -0.713  -1.142  0.00  0.00    -0.008 A 
ATOM     14  S   UNL     1       0.033  -2.400  -0.579  0.00  0.00    -0.078 S 
ATOM     15  C   UNL     1       0.037  -2.158   1.081  0.00  0.00    +0.085 A 
ATOM     16  C   UNL     1       0.024  -0.778   1.222  0.00  0.00    +0.068 A 
ATOM     17  C   UNL     1      -0.008  -0.200  -2.559  0.00  0.00    +0.052 C 
BRANCH  16  18
ATOM     18  C   UNL     1       0.028  -0.138   2.541  0.00  0.00    +0.246 C 
ATOM     19  O   UNL     1      -1.025   0.113   3.098  0.00  0.00    -0.270 OA
ATOM     20  N   UNL     1       1.196   0.173   3.136  0.00  0.00    -0.314 N 
ATOM     21  C   UNL     1       1.199   0.812   4.455  0.00  0.00    +0.128 C 
ATOM     22  H   UNL     1       2.035  -0.028   2.692  0.00  0.00    +0.149 HD
ENDBRANCH  16  18
ENDBRANCH   7  15
ENDBRANCH   1   8
BRANCH   4  23
ATOM     23  S   UNL     1       0.147  -8.582   6.099  0.00  0.00    +0.061 S 
ATOM     24  O   UNL     1       0.718  -9.753   5.530  0.00  0.00    -0.153 OA
ATOM     25  O   UNL     1       0.688  -7.955   7.254  0.00  0.00    -0.153 OA
BRANCH  23  26
ATOM     26  N   UNL     1      -1.428  -8.948   6.454  0.00  0.00    -0.176 NA
ATOM     27  C   UNL     1      -2.157  -8.197   7.485  0.00  0.00    +0.112 C 
ATOM     28  C   UNL     1      -3.460  -7.665   6.879  0.00  0.00    +0.002 C 
ATOM     29  C   UNL     1      -4.248  -8.829   6.274  0.00  0.00    +0.009 C 
ATOM     30  C   UNL     1      -3.426  -9.478   5.158  0.00  0.00    +0.002 C 
ATOM     31  C   UNL     1      -2.126 -10.027   5.740  0.00  0.00    +0.112 C 
ATOM     32  C   UNL     1      -3.103  -8.434   4.088  0.00  0.00    +0.009 C 
ATOM     33  C   UNL     1      -4.295  -6.995   7.972  0.00  0.00    +0.009 C 
ENDBRANCH  23  26
ENDBRANCH   4  23
TORSDOF 5
