REMARK  Name = ZINC08455980
REMARK  11 active torsions:
REMARK  status: ('A' for Active; 'I' for Inactive)
REMARK    1  A    between atoms: C_1  and  C_2
REMARK    2  A    between atoms: C_7  and  O_8
REMARK    3  A    between atoms: O_8  and  C_9
REMARK    4  A    between atoms: C_9  and  C_11
REMARK    5  A    between atoms: C_9  and  C_12
REMARK    6  A    between atoms: N_14  and  C_15
REMARK    7  A    between atoms: C_18  and  C_21
REMARK    8  A    between atoms: C_21  and  C_32
REMARK    9  A    between atoms: N_22  and  N_23
REMARK   10  A    between atoms: C_24  and  C_26
REMARK   11  A    between atoms: C_26  and  C_31
REMARK                            x       y       z     vdW  Elec       q    Type
REMARK                         _______ _______ _______ _____ _____    ______ ____
ROOT
ATOM      1  C   UNL     1      -5.116   5.231  -0.393  0.00  0.00    +0.034 A 
ATOM      2  C   UNL     1      -5.217   3.859  -0.592  0.00  0.00    +0.024 A 
ATOM      3  C   UNL     1      -4.083   3.106  -0.807  0.00  0.00    +0.011 A 
ATOM      4  C   UNL     1      -2.830   3.724  -0.824  0.00  0.00    -0.002 A 
ATOM      5  C   UNL     1      -2.731   5.103  -0.618  0.00  0.00    +0.011 A 
ATOM      6  C   UNL     1      -3.870   5.849  -0.409  0.00  0.00    +0.024 A 
ENDROOT
BRANCH   1   9
ATOM      7  C   UNL     1      -6.336   7.258  -0.630  0.00  0.00    +0.258 C 
ATOM      8  O   UNL     1      -5.436   7.708  -1.307  0.00  0.00    -0.271 OA
ATOM      9  N   UNL     1      -6.268   5.991  -0.175  0.00  0.00    -0.282 N 
ATOM     10  H   UNL     1      -7.019   5.606   0.303  0.00  0.00    +0.155 HD
BRANCH   7  11
ATOM     11  C   UNL     1      -7.531   8.114  -0.298  0.00  0.00    +0.256 C 
ATOM     12  C   UNL     1      -8.798   7.456  -0.847  0.00  0.00    +0.062 C 
BRANCH  11  13
ATOM     13  O   UNL     1      -7.370   9.405  -0.890  0.00  0.00    -0.480 OA
BRANCH  13  20
ATOM     14  C   UNL     1      -6.884  11.998  -1.898  0.00  0.00    +0.047 C 
ATOM     15  C   UNL     1      -7.833  11.735  -0.758  0.00  0.00    -0.007 A 
ATOM     16  C   UNL     1      -8.507  12.784  -0.162  0.00  0.00    +0.027 A 
ATOM     17  C   UNL     1      -9.378  12.543   0.885  0.00  0.00    +0.041 A 
ATOM     18  C   UNL     1      -9.577  11.250   1.337  0.00  0.00    +0.023 A 
ATOM     19  C   UNL     1      -8.909  10.198   0.742  0.00  0.00    +0.047 A 
ATOM     20  C   UNL     1      -8.031  10.439  -0.305  0.00  0.00    +0.125 A 
ATOM     21 CL   UNL     1     -10.223  13.862   1.631  0.00  0.00    -0.084 Cl
ENDBRANCH  13  20
ENDBRANCH  11  13
ENDBRANCH   7  11
ENDBRANCH   1   9
BRANCH   4  22
ATOM     22  C   UNL     1      -1.614   2.923  -1.053  0.00  0.00    +0.063 C 
ATOM     23  N   UNL     1      -1.707   1.642  -1.239  0.00  0.00    -0.185 NA
ATOM     24  C   UNL     1      -0.263   3.591  -1.071  0.00  0.00    +0.068 C 
BRANCH  23  25
ATOM     25  N   UNL     1      -0.551   0.880  -1.457  0.00  0.00    -0.206 N 
ATOM     26  C   UNL     1      -0.648  -0.451  -1.650  0.00  0.00    +0.241 C 
ATOM     27  O   UNL     1      -1.734  -0.989  -1.630  0.00  0.00    -0.273 OA
ATOM     28  H   UNL     1       0.318   1.311  -1.472  0.00  0.00    +0.177 HD
BRANCH  26  29
ATOM     29  C   UNL     1       0.595  -1.269  -1.890  0.00  0.00    +0.081 C 
ATOM     30  C   UNL     1       0.419  -2.774  -2.102  0.00  0.00    +0.058 C 
ATOM     31  C   UNL     1       1.017  -2.250  -0.795  0.00  0.00    +0.133 C 
ATOM     32 CL   UNL     1       2.784  -2.494  -0.531  0.00  0.00    -0.100 Cl
ATOM     33 CL   UNL     1      -0.010  -2.339   0.684  0.00  0.00    -0.100 Cl
ATOM     34  C   UNL     1       1.704  -0.569  -2.678  0.00  0.00    +0.024 C 
ENDBRANCH  26  29
ENDBRANCH  23  25
ENDBRANCH   4  22
TORSDOF 7
