REMARK  Name = ZINC62007073
REMARK  4 active torsions:
REMARK  status: ('A' for Active; 'I' for Inactive)
REMARK    1  A    between atoms: C_1  and  C_2
REMARK    2  A    between atoms: C_5  and  C_8
REMARK    3  A    between atoms: C_9  and  N_22
REMARK    4  A    between atoms: C_10  and  C_13
REMARK                            x       y       z     vdW  Elec       q    Type
REMARK                         _______ _______ _______ _____ _____    ______ ____
ROOT
ATOM      1  C   UNL     1       0.009  -4.238   0.002  0.00  0.00    +0.101 A 
ATOM      2  C   UNL     1       0.819  -4.941   0.889  0.00  0.00    +0.072 A 
ATOM      3  C   UNL     1       0.636  -6.323   0.833  0.00  0.00    +0.115 A 
ATOM      4  S   UNL     1      -0.618  -6.458  -0.427  0.00  0.00    +0.019 S 
ATOM      5  N   UNL     1      -0.824  -4.891  -0.774  0.00  0.00    -0.208 NA
ENDROOT
BRANCH   3   6
ATOM      6  C   UNL     1       1.297  -7.379   1.602  0.00  0.00    +0.257 C 
ATOM      7  O   UNL     1       2.021  -7.090   2.536  0.00  0.00    -0.269 OA
ATOM      8  N   UNL     1       1.103  -8.672   1.274  0.00  0.00    -0.297 N 
ATOM      9  C   UNL     1       0.214  -8.985   0.178  0.00  0.00    +0.108 C 
ATOM     10  C   UNL     1      -1.231  -9.146   0.711  0.00  0.00    +0.019 C 
ATOM     11  C   UNL     1      -1.353 -10.389   1.488  0.00  0.00    +0.002 C 
ATOM     12  C   UNL     1      -0.482 -10.436   2.739  0.00  0.00    +0.002 C 
ATOM     13  C   UNL     1       0.901 -10.914   2.369  0.00  0.00    +0.019 C 
ATOM     14  C   UNL     1       1.813  -9.711   2.047  0.00  0.00    +0.108 C 
ENDBRANCH   3   6
BRANCH   1  19
ATOM     15  C   UNL     1       0.294   1.508  -0.246  0.00  0.00    +0.044 C 
ATOM     16  C   UNL     1       0.219   0.004  -0.181  0.00  0.00    -0.050 A 
ATOM     17  C   UNL     1       1.383  -0.741  -0.112  0.00  0.00    +0.004 A 
ATOM     18  C   UNL     1       1.321  -2.118  -0.052  0.00  0.00    +0.010 A 
ATOM     19  C   UNL     1       0.083  -2.758  -0.061  0.00  0.00    +0.003 A 
ATOM     20  C   UNL     1      -1.086  -2.002  -0.131  0.00  0.00    +0.010 A 
ATOM     21  C   UNL     1      -1.012  -0.625  -0.186  0.00  0.00    +0.004 A 
ENDBRANCH   1  19
BRANCH   2  22
ATOM     22  N   UNL     1       1.723  -4.325   1.749  0.00  0.00    -0.355 N 
ATOM     23  H   UNL     1       1.728  -3.359   1.838  0.00  0.00    +0.142 HD
ATOM     24  H   UNL     1       2.350  -4.861   2.260  0.00  0.00    +0.142 HD
ENDBRANCH   2  22
TORSDOF 3
