REMARK  Name = ZINC63480012
REMARK  4 active torsions:
REMARK  status: ('A' for Active; 'I' for Inactive)
REMARK    1  A    between atoms: C_1  and  C_2
REMARK    2  A    between atoms: C_5  and  N_8
REMARK    3  A    between atoms: C_13  and  C_31
REMARK    4  A    between atoms: C_31  and  C_32
REMARK                            x       y       z     vdW  Elec       q    Type
REMARK                         _______ _______ _______ _____ _____    ______ ____
ROOT
ATOM      1  N   UNL     1       0.059  -4.172  -0.021  0.00  0.00    -0.210 N 
ATOM      2  C   UNL     1      -0.030  -4.891  -1.146  0.00  0.00    +0.232 C 
ATOM      3  O   UNL     1      -0.139  -4.433  -2.263  0.00  0.00    -0.274 OA
ATOM      4  C   UNL     1       0.026  -6.363  -0.808  0.00  0.00    +0.107 C 
ATOM      5  C   UNL     1      -1.340  -7.011  -1.115  0.00  0.00    +0.072 C 
ATOM      6  N   UNL     1      -2.145  -6.809   0.119  0.00  0.00    -0.295 NA
ATOM      7  C   UNL     1      -1.180  -7.007   1.216  0.00  0.00    +0.136 C 
ATOM      8  C   UNL     1       0.150  -6.371   0.742  0.00  0.00    +0.123 C 
ATOM      9  C   UNL     1       0.172  -4.901   1.096  0.00  0.00    +0.233 C 
ATOM     10  O   UNL     1       0.274  -4.452   2.217  0.00  0.00    -0.274 OA
ATOM     11  C   UNL     1      -1.666  -6.386   2.495  0.00  0.00    +0.006 A 
ATOM     12  C   UNL     1      -2.007  -5.101   2.854  0.00  0.00    +0.046 A 
ATOM     13  C   UNL     1      -2.432  -4.833   4.145  0.00  0.00    +0.124 A 
ATOM     14  C   UNL     1      -2.513  -5.860   5.071  0.00  0.00    +0.040 A 
ATOM     15  C   UNL     1      -2.171  -7.147   4.713  0.00  0.00    +0.026 A 
ATOM     16  C   UNL     1      -1.742  -7.425   3.417  0.00  0.00    +0.039 A 
ATOM     17  N   UNL     1      -1.346  -8.627   2.825  0.00  0.00    -0.283 N 
ATOM     18  C   UNL     1      -1.001  -8.467   1.533  0.00  0.00    +0.243 C 
ATOM     19  O   UNL     1      -0.619  -9.331   0.772  0.00  0.00    -0.273 OA
ATOM     20  F   UNL     1      -2.768  -3.573   4.500  0.00  0.00    -0.205 F 
ATOM     21  H   UNL     1      -2.538  -5.880   0.146  0.00  0.00    +0.124 HD
ATOM     22  H   UNL     1      -1.323  -9.478   3.290  0.00  0.00    +0.155 HD
ENDROOT
BRANCH   1  27
ATOM     23  C   UNL     1      -0.017   1.503   0.012  0.00  0.00    +0.044 C 
ATOM     24  C   UNL     1       0.003  -0.004   0.003  0.00  0.00    -0.050 A 
ATOM     25  C   UNL     1      -1.131  -0.707  -0.360  0.00  0.00    +0.005 A 
ATOM     26  C   UNL     1      -1.115  -2.088  -0.369  0.00  0.00    +0.024 A 
ATOM     27  C   UNL     1       0.040  -2.771  -0.013  0.00  0.00    +0.044 A 
ATOM     28  C   UNL     1       1.177  -2.062   0.351  0.00  0.00    +0.024 A 
ATOM     29  C   UNL     1       1.157  -0.681   0.353  0.00  0.00    +0.005 A 
ENDBRANCH   1  27
BRANCH   5  30
ATOM     30  C   UNL     1      -2.003  -6.315  -2.306  0.00  0.00    +0.052 C 
BRANCH  30  31
ATOM     31  C   UNL     1      -3.275  -7.039  -2.666  0.00  0.00    -0.040 C 
ATOM     32  C   UNL     1      -4.528  -6.733  -2.259  0.00  0.00    -0.001 A 
ATOM     33  C   UNL     1      -5.061  -5.676  -1.391  0.00  0.00    +0.010 A 
ATOM     34  C   UNL     1      -6.393  -5.625  -1.162  0.00  0.00    +0.001 A 
ATOM     35  C   UNL     1      -7.275  -6.554  -1.731  0.00  0.00    +0.002 A 
ATOM     36  C   UNL     1      -6.860  -7.553  -2.539  0.00  0.00    +0.026 A 
ATOM     37  C   UNL     1      -5.480  -7.701  -2.848  0.00  0.00    +0.043 A 
ATOM     38  N   UNL     1      -4.840  -8.572  -3.591  0.00  0.00    -0.380 N 
ATOM     39  C   UNL     1      -3.409  -8.250  -3.562  0.00  0.00    +0.144 C 
ATOM     40  H   UNL     1      -5.246  -9.304  -4.081  0.00  0.00    +0.160 HD
ENDBRANCH  30  31
ENDBRANCH   5  30
TORSDOF 3
