REMARK  Name = ZINC56899395
REMARK  7 active torsions:
REMARK  status: ('A' for Active; 'I' for Inactive)
REMARK    1  A    between atoms: C_1  and  C_2
REMARK    2  A    between atoms: C_2  and  C_4
REMARK    3  A    between atoms: C_2  and  N_17
REMARK    4  A    between atoms: C_7  and  N_10
REMARK    5  A    between atoms: N_13  and  C_16
REMARK    6  A    between atoms: C_23  and  C_26
REMARK    7  A    between atoms: C_26  and  O_27
REMARK                            x       y       z     vdW  Elec       q    Type
REMARK                         _______ _______ _______ _____ _____    ______ ____
ROOT
ATOM      1  C   UNL     1      -0.032   1.510   0.138  0.00  0.00    +0.033 C 
ATOM      2  C   UNL     1      -0.028  -0.013  -0.010  0.00  0.00    +0.102 C 
ENDROOT
BRANCH   2   3
ATOM      3  N   UNL     1       0.808  -0.603   1.039  0.00  0.00    -0.293 N 
ATOM      4  C   UNL     1       0.286  -0.852   2.256  0.00  0.00    +0.303 C 
ATOM      5  O   UNL     1      -0.900  -0.676   2.456  0.00  0.00    -0.253 OA
ATOM      6  N   UNL     1       1.079  -1.295   3.251  0.00  0.00    -0.286 N 
ATOM      7  C   UNL     1       2.532  -1.396   3.062  0.00  0.00    +0.109 C 
ATOM      8  C   UNL     1       2.978  -2.818   3.416  0.00  0.00    +0.025 C 
ATOM      9  C   UNL     1       2.503  -3.160   4.830  0.00  0.00    +0.017 C 
ATOM     10  C   UNL     1       0.975  -3.106   4.884  0.00  0.00    +0.025 C 
ATOM     11  C   UNL     1       0.507  -1.682   4.548  0.00  0.00    +0.109 C 
ATOM     12  H   UNL     1       1.737  -0.814   0.857  0.00  0.00    +0.151 HD
BRANCH   9  13
ATOM     13  C   UNL     1       2.977  -4.567   5.201  0.00  0.00    +0.159 C 
BRANCH  13  14
ATOM     14  O   UNL     1       2.634  -4.843   6.561  0.00  0.00    -0.395 OA
ATOM     15  H   UNL     1       2.905  -5.720   6.864  0.00  0.00    +0.209 HD
ENDBRANCH  13  14
ENDBRANCH   9  13
ENDBRANCH   2   3
BRANCH   2  16
ATOM     16  C   UNL     1       0.526  -0.385  -1.362  0.00  0.00    -0.027 A 
ATOM     17  C   UNL     1       1.893  -0.399  -1.567  0.00  0.00    +0.007 A 
ATOM     18  C   UNL     1       2.404  -0.740  -2.804  0.00  0.00    +0.023 A 
ATOM     19  C   UNL     1       1.542  -1.067  -3.843  0.00  0.00    +0.030 A 
ATOM     20  C   UNL     1       0.169  -1.051  -3.634  0.00  0.00    +0.023 A 
ATOM     21  C   UNL     1      -0.335  -0.715  -2.392  0.00  0.00    +0.007 A 
BRANCH  19  22
ATOM     22  N   UNL     1       2.055  -1.411  -5.096  0.00  0.00    -0.333 N 
ATOM     23  C   UNL     1       1.168  -1.869  -6.177  0.00  0.00    +0.086 C 
ATOM     24  C   UNL     1       1.477  -1.055  -7.437  0.00  0.00    -0.060 C 
ATOM     25  N   UNL     1       2.909  -1.156  -7.745  0.00  0.00    +0.380 N 
ATOM     26  C   UNL     1       3.696  -0.536  -6.671  0.00  0.00    -0.060 C 
ATOM     27  C   UNL     1       3.496  -1.320  -5.374  0.00  0.00    +0.086 C 
ATOM     28  C   UNL     1       3.186  -0.467  -9.012  0.00  0.00    -0.096 C 
ATOM     29  H   UNL     1       3.166  -2.128  -7.830  0.00  0.00    -0.082 HD
ENDBRANCH  19  22
ENDBRANCH   2  16
TORSDOF 5
