REMARK  Name = ZINC39666247
REMARK  9 active torsions:
REMARK  status: ('A' for Active; 'I' for Inactive)
REMARK    1  A    between atoms: C_1  and  C_2
REMARK    2  A    between atoms: C_5  and  O_8
REMARK    3  A    between atoms: O_8  and  C_9
REMARK    4  A    between atoms: C_9  and  C_11
REMARK    5  A    between atoms: C_9  and  C_12
REMARK    6  A    between atoms: C_12  and  N_13
REMARK    7  A    between atoms: C_14  and  C_16
REMARK    8  A    between atoms: C_27  and  C_29
REMARK    9  A    between atoms: C_32  and  C_34
REMARK                            x       y       z     vdW  Elec       q    Type
REMARK                         _______ _______ _______ _____ _____    ______ ____
ROOT
ATOM      1  C   UNL     1       4.756  -6.780  -0.060  0.00  0.00    +0.100 C 
ATOM      2  C   UNL     1       5.589  -6.113   1.058  0.00  0.00    +0.121 C 
ATOM      3  N   UNL     1       6.218  -7.243   1.781  0.00  0.00    -0.294 N 
ATOM      4  C   UNL     1       6.595  -8.200   0.714  0.00  0.00    +0.115 C 
ATOM      5  C   UNL     1       5.422  -8.149  -0.285  0.00  0.00    -0.004 C 
ATOM      6  C   UNL     1       4.432  -9.272   0.007  0.00  0.00    -0.010 C 
ATOM      7  C   UNL     1       5.099 -10.621  -0.278  0.00  0.00    -0.082 C 
ATOM      8  N   UNL     1       5.526 -10.670  -1.682  0.00  0.00    +0.379 N 
ATOM      9  C   UNL     1       6.546  -9.645  -1.931  0.00  0.00    -0.082 C 
ATOM     10  C   UNL     1       5.941  -8.255  -1.715  0.00  0.00    -0.010 C 
ATOM     11  C   UNL     1       6.406  -7.371   3.110  0.00  0.00    +0.282 C 
ATOM     12  O   UNL     1       6.943  -8.368   3.555  0.00  0.00    -0.267 OA
ATOM     13  H   UNL     1       5.909 -11.581  -1.883  0.00  0.00    -0.086 HD
ATOM     14  H   UNL     1       4.730 -10.503  -2.280  0.00  0.00    -0.086 HD
ENDROOT
BRANCH  11  15
ATOM     15  C   UNL     1       5.962  -6.310   4.018  0.00  0.00    +0.190 A 
ATOM     16  C   UNL     1       6.096  -6.311   5.389  0.00  0.00    +0.055 A 
ATOM     17  C   UNL     1       5.540  -5.113   5.849  0.00  0.00    +0.050 A 
ATOM     18  C   UNL     1       5.092  -4.432   4.754  0.00  0.00    +0.136 A 
ATOM     19  O   UNL     1       5.356  -5.160   3.656  0.00  0.00    -0.450 OA
BRANCH  18  20
ATOM     20  C   UNL     1       4.430  -3.111   4.773  0.00  0.00    +0.017 A 
ATOM     21  C   UNL     1       4.222  -2.448   5.984  0.00  0.00    +0.011 A 
ATOM     22  C   UNL     1       3.604  -1.215   5.994  0.00  0.00    +0.001 A 
ATOM     23  C   UNL     1       3.192  -0.634   4.808  0.00  0.00    +0.000 A 
ATOM     24  C   UNL     1       3.395  -1.286   3.604  0.00  0.00    +0.001 A 
ATOM     25  C   UNL     1       4.016  -2.517   3.579  0.00  0.00    +0.011 A 
ENDBRANCH  18  20
ENDBRANCH  11  15
BRANCH   1  27
ATOM     26  N   UNL     1       2.334  -6.970  -0.525  0.00  0.00    -0.312 N 
ATOM     27  C   UNL     1       3.328  -6.959   0.386  0.00  0.00    +0.218 C 
ATOM     28  O   UNL     1       3.072  -7.092   1.564  0.00  0.00    -0.275 OA
ATOM     29  H   UNL     1       2.539  -6.863  -1.467  0.00  0.00    +0.149 HD
BRANCH  26  30
ATOM     30  C   UNL     1       0.946  -7.143  -0.091  0.00  0.00    +0.148 C 
BRANCH  30  31
ATOM     31  C   UNL     1       0.024  -7.119  -1.312  0.00  0.00    +0.187 C 
ATOM     32  C   UNL     1      -1.434  -7.174  -0.852  0.00  0.00    +0.053 C 
BRANCH  31  33
ATOM     33  O   UNL     1       0.304  -8.247  -2.143  0.00  0.00    -0.488 OA
BRANCH  33  38
ATOM     34  C   UNL     1      -0.969  -7.774  -7.610  0.00  0.00    +0.044 C 
ATOM     35  C   UNL     1      -0.628  -7.901  -6.147  0.00  0.00    -0.050 A 
ATOM     36  C   UNL     1      -0.973  -6.891  -5.269  0.00  0.00    +0.007 A 
ATOM     37  C   UNL     1      -0.662  -7.004  -3.927  0.00  0.00    +0.046 A 
ATOM     38  C   UNL     1      -0.004  -8.133  -3.462  0.00  0.00    +0.121 A 
ATOM     39  C   UNL     1       0.341  -9.146  -4.346  0.00  0.00    +0.046 A 
ATOM     40  C   UNL     1       0.022  -9.030  -5.685  0.00  0.00    +0.007 A 
ENDBRANCH  33  38
ENDBRANCH  31  33
ENDBRANCH  30  31
ENDBRANCH  26  30
ENDBRANCH   1  27
TORSDOF 7
