REMARK  Name = ZINC35711991
REMARK  12 active torsions:
REMARK  status: ('A' for Active; 'I' for Inactive)
REMARK    1  A    between atoms: C_1  and  C_2
REMARK    2  A    between atoms: C_2  and  C_3
REMARK    3  A    between atoms: C_3  and  N_4
REMARK    4  A    between atoms: C_5  and  C_37
REMARK    5  A    between atoms: C_6  and  C_32
REMARK    6  A    between atoms: C_7  and  C_12
REMARK    7  A    between atoms: C_16  and  N_18
REMARK    8  A    between atoms: N_21  and  C_22
REMARK    9  A    between atoms: C_26  and  C_28
REMARK   10  A    between atoms: C_32  and  O_34
REMARK   11  A    between atoms: O_34  and  C_35
REMARK   12  A    between atoms: C_35  and  C_36
REMARK                            x       y       z     vdW  Elec       q    Type
REMARK                         _______ _______ _______ _____ _____    ______ ____
ROOT
ATOM      1  C   UNL     1       0.055  -5.950  -0.244  0.00  0.00    -0.021 A 
ATOM      2  C   UNL     1      -0.885  -5.509   0.670  0.00  0.00    +0.006 A 
ATOM      3  C   UNL     1      -1.570  -6.418   1.455  0.00  0.00    +0.002 A 
ATOM      4  C   UNL     1      -1.317  -7.770   1.329  0.00  0.00    +0.023 A 
ATOM      5  C   UNL     1      -0.374  -8.216   0.412  0.00  0.00    +0.035 A 
ATOM      6  C   UNL     1       0.308  -7.300  -0.379  0.00  0.00    +0.029 A 
ENDROOT
BRANCH   1  10
ATOM      7  N   UNL     1       0.978  -2.232  -0.645  0.00  0.00    -0.259 N 
ATOM      8  C   UNL     1       1.936  -3.029  -0.087  0.00  0.00    +0.024 C 
ATOM      9  C   UNL     1       1.918  -4.368  -0.262  0.00  0.00    +0.078 C 
ATOM     10  C   UNL     1       0.798  -4.955  -1.097  0.00  0.00    +0.144 C 
ATOM     11  N   UNL     1      -0.185  -4.010  -1.653  0.00  0.00    -0.288 N 
ATOM     12  C   UNL     1      -0.035  -2.698  -1.387  0.00  0.00    +0.307 C 
ATOM     13  O   UNL     1      -0.844  -1.910  -1.838  0.00  0.00    -0.252 OA
ATOM     14  C   UNL     1       3.033  -2.404   0.737  0.00  0.00    +0.061 C 
ATOM     15  H   UNL     1      -0.924  -4.326  -2.196  0.00  0.00    +0.151 HD
BRANCH   9  16
ATOM     16  C   UNL     1       2.911  -5.194   0.315  0.00  0.00    +0.339 C 
ATOM     17  O   UNL     1       3.801  -4.701   0.982  0.00  0.00    -0.245 OA
BRANCH  16  18
ATOM     18  O   UNL     1       2.871  -6.530   0.126  0.00  0.00    -0.462 OA
BRANCH  18  19
ATOM     19  C   UNL     1       3.905  -7.303   0.737  0.00  0.00    +0.229 C 
ATOM     20  C   UNL     1       3.694  -8.784   0.413  0.00  0.00    +0.048 C 
ENDBRANCH  18  19
ENDBRANCH  16  18
ENDBRANCH   9  16
BRANCH   7  21
ATOM     21  C   UNL     1       1.059  -0.788  -0.414  0.00  0.00    +0.114 C 
BRANCH  21  23
ATOM     22  C   UNL     1       2.097   1.347  -1.194  0.00  0.00    +0.005 C 
ATOM     23  C   UNL     1       2.012  -0.161  -1.435  0.00  0.00    +0.016 C 
ENDBRANCH  21  23
ENDBRANCH   7  21
ENDBRANCH   1  10
BRANCH   5  24
ATOM     24  N   UNL     1      -0.115  -9.585   0.282  0.00  0.00    -0.269 N 
ATOM     25  C   UNL     1      -0.182 -10.389   1.361  0.00  0.00    +0.308 C 
ATOM     26  O   UNL     1      -0.375  -9.913   2.463  0.00  0.00    -0.252 OA
ATOM     27  N   UNL     1      -0.035 -11.721   1.219  0.00  0.00    -0.269 N 
ATOM     28  H   UNL     1       0.113  -9.955  -0.585  0.00  0.00    +0.156 HD
ATOM     29  H   UNL     1       0.197 -12.094   0.354  0.00  0.00    +0.156 HD
BRANCH  27  30
ATOM     30  C   UNL     1      -0.216 -12.567   2.320  0.00  0.00    +0.035 A 
ATOM     31  C   UNL     1      -1.145 -12.243   3.300  0.00  0.00    +0.023 A 
ATOM     32  C   UNL     1      -1.321 -13.079   4.385  0.00  0.00    +0.002 A 
ATOM     33  C   UNL     1      -0.575 -14.238   4.496  0.00  0.00    +0.012 A 
ATOM     34  C   UNL     1       0.351 -14.563   3.521  0.00  0.00    +0.057 A 
ATOM     35  C   UNL     1       0.528 -13.734   2.431  0.00  0.00    +0.035 A 
BRANCH  34  36
ATOM     36  C   UNL     1       1.163 -15.826   3.646  0.00  0.00    +0.417 C 
ATOM     37  F   UNL     1       0.805 -16.496   4.821  0.00  0.00    -0.166 F 
ATOM     38  F   UNL     1       0.914 -16.651   2.544  0.00  0.00    -0.166 F 
ATOM     39  F   UNL     1       2.524 -15.503   3.689  0.00  0.00    -0.166 F 
ENDBRANCH  34  36
ENDBRANCH  27  30
ENDBRANCH   5  24
TORSDOF 9
