REMARK  Name = ZINC09510383
REMARK  7 active torsions:
REMARK  status: ('A' for Active; 'I' for Inactive)
REMARK    1  A    between atoms: C_1  and  C_2
REMARK    2  A    between atoms: C_2  and  O_3
REMARK    3  A    between atoms: O_3  and  C_4
REMARK    4  A    between atoms: C_4  and  C_6
REMARK    5  A    between atoms: C_7  and  N_33
REMARK    6  A    between atoms: N_18  and  C_21
REMARK    7  A    between atoms: C_21  and  C_22
REMARK                            x       y       z     vdW  Elec       q    Type
REMARK                         _______ _______ _______ _____ _____    ______ ____
ROOT
ATOM      1  C   UNL     1       0.181   6.095   3.688  0.00  0.00    +0.117 C 
ATOM      2  C   UNL     1      -0.516   6.524   4.773  0.00  0.00    +0.195 C 
ATOM      3  O   UNL     1      -0.744   5.718   5.820  0.00  0.00    -0.446 OA
ATOM      4  C   UNL     1      -0.671   4.382   5.674  0.00  0.00    +0.115 C 
ATOM      5  C   UNL     1       0.007   3.824   4.654  0.00  0.00    +0.057 C 
ATOM      6  C   UNL     1       0.706   4.690   3.639  0.00  0.00    +0.141 C 
ATOM      7  C   UNL     1       2.188   4.661   3.847  0.00  0.00    -0.002 A 
ATOM      8  C   UNL     1       2.968   5.054   4.913  0.00  0.00    +0.007 A 
ATOM      9  C   UNL     1       4.343   4.888   4.783  0.00  0.00    +0.000 A 
ATOM     10  C   UNL     1       4.898   4.356   3.638  0.00  0.00    +0.002 A 
ATOM     11  C   UNL     1       4.120   3.959   2.561  0.00  0.00    +0.024 A 
ATOM     12  C   UNL     1       2.738   4.119   2.679  0.00  0.00    +0.041 A 
ATOM     13  N   UNL     1       1.738   3.811   1.774  0.00  0.00    -0.265 N 
ATOM     14  C   UNL     1       0.513   4.117   2.250  0.00  0.00    +0.240 C 
ATOM     15  O   UNL     1      -0.543   3.960   1.675  0.00  0.00    -0.274 OA
ATOM     16  C   UNL     1       0.083   2.425   4.503  0.00  0.00    +0.164 C 
ATOM     17  O   UNL     1       0.722   1.958   3.582  0.00  0.00    -0.292 OA
ATOM     18  C   UNL     1      -0.613   1.499   5.463  0.00  0.00    +0.080 C 
ATOM     19  C   UNL     1      -1.838   2.217   6.042  0.00  0.00    +0.016 C 
ATOM     20  C   UNL     1      -1.371   3.518   6.697  0.00  0.00    +0.075 C 
ENDROOT
BRANCH   2  21
ATOM     21  N   UNL     1      -0.996   7.807   4.798  0.00  0.00    -0.329 N 
ATOM     22  H   UNL     1      -1.042   8.291   5.637  0.00  0.00    +0.145 HD
ATOM     23  H   UNL     1      -1.288   8.231   3.976  0.00  0.00    +0.145 HD
ENDBRANCH   2  21
BRANCH   1  24
ATOM     24  C   UNL     1       0.409   6.966   2.612  0.00  0.00    +0.342 C 
ATOM     25  O   UNL     1       0.078   8.136   2.695  0.00  0.00    -0.245 OA
BRANCH  24  26
ATOM     26  O   UNL     1       0.995   6.509   1.485  0.00  0.00    -0.462 OA
BRANCH  26  28
ATOM     27  C   UNL     1       1.868   6.754  -0.755  0.00  0.00    +0.048 C 
ATOM     28  C   UNL     1       1.197   7.451   0.430  0.00  0.00    +0.229 C 
ENDBRANCH  26  28
ENDBRANCH  24  26
ENDBRANCH   1  24
BRANCH  13  29
ATOM     29  C   UNL     1       1.981   3.228   0.452  0.00  0.00    +0.148 C 
BRANCH  29  30
ATOM     30  C   UNL     1       1.962   1.725   0.555  0.00  0.00    -0.030 A 
ATOM     31  C   UNL     1       0.775   1.036   0.386  0.00  0.00    +0.005 A 
ATOM     32  C   UNL     1       0.758  -0.343   0.479  0.00  0.00    +0.000 A 
ATOM     33  C   UNL     1       1.927  -1.033   0.742  0.00  0.00    +0.000 A 
ATOM     34  C   UNL     1       3.113  -0.344   0.911  0.00  0.00    +0.000 A 
ATOM     35  C   UNL     1       3.130   1.035   0.817  0.00  0.00    +0.005 A 
ENDBRANCH  29  30
ENDBRANCH  13  29
TORSDOF 6
