REMARK  Name = ZINC33219318
REMARK  5 active torsions:
REMARK  status: ('A' for Active; 'I' for Inactive)
REMARK    1  A    between atoms: C_1  and  C_2
REMARK    2  A    between atoms: C_6  and  C_9
REMARK    3  A    between atoms: N_14  and  C_17
REMARK    4  A    between atoms: C_17  and  C_18
REMARK    5  A    between atoms: N_20  and  C_21
REMARK                            x       y       z     vdW  Elec       q    Type
REMARK                         _______ _______ _______ _____ _____    ______ ____
ROOT
ATOM      1  C   UNL     1       7.964   3.584  -1.977  0.00  0.00    +0.248 C 
ATOM      2  O   UNL     1       8.867   3.046  -1.366  0.00  0.00    -0.270 OA
ATOM      3  N   UNL     1       6.731   3.650  -1.438  0.00  0.00    -0.301 N 
ATOM      4  C   UNL     1       6.481   3.184  -0.066  0.00  0.00    +0.089 C 
ATOM      5  C   UNL     1       5.293   2.216  -0.089  0.00  0.00    -0.059 C 
ATOM      6  N   UNL     1       4.149   2.867  -0.742  0.00  0.00    +0.387 N 
ATOM      7  C   UNL     1       4.445   3.182  -2.146  0.00  0.00    -0.059 C 
ATOM      8  C   UNL     1       5.599   4.189  -2.207  0.00  0.00    +0.089 C 
ATOM      9  H   UNL     1       3.959   3.815  -0.219  0.00  0.00    -0.081 HD
ENDROOT
BRANCH   1  15
ATOM     10  C   UNL     1       9.800   3.153  -6.598  0.00  0.00    +0.045 C 
ATOM     11  C   UNL     1       9.102   3.964  -5.537  0.00  0.00    -0.037 A 
ATOM     12  C   UNL     1       8.698   5.258  -5.811  0.00  0.00    +0.004 A 
ATOM     13  C   UNL     1       8.056   6.009  -4.843  0.00  0.00    +0.001 A 
ATOM     14  C   UNL     1       7.814   5.472  -3.596  0.00  0.00    +0.014 A 
ATOM     15  C   UNL     1       8.220   4.167  -3.311  0.00  0.00    +0.050 A 
ATOM     16  C   UNL     1       8.873   3.416  -4.291  0.00  0.00    +0.028 A 
ATOM     17  I   UNL     1       9.494   1.459  -3.874  0.00  0.00    -0.043 I 
ENDBRANCH   1  15
BRANCH   6  18
ATOM     18  C   UNL     1       2.940   2.039  -0.633  0.00  0.00    +0.019 C 
BRANCH  18  19
ATOM     19  C   UNL     1       1.744   2.834  -1.089  0.00  0.00    +0.201 C 
ATOM     20  O   UNL     1       1.885   3.978  -1.469  0.00  0.00    -0.278 OA
ATOM     21  N   UNL     1       0.518   2.275  -1.077  0.00  0.00    -0.287 N 
ATOM     22  H   UNL     1       0.400   1.214  -0.810  0.00  0.00    +0.155 HD
BRANCH  21  23
ATOM     23  C   UNL     1      -0.606   3.044  -1.402  0.00  0.00    +0.033 A 
ATOM     24  C   UNL     1      -0.645   4.392  -1.073  0.00  0.00    +0.026 A 
ATOM     25  C   UNL     1      -1.753   5.150  -1.400  0.00  0.00    +0.040 A 
ATOM     26  C   UNL     1      -2.828   4.564  -2.046  0.00  0.00    +0.124 A 
ATOM     27  C   UNL     1      -2.793   3.218  -2.370  0.00  0.00    +0.040 A 
ATOM     28  C   UNL     1      -1.686   2.458  -2.050  0.00  0.00    +0.026 A 
ATOM     29  F   UNL     1      -3.913   5.305  -2.360  0.00  0.00    -0.205 F 
ENDBRANCH  21  23
ENDBRANCH  18  19
ENDBRANCH   6  18
TORSDOF 4
