REMARK  Name = ZINC31991958
REMARK  13 active torsions:
REMARK  status: ('A' for Active; 'I' for Inactive)
REMARK    1  A    between atoms: C_1  and  C_2
REMARK    2  A    between atoms: C_5  and  C_32
REMARK    3  A    between atoms: C_7  and  S_8
REMARK    4  A    between atoms: S_8  and  N_11
REMARK    5  A    between atoms: N_11  and  C_12
REMARK    6  A    between atoms: C_16  and  C_18
REMARK    7  A    between atoms: N_20  and  C_21
REMARK    8  A    between atoms: C_25  and  C_28
REMARK    9  A    between atoms: C_26  and  C_27
REMARK   10  A    between atoms: N_30  and  C_31
REMARK   11  A    between atoms: C_32  and  C_33
REMARK   12  A    between atoms: C_32  and  C_34
REMARK   13  A    between atoms: C_32  and  C_35
REMARK                            x       y       z     vdW  Elec       q    Type
REMARK                         _______ _______ _______ _____ _____    ______ ____
ROOT
ATOM      1  C   UNL     1       6.784  -4.503   0.764  0.00  0.00    +0.049 A 
ATOM      2  C   UNL     1       7.966  -3.772   0.750  0.00  0.00    +0.024 A 
ATOM      3  C   UNL     1       7.935  -2.403   0.560  0.00  0.00    +0.003 A 
ATOM      4  C   UNL     1       6.731  -1.754   0.378  0.00  0.00    +0.013 A 
ATOM      5  C   UNL     1       5.538  -2.479   0.396  0.00  0.00    +0.039 A 
ATOM      6  C   UNL     1       5.569  -3.860   0.588  0.00  0.00    +0.037 A 
ENDROOT
BRANCH   5   7
ATOM      7  C   UNL     1       4.246  -1.785   0.206  0.00  0.00    +0.248 C 
ATOM      8  O   UNL     1       3.209  -2.419   0.218  0.00  0.00    -0.270 OA
ATOM      9  N   UNL     1       4.218  -0.451   0.021  0.00  0.00    -0.281 N 
ATOM     10  H   UNL     1       5.148   0.134   0.091  0.00  0.00    +0.155 HD
BRANCH   9  11
ATOM     11  C   UNL     1       3.008   0.192  -0.259  0.00  0.00    +0.037 A 
ATOM     12  C   UNL     1       2.033  -0.458  -1.008  0.00  0.00    +0.023 A 
ATOM     13  C   UNL     1       0.835   0.172  -1.286  0.00  0.00    +0.003 A 
ATOM     14  C   UNL     1       0.599   1.451  -0.824  0.00  0.00    +0.013 A 
ATOM     15  C   UNL     1       1.571   2.112  -0.071  0.00  0.00    +0.041 A 
ATOM     16  C   UNL     1       2.780   1.476   0.211  0.00  0.00    -0.017 A 
ATOM     17  C   UNL     1       3.834   2.182   1.023  0.00  0.00    +0.046 C 
BRANCH  15  18
ATOM     18  C   UNL     1       1.320   3.482   0.425  0.00  0.00    +0.244 C 
ATOM     19  O   UNL     1       2.207   4.098   0.983  0.00  0.00    -0.270 OA
ATOM     20  N   UNL     1       0.108   4.048   0.258  0.00  0.00    -0.314 N 
ATOM     21  C   UNL     1      -0.141   5.405   0.750  0.00  0.00    +0.128 C 
ATOM     22  H   UNL     1      -0.695   3.490  -0.247  0.00  0.00    +0.149 HD
ENDBRANCH  15  18
ENDBRANCH   9  11
ENDBRANCH   5   7
BRANCH   1  23
ATOM     23  N   UNL     1       6.821  -5.887   0.956  0.00  0.00    -0.216 N 
ATOM     24  H   UNL     1       6.130  -6.362   1.668  0.00  0.00    +0.174 HD
BRANCH  23  25
ATOM     25  S   UNL     1       7.906  -6.811   0.113  0.00  0.00    +0.073 S 
ATOM     26  O   UNL     1       9.186  -6.233   0.328  0.00  0.00    -0.150 OA
ATOM     27  O   UNL     1       7.619  -8.166   0.430  0.00  0.00    -0.150 OA
BRANCH  25  34
ATOM     28  C   UNL     1       5.306  -7.649  -1.185  0.00  0.00    +0.046 C 
ATOM     29  C   UNL     1       6.324  -7.022  -2.102  0.00  0.00    -0.024 A 
ATOM     30  C   UNL     1       6.037  -6.858  -3.444  0.00  0.00    +0.005 A 
ATOM     31  C   UNL     1       6.974  -6.288  -4.286  0.00  0.00    +0.004 A 
ATOM     32  C   UNL     1       8.195  -5.878  -3.785  0.00  0.00    -0.040 A 
ATOM     33  C   UNL     1       8.480  -6.037  -2.442  0.00  0.00    +0.033 A 
ATOM     34  C   UNL     1       7.543  -6.607  -1.600  0.00  0.00    +0.112 A 
BRANCH  32  35
ATOM     35  C   UNL     1       9.217  -5.257  -4.703  0.00  0.00    -0.013 C 
ATOM     36  C   UNL     1      10.492  -6.103  -4.693  0.00  0.00    +0.015 C 
ATOM     37  C   UNL     1       8.655  -5.198  -6.125  0.00  0.00    +0.015 C 
ATOM     38  C   UNL     1       9.540  -3.841  -4.223  0.00  0.00    +0.015 C 
ENDBRANCH  32  35
ENDBRANCH  25  34
ENDBRANCH  23  25
ENDBRANCH   1  23
TORSDOF 7
