REMARK  Name = ZINC56299332
REMARK  6 active torsions:
REMARK  status: ('A' for Active; 'I' for Inactive)
REMARK    1  A    between atoms: C_1  and  C_2
REMARK    2  A    between atoms: C_3  and  C_30
REMARK    3  A    between atoms: C_9  and  C_12
REMARK    4  A    between atoms: N_14  and  C_15
REMARK    5  A    between atoms: C_18  and  C_21
REMARK    6  A    between atoms: N_26  and  C_29
REMARK                            x       y       z     vdW  Elec       q    Type
REMARK                         _______ _______ _______ _____ _____    ______ ____
ROOT
ATOM      1  C   UNL     1      -0.715  -3.608   5.193  0.00  0.00    +0.248 C 
ATOM      2  O   UNL     1      -1.387  -4.316   5.918  0.00  0.00    -0.270 OA
ATOM      3  N   UNL     1       0.037  -2.623   5.723  0.00  0.00    -0.282 N 
ATOM      4  H   UNL     1       0.626  -2.103   5.153  0.00  0.00    +0.155 HD
ENDROOT
BRANCH   1  13
ATOM      5  C   UNL     1      -3.125  -7.082   1.320  0.00  0.00    +0.046 C 
ATOM      6  C   UNL     1      -2.171  -5.987   0.914  0.00  0.00    -0.022 A 
ATOM      7  C   UNL     1      -1.782  -5.689  -0.335  0.00  0.00    +0.017 A 
ATOM      8  N   UNL     1      -0.910  -4.634  -0.313  0.00  0.00    -0.358 N 
ATOM      9  H   UNL     1      -0.495  -4.239  -1.096  0.00  0.00    +0.166 HD
ATOM     10  C   UNL     1      -0.710  -4.217   0.981  0.00  0.00    +0.047 A 
ATOM     11  C   UNL     1      -1.496  -5.042   1.809  0.00  0.00    +0.004 A 
ATOM     12  C   UNL     1      -1.498  -4.846   3.187  0.00  0.00    +0.023 A 
ATOM     13  C   UNL     1      -0.722  -3.828   3.733  0.00  0.00    +0.038 A 
ATOM     14  C   UNL     1       0.054  -3.011   2.898  0.00  0.00    +0.015 A 
ATOM     15  C   UNL     1       0.064  -3.207   1.549  0.00  0.00    +0.027 A 
ATOM     16  C   UNL     1      -2.238  -6.408  -1.578  0.00  0.00    +0.063 C 
ENDBRANCH   1  13
BRANCH   3  17
ATOM     17  C   UNL     1      -0.030  -2.352   7.088  0.00  0.00    +0.034 A 
ATOM     18  C   UNL     1       0.074  -1.041   7.541  0.00  0.00    +0.024 A 
ATOM     19  C   UNL     1       0.007  -0.770   8.889  0.00  0.00    +0.015 A 
ATOM     20  C   UNL     1      -0.164  -1.813   9.803  0.00  0.00    +0.037 A 
ATOM     21  C   UNL     1      -0.268  -3.129   9.344  0.00  0.00    +0.015 A 
ATOM     22  C   UNL     1      -0.206  -3.393   7.994  0.00  0.00    +0.024 A 
BRANCH  20  23
ATOM     23  C   UNL     1      -0.235  -1.526  11.249  0.00  0.00    +0.246 C 
ATOM     24  O   UNL     1      -0.914  -0.602  11.652  0.00  0.00    -0.270 OA
ATOM     25  N   UNL     1       0.452  -2.289  12.122  0.00  0.00    -0.301 N 
ATOM     26  C   UNL     1       1.210  -3.465  11.665  0.00  0.00    +0.089 C 
ATOM     27  C   UNL     1       2.630  -3.378  12.235  0.00  0.00    -0.060 C 
ATOM     28  N   UNL     1       2.563  -3.229  13.694  0.00  0.00    +0.380 N 
ATOM     29  C   UNL     1       1.921  -1.954  14.038  0.00  0.00    -0.060 C 
ATOM     30  C   UNL     1       0.470  -1.967  13.557  0.00  0.00    +0.089 C 
ATOM     31  C   UNL     1       3.922  -3.256  14.250  0.00  0.00    -0.096 C 
ATOM     32  H   UNL     1       2.027  -3.990  14.084  0.00  0.00    -0.082 HD
ENDBRANCH  20  23
ENDBRANCH   3  17
TORSDOF 3
