REMARK  Name = ZINC00823396
REMARK  13 active torsions:
REMARK  status: ('A' for Active; 'I' for Inactive)
REMARK    1  A    between atoms: C_1  and  C_2
REMARK    2  A    between atoms: C_2  and  O_3
REMARK    3  A    between atoms: O_3  and  C_4
REMARK    4  A    between atoms: C_4  and  C_6
REMARK    5  A    between atoms: C_11  and  O_19
REMARK    6  A    between atoms: C_14  and  N_15
REMARK    7  A    between atoms: C_16  and  C_18
REMARK    8  A    between atoms: O_19  and  C_20
REMARK    9  A    between atoms: C_20  and  C_21
REMARK   10  A    between atoms: C_21  and  C_23
REMARK   11  A    between atoms: C_21  and  O_30
REMARK   12  A    between atoms: C_23  and  N_59
REMARK   13  A    between atoms: C_24  and  N_59
REMARK                            x       y       z     vdW  Elec       q    Type
REMARK                         _______ _______ _______ _____ _____    ______ ____
ROOT
ATOM      1  C   UNL     1      -1.251   1.905   0.018  0.00  0.00    +0.095 A 
ATOM      2  C   UNL     1      -1.914   2.285  -1.233  0.00  0.00    +0.009 A 
ATOM      3  C   UNL     1      -1.485   2.043  -2.558  0.00  0.00    +0.011 A 
ATOM      4  C   UNL     1      -2.233   2.464  -3.627  0.00  0.00    +0.019 A 
ATOM      5  C   UNL     1      -3.433   3.136  -3.446  0.00  0.00    +0.061 A 
ATOM      6  C   UNL     1      -3.885   3.385  -2.159  0.00  0.00    +0.149 A 
ATOM      7  C   UNL     1      -3.135   2.962  -1.077  0.00  0.00    +0.065 A 
ATOM      8  S   UNL     1      -3.352   3.079   0.680  0.00  0.00    -0.069 S 
ATOM      9  C   UNL     1      -1.868   2.247   1.210  0.00  0.00    +0.087 A 
ATOM     10 BR   UNL     1      -4.444   3.705  -4.939  0.00  0.00    -0.046 Br
ENDROOT
BRANCH   9  11
ATOM     11  N   UNL     1      -1.436   2.003   2.500  0.00  0.00    -0.280 N 
ATOM     12  C   UNL     1      -2.177   2.415   3.548  0.00  0.00    +0.214 C 
ATOM     13  O   UNL     1      -3.222   3.000   3.359  0.00  0.00    -0.276 OA
ATOM     14  C   UNL     1      -1.706   2.148   4.955  0.00  0.00    +0.109 C 
ATOM     15  H   UNL     1      -0.600   1.535   2.651  0.00  0.00    +0.155 HD
ENDBRANCH   9  11
BRANCH   1  16
ATOM     16  C   UNL     1      -0.014   1.213   0.009  0.00  0.00    +0.342 C 
ATOM     17  O   UNL     1       0.002  -0.004   0.002  0.00  0.00    -0.245 OA
BRANCH  16  18
ATOM     18  O   UNL     1       1.145   1.903   0.001  0.00  0.00    -0.461 OA
BRANCH  18  20
ATOM     19  C   UNL     1       3.554   2.090  -0.021  0.00  0.00    +0.048 C 
ATOM     20  C   UNL     1       2.354   1.141  -0.014  0.00  0.00    +0.229 C 
ENDBRANCH  18  20
ENDBRANCH  16  18
ENDBRANCH   1  16
BRANCH   6  21
ATOM     21  O   UNL     1      -5.059   4.042  -1.962  0.00  0.00    -0.487 OA
BRANCH  21  22
ATOM     22  C   UNL     1      -4.997   5.467  -1.865  0.00  0.00    +0.258 C 
BRANCH  22  23
ATOM     23  C   UNL     1      -6.404   6.025  -1.645  0.00  0.00    +0.135 C 
BRANCH  23  24
ATOM     24  O   UNL     1      -7.207   5.759  -2.797  0.00  0.00    -0.390 OA
ATOM     25  H   UNL     1      -6.868   6.153  -3.612  0.00  0.00    +0.210 HD
ENDBRANCH  23  24
BRANCH  23  26
ATOM     26  C   UNL     1      -6.324   7.536  -1.417  0.00  0.00    -0.047 C 
BRANCH  26  27
ATOM     27  N   UNL     1      -7.668   8.047  -1.087  0.00  0.00    +0.383 N 
ATOM     28  H   UNL     1      -8.007   7.583  -0.236  0.00  0.00    -0.085 HD
ATOM     29  H   UNL     1      -8.307   7.845  -1.865  0.00  0.00    -0.085 HD
BRANCH  27  30
ATOM     30  C   UNL     1      -7.620   9.504  -0.862  0.00  0.00    -0.072 C 
ATOM     31  C   UNL     1      -7.226   9.783   0.590  0.00  0.00    -0.016 C 
ATOM     32  C   UNL     1      -7.186  11.295   0.825  0.00  0.00    -0.002 C 
ATOM     33  C   UNL     1      -8.568  11.891   0.548  0.00  0.00    -0.000 C 
ATOM     34  C   UNL     1      -8.962  11.611  -0.904  0.00  0.00    -0.002 C 
ATOM     35  C   UNL     1      -9.002  10.100  -1.139  0.00  0.00    -0.016 C 
ENDBRANCH  27  30
ENDBRANCH  26  27
ENDBRANCH  23  26
ENDBRANCH  22  23
ENDBRANCH  21  22
ENDBRANCH   6  21
TORSDOF 11
