REMARK  Name = ZINC39659773
REMARK  7 active torsions:
REMARK  status: ('A' for Active; 'I' for Inactive)
REMARK    1  A    between atoms: C_1  and  O_2
REMARK    2  A    between atoms: O_2  and  C_3
REMARK    3  A    between atoms: C_6  and  C_11
REMARK    4  A    between atoms: C_7  and  O_9
REMARK    5  A    between atoms: O_9  and  C_10
REMARK    6  A    between atoms: C_15  and  C_24
REMARK    7  A    between atoms: N_26  and  C_27
REMARK                            x       y       z     vdW  Elec       q    Type
REMARK                         _______ _______ _______ _____ _____    ______ ____
ROOT
ATOM      1  C   UNL     1      -4.809  -2.456  -0.046  0.00  0.00    +0.250 C 
ATOM      2  O   UNL     1      -4.816  -3.672  -0.068  0.00  0.00    -0.270 OA
ATOM      3  N   UNL     1      -5.962  -1.778   0.120  0.00  0.00    -0.296 N 
ATOM      4  C   UNL     1      -6.169  -0.312   0.068  0.00  0.00    +0.121 C 
ATOM      5  C   UNL     1      -7.517  -0.134  -0.665  0.00  0.00    +0.100 C 
ATOM      6  C   UNL     1      -8.262  -1.461  -0.445  0.00  0.00    -0.004 C 
ATOM      7  C   UNL     1      -7.311  -2.332   0.389  0.00  0.00    +0.115 C 
ATOM      8  C   UNL     1      -9.562  -1.218   0.316  0.00  0.00    -0.010 C 
ATOM      9  C   UNL     1     -10.312  -2.544   0.472  0.00  0.00    -0.082 C 
ATOM     10  N   UNL     1     -10.596  -3.107  -0.854  0.00  0.00    +0.379 N 
ATOM     11  C   UNL     1      -9.339  -3.424  -1.542  0.00  0.00    -0.082 C 
ATOM     12  C   UNL     1      -8.548  -2.135  -1.784  0.00  0.00    -0.010 C 
ATOM     13  H   UNL     1     -11.143  -3.949  -0.750  0.00  0.00    -0.086 HD
ATOM     14  H   UNL     1     -11.116  -2.436  -1.398  0.00  0.00    -0.086 HD
ENDROOT
BRANCH   1  18
ATOM     15  C   UNL     1      -1.149  -0.345  -0.489  0.00  0.00    +0.124 A 
ATOM     16  C   UNL     1      -2.149   0.159   0.338  0.00  0.00    +0.046 A 
ATOM     17  C   UNL     1      -3.335  -0.522   0.484  0.00  0.00    +0.020 A 
ATOM     18  C   UNL     1      -3.540  -1.724  -0.200  0.00  0.00    +0.079 A 
ATOM     19  C   UNL     1      -2.531  -2.231  -1.033  0.00  0.00    +0.136 A 
ATOM     20  C   UNL     1      -1.343  -1.534  -1.176  0.00  0.00    +0.092 A 
BRANCH  15  22
ATOM     21  C   UNL     1       0.153   1.550   0.109  0.00  0.00    +0.277 C 
ATOM     22  O   UNL     1       0.018   0.332  -0.627  0.00  0.00    -0.495 OA
ENDBRANCH  15  22
BRANCH  19  23
ATOM     23  O   UNL     1      -2.721  -3.397  -1.700  0.00  0.00    -0.494 OA
ATOM     24  C   UNL     1      -1.650  -3.851  -2.530  0.00  0.00    +0.277 C 
ENDBRANCH  19  23
ENDBRANCH   1  18
BRANCH   5  25
ATOM     25  C   UNL     1      -8.293   1.011  -0.067  0.00  0.00    +0.218 C 
ATOM     26  O   UNL     1      -8.175   1.273   1.111  0.00  0.00    -0.275 OA
ATOM     27  N   UNL     1      -9.118   1.744  -0.841  0.00  0.00    -0.312 N 
ATOM     28  H   UNL     1      -9.213   1.534  -1.783  0.00  0.00    +0.149 HD
BRANCH  27  29
ATOM     29  C   UNL     1      -9.872   2.857  -0.259  0.00  0.00    +0.073 C 
ATOM     30  C   UNL     1     -11.165   2.327   0.363  0.00  0.00    +0.022 C 
ATOM     31  C   UNL     1     -11.751   3.385   1.301  0.00  0.00    +0.002 C 
ATOM     32  C   UNL     1     -10.633   3.987   2.153  0.00  0.00    +0.000 C 
ATOM     33  C   UNL     1     -10.431   5.454   1.766  0.00  0.00    +0.000 C 
ATOM     34  C   UNL     1      -9.678   5.531   0.436  0.00  0.00    +0.000 C 
ATOM     35  C   UNL     1     -10.633   5.193  -0.710  0.00  0.00    +0.002 C 
ATOM     36  C   UNL     1     -10.211   3.871  -1.353  0.00  0.00    +0.022 C 
ENDBRANCH  27  29
ENDBRANCH   5  25
TORSDOF 5
