REMARK  Name = ZINC21595761
REMARK  8 active torsions:
REMARK  status: ('A' for Active; 'I' for Inactive)
REMARK    1  A    between atoms: C_4  and  C_7
REMARK    2  A    between atoms: C_10  and  C_12
REMARK    3  A    between atoms: C_13  and  C_14
REMARK    4  A    between atoms: N_16  and  C_17
REMARK    5  A    between atoms: C_17  and  N_19
REMARK    6  A    between atoms: N_19  and  C_20
REMARK    7  A    between atoms: C_23  and  N_26
REMARK    8  A    between atoms: C_27  and  C_29
REMARK                            x       y       z     vdW  Elec       q    Type
REMARK                         _______ _______ _______ _____ _____    ______ ____
ROOT
ATOM      1  C   UNL     1       6.318  -1.774  -0.231  0.00  0.00    +0.141 C 
ATOM      2  S   UNL     1       4.921  -2.761  -0.286  0.00  0.00    -0.018 S 
ENDROOT
BRANCH   1   5
ATOM      3  C   UNL     1       7.663  -3.661  -0.512  0.00  0.00    +0.242 C 
ATOM      4  O   UNL     1       6.669  -4.364  -0.551  0.00  0.00    -0.270 OA
ATOM      5  N   UNL     1       7.540  -2.329  -0.350  0.00  0.00    -0.264 N 
ATOM      6  H   UNL     1       8.438  -1.694  -0.314  0.00  0.00    +0.157 HD
BRANCH   3   8
ATOM      7  C   UNL     1       9.068  -5.587  -0.799  0.00  0.00    +0.051 C 
ATOM      8  C   UNL     1       8.944  -4.243  -0.636  0.00  0.00    +0.071 C 
BRANCH   7  12
ATOM      9  C   UNL     1      12.535  -6.382  -1.043  0.00  0.00    +0.136 A 
ATOM     10  C   UNL     1      12.005  -7.646  -1.169  0.00  0.00    +0.050 A 
ATOM     11  C   UNL     1      10.616  -7.515  -1.088  0.00  0.00    +0.050 A 
ATOM     12  C   UNL     1      10.350  -6.168  -0.923  0.00  0.00    +0.129 A 
ATOM     13  O   UNL     1      11.525  -5.506  -0.896  0.00  0.00    -0.455 OA
BRANCH   9  17
ATOM     14  C   UNL     1      16.668  -5.410  -1.108  0.00  0.00    +0.000 A 
ATOM     15  C   UNL     1      15.727  -4.408  -0.949  0.00  0.00    +0.001 A 
ATOM     16  C   UNL     1      14.383  -4.716  -0.927  0.00  0.00    +0.011 A 
ATOM     17  C   UNL     1      13.972  -6.044  -1.066  0.00  0.00    +0.017 A 
ATOM     18  C   UNL     1      14.927  -7.051  -1.220  0.00  0.00    +0.011 A 
ATOM     19  C   UNL     1      16.268  -6.728  -1.246  0.00  0.00    +0.001 A 
ENDBRANCH   9  17
ENDBRANCH   7  12
ENDBRANCH   3   8
ENDBRANCH   1   5
BRANCH   1  20
ATOM     20  N   UNL     1       6.196  -0.442  -0.069  0.00  0.00    -0.297 N 
ATOM     21  H   UNL     1       7.094   0.185   0.028  0.00  0.00    +0.154 HD
BRANCH  20  22
ATOM     22  C   UNL     1       4.924   0.144  -0.025  0.00  0.00    +0.033 A 
ATOM     23  C   UNL     1       3.912  -0.448   0.719  0.00  0.00    +0.025 A 
ATOM     24  C   UNL     1       2.659   0.130   0.763  0.00  0.00    +0.025 A 
ATOM     25  C   UNL     1       2.411   1.304   0.064  0.00  0.00    +0.034 A 
ATOM     26  C   UNL     1       3.422   1.893  -0.684  0.00  0.00    +0.025 A 
ATOM     27  C   UNL     1       4.676   1.319  -0.724  0.00  0.00    +0.025 A 
BRANCH  25  28
ATOM     28  N   UNL     1       1.141   1.890   0.109  0.00  0.00    -0.281 N 
ATOM     29  C   UNL     1       0.419   1.848   1.246  0.00  0.00    +0.255 C 
ATOM     30  O   UNL     1       0.849   1.255   2.218  0.00  0.00    -0.269 OA
ATOM     31  H   UNL     1       0.731   2.385  -0.784  0.00  0.00    +0.155 HD
BRANCH  29  32
ATOM     32  C   UNL     1      -0.887   2.511   1.311  0.00  0.00    +0.074 A 
ATOM     33  C   UNL     1      -1.780   2.582   2.369  0.00  0.00    +0.021 A 
ATOM     34  C   UNL     1      -2.945   3.275   2.158  0.00  0.00    +0.008 A 
ATOM     35  C   UNL     1      -3.166   3.849   0.946  0.00  0.00    +0.046 A 
ATOM     36  S   UNL     1      -1.738   3.444   0.051  0.00  0.00    -0.092 S 
ENDBRANCH  29  32
ENDBRANCH  25  28
ENDBRANCH  20  22
ENDBRANCH   1  20
TORSDOF 8
