REMARK  Name = ZINC36618847
REMARK  11 active torsions:
REMARK  status: ('A' for Active; 'I' for Inactive)
REMARK    1  A    between atoms: C_1  and  C_2
REMARK    2  A    between atoms: C_2  and  C_3
REMARK    3  A    between atoms: C_2  and  C_4
REMARK    4  A    between atoms: C_4  and  C_5
REMARK    5  A    between atoms: C_8  and  C_11
REMARK    6  A    between atoms: C_17  and  C_25
REMARK    7  A    between atoms: C_19  and  C_23
REMARK    8  A    between atoms: C_20  and  N_22
REMARK    9  A    between atoms: C_30  and  O_31
REMARK   10  A    between atoms: O_31  and  C_32
REMARK   11  A    between atoms: C_32  and  C_34
REMARK                            x       y       z     vdW  Elec       q    Type
REMARK                         _______ _______ _______ _____ _____    ______ ____
ROOT
ATOM      1  C   UNL     1      -1.569   0.942   5.406  0.00  0.00    +0.084 C 
ATOM      2  N   UNL     1      -1.163   2.025   6.012  0.00  0.00    -0.150 NA
ATOM      3  N   UNL     1      -1.834   2.240   7.216  0.00  0.00    -0.115 NA
ATOM      4  C   UNL     1      -2.740   1.354   7.428  0.00  0.00    +0.227 C 
ATOM      5  C   UNL     1      -2.615   0.326   6.306  0.00  0.00    +0.140 C 
ATOM      6  C   UNL     1      -3.983   0.293   5.613  0.00  0.00    +0.086 C 
ATOM      7  C   UNL     1      -5.065   0.335   6.658  0.00  0.00    +0.095 C 
ATOM      8  C   UNL     1      -4.889   0.786   7.917  0.00  0.00    +0.200 C 
ATOM      9  O   UNL     1      -3.691   1.235   8.380  0.00  0.00    -0.425 OA
ENDROOT
BRANCH   1  13
ATOM     10  C   UNL     1      -0.237  -0.538   1.661  0.00  0.00    -0.047 A 
ATOM     11  C   UNL     1      -0.751  -1.412   2.602  0.00  0.00    +0.004 A 
ATOM     12  C   UNL     1      -1.186  -0.939   3.822  0.00  0.00    +0.010 A 
ATOM     13  C   UNL     1      -1.106   0.428   4.106  0.00  0.00    -0.001 A 
ATOM     14  C   UNL     1      -0.585   1.305   3.150  0.00  0.00    +0.010 A 
ATOM     15  C   UNL     1      -0.149   0.815   1.936  0.00  0.00    +0.004 A 
BRANCH  10  16
ATOM     16  C   UNL     1       0.237  -1.064   0.330  0.00  0.00    +0.038 C 
BRANCH  16  18
ATOM     17  C   UNL     1       1.885  -2.603   1.405  0.00  0.00    +0.007 C 
ATOM     18  C   UNL     1       1.717  -1.438   0.427  0.00  0.00    -0.013 C 
ATOM     19  C   UNL     1       2.229  -1.854  -0.954  0.00  0.00    +0.007 C 
ENDBRANCH  16  18
ENDBRANCH  10  16
ENDBRANCH   1  13
BRANCH   6  20
ATOM     20  C   UNL     1      -4.108  -0.973   4.805  0.00  0.00    +0.004 A 
ATOM     21  C   UNL     1      -4.028  -2.203   5.430  0.00  0.00    +0.008 A 
ATOM     22  C   UNL     1      -4.142  -3.365   4.690  0.00  0.00    +0.001 A 
ATOM     23  C   UNL     1      -4.337  -3.300   3.322  0.00  0.00    +0.004 A 
ATOM     24  C   UNL     1      -4.418  -2.073   2.693  0.00  0.00    +0.047 A 
ATOM     25  C   UNL     1      -4.310  -0.905   3.434  0.00  0.00    +0.136 A 
BRANCH  25  26
ATOM     26  O   UNL     1      -4.394   0.303   2.818  0.00  0.00    -0.420 OA
BRANCH  26  27
ATOM     27  C   UNL     1      -5.599   0.908   2.774  0.00  0.00    +0.380 C 
ATOM     28  O   UNL     1      -6.564   0.381   3.294  0.00  0.00    -0.241 OA
BRANCH  27  29
ATOM     29  C   UNL     1      -5.745   2.201   2.100  0.00  0.00    +0.212 A 
ATOM     30  C   UNL     1      -6.901   2.921   1.988  0.00  0.00    +0.056 A 
ATOM     31  C   UNL     1      -6.582   4.085   1.271  0.00  0.00    +0.042 A 
ATOM     32  C   UNL     1      -5.263   4.025   0.980  0.00  0.00    +0.196 A 
ATOM     33  O   UNL     1      -4.761   2.891   1.487  0.00  0.00    -0.456 OA
ENDBRANCH  27  29
ENDBRANCH  26  27
ENDBRANCH  25  26
ENDBRANCH   6  20
BRANCH   8  34
ATOM     34  N   UNL     1      -5.965   0.788   8.771  0.00  0.00    -0.328 N 
ATOM     35  H   UNL     1      -6.828   0.469   8.464  0.00  0.00    +0.145 HD
ATOM     36  H   UNL     1      -5.861   1.108   9.680  0.00  0.00    +0.145 HD
ENDBRANCH   8  34
BRANCH   7  37
ATOM     37  C   UNL     1      -6.367  -0.136   6.292  0.00  0.00    +0.100 C 
ATOM     38  N   UNL     1      -7.399  -0.509   6.002  0.00  0.00    -0.191 NA
ENDBRANCH   7  37
TORSDOF 9
