REMARK  Name = ZINC17091526
REMARK  5 active torsions:
REMARK  status: ('A' for Active; 'I' for Inactive)
REMARK    1  A    between atoms: C_4  and  N_7
REMARK    2  A    between atoms: C_8  and  C_10
REMARK    3  A    between atoms: C_14  and  N_15
REMARK    4  A    between atoms: C_16  and  C_18
REMARK    5  A    between atoms: C_24  and  C_26
REMARK                            x       y       z     vdW  Elec       q    Type
REMARK                         _______ _______ _______ _____ _____    ______ ____
ROOT
ATOM      1  C   UNL     1      -1.258  -0.754   0.010  0.00  0.00    +0.069 A 
ATOM      2  C   UNL     1      -1.897  -1.149   1.265  0.00  0.00    -0.023 A 
ATOM      3  C   UNL     1      -3.046  -1.834   1.130  0.00  0.00    -0.004 A 
ATOM      4  S   UNL     1      -3.293  -1.961  -0.625  0.00  0.00    -0.077 S 
ATOM      5  C   UNL     1      -1.888  -1.110  -1.170  0.00  0.00    +0.084 A 
ATOM      6  C   UNL     1      -3.641  -2.207   2.461  0.00  0.00    +0.043 C 
ATOM      7  C   UNL     1      -2.482  -2.034   3.467  0.00  0.00    +0.010 C 
ATOM      8  C   UNL     1      -1.603  -0.985   2.757  0.00  0.00    +0.037 C 
ENDROOT
BRANCH   1  10
ATOM      9  N   UNL     1      -0.016   1.344   0.009  0.00  0.00    -0.308 N 
ATOM     10  C   UNL     1       0.002  -0.004   0.002  0.00  0.00    +0.247 C 
ATOM     11  O   UNL     1       1.064  -0.598  -0.011  0.00  0.00    -0.270 OA
ATOM     12  H   UNL     1      -0.976   1.881   0.021  0.00  0.00    +0.149 HD
BRANCH   9  16
ATOM     13  C   UNL     1       2.837   4.409   0.826  0.00  0.00    +0.000 C 
ATOM     14  C   UNL     1       2.320   4.264  -0.607  0.00  0.00    +0.002 C 
ATOM     15  C   UNL     1       1.006   3.481  -0.599  0.00  0.00    +0.022 C 
ATOM     16  C   UNL     1       1.242   2.093   0.001  0.00  0.00    +0.073 C 
ATOM     17  C   UNL     1       1.759   2.239   1.434  0.00  0.00    +0.022 C 
ATOM     18  C   UNL     1       3.073   3.022   1.426  0.00  0.00    +0.002 C 
ENDBRANCH   9  16
ENDBRANCH   1  10
BRANCH   5  19
ATOM     19  N   UNL     1      -1.489  -0.850  -2.472  0.00  0.00    -0.279 N 
ATOM     20  C   UNL     1      -2.240  -1.280  -3.506  0.00  0.00    +0.221 C 
ATOM     21  O   UNL     1      -3.265  -1.895  -3.296  0.00  0.00    -0.275 OA
ATOM     22  H   UNL     1      -0.560  -0.293  -2.662  0.00  0.00    +0.155 HD
BRANCH  20  23
ATOM     23  C   UNL     1      -1.807  -0.998  -4.921  0.00  0.00    +0.089 C 
ATOM     24  C   UNL     1      -0.437  -1.631  -5.171  0.00  0.00    +0.013 C 
ATOM     25  C   UNL     1      -0.528  -3.144  -4.958  0.00  0.00    +0.001 C 
ATOM     26  C   UNL     1      -1.549  -3.736  -5.931  0.00  0.00    +0.001 C 
ATOM     27  C   UNL     1      -2.919  -3.102  -5.681  0.00  0.00    +0.015 C 
ATOM     28  C   UNL     1      -2.828  -1.590  -5.895  0.00  0.00    +0.114 C 
BRANCH  28  29
ATOM     29  C   UNL     1      -4.178  -0.966  -5.648  0.00  0.00    +0.360 C 
ATOM     30  O   UNL     1      -4.309  -0.133  -4.783  0.00  0.00    -0.246 OA
ATOM     31  O   UNL     1      -5.233  -1.335  -6.391  0.00  0.00    -0.246 OA
ENDBRANCH  28  29
ENDBRANCH  20  23
ENDBRANCH   5  19
TORSDOF 5
