REMARK  Name = ZINC40378769
REMARK  4 active torsions:
REMARK  status: ('A' for Active; 'I' for Inactive)
REMARK    1  A    between atoms: C_4  and  N_11
REMARK    2  A    between atoms: C_6  and  S_7
REMARK    3  A    between atoms: S_7  and  N_10
REMARK    4  A    between atoms: C_12  and  C_14
REMARK                            x       y       z     vdW  Elec       q    Type
REMARK                         _______ _______ _______ _____ _____    ______ ____
ROOT
ATOM      1  C   UNL     1      -0.023   1.366   0.040  0.00  0.00    +0.030 A 
ATOM      2  C   UNL     1       1.161   2.081   0.025  0.00  0.00    +0.024 A 
ATOM      3  C   UNL     1       2.371   1.415   0.000  0.00  0.00    +0.062 A 
ATOM      4  C   UNL     1       2.398   0.025  -0.011  0.00  0.00    +0.054 A 
ATOM      5  C   UNL     1       1.207  -0.689   0.004  0.00  0.00    +0.053 A 
ATOM      6  C   UNL     1       0.000  -0.016   0.029  0.00  0.00    +0.107 A 
ATOM      7 CL   UNL     1       3.857   2.313  -0.019  0.00  0.00    -0.082 Cl
ENDROOT
BRANCH   4   8
ATOM      8  N   UNL     1       3.621  -0.653  -0.036  0.00  0.00    -0.280 N 
ATOM      9  C   UNL     1       3.689  -1.902  -0.537  0.00  0.00    +0.249 C 
ATOM     10  O   UNL     1       2.710  -2.402  -1.058  0.00  0.00    -0.270 OA
ATOM     11  H   UNL     1       4.421  -0.224   0.306  0.00  0.00    +0.155 HD
BRANCH   9  12
ATOM     12  C   UNL     1       4.947  -2.661  -0.454  0.00  0.00    +0.044 A 
ATOM     13  C   UNL     1       5.059  -3.998  -0.984  0.00  0.00    +0.020 A 
ATOM     14  C   UNL     1       6.265  -4.585  -0.845  0.00  0.00    +0.046 A 
ATOM     15  S   UNL     1       7.225  -3.340  -0.010  0.00  0.00    -0.104 S 
ATOM     16  C   UNL     1       6.075  -2.126   0.128  0.00  0.00    +0.058 A 
ENDBRANCH   9  12
ENDBRANCH   4   8
BRANCH   6  17
ATOM     17  S   UNL     1      -1.511  -0.922   0.049  0.00  0.00    +0.056 S 
ATOM     18  O   UNL     1      -1.210  -2.203   0.585  0.00  0.00    -0.153 OA
ATOM     19  O   UNL     1      -2.490  -0.067   0.622  0.00  0.00    -0.153 OA
BRANCH  17  20
ATOM     20  N   UNL     1      -1.958  -1.162  -1.528  0.00  0.00    -0.204 NA
ATOM     21  H   UNL     1      -2.466  -1.951  -1.773  0.00  0.00    +0.144 HD
ATOM     22  H   UNL     1      -1.712  -0.513  -2.206  0.00  0.00    +0.144 HD
ENDBRANCH  17  20
ENDBRANCH   6  17
TORSDOF 4
