REMARK  Name = ZINC39666869
REMARK  11 active torsions:
REMARK  status: ('A' for Active; 'I' for Inactive)
REMARK    1  A    between atoms: C_1  and  C_2
REMARK    2  A    between atoms: C_2  and  C_3
REMARK    3  A    between atoms: C_3  and  C_4
REMARK    4  A    between atoms: C_3  and  C_6
REMARK    5  A    between atoms: C_4  and  C_5
REMARK    6  A    between atoms: C_6  and  N_7
REMARK    7  A    between atoms: C_8  and  C_10
REMARK    8  A    between atoms: C_21  and  C_23
REMARK    9  A    between atoms: C_29  and  O_31
REMARK   10  A    between atoms: O_31  and  C_32
REMARK   11  A    between atoms: C_32  and  C_33
REMARK                            x       y       z     vdW  Elec       q    Type
REMARK                         _______ _______ _______ _____ _____    ______ ____
ROOT
ATOM      1  C   UNL     1      -0.648  -4.001   3.699  0.00  0.00    +0.100 C 
ATOM      2  C   UNL     1       0.810  -3.534   3.904  0.00  0.00    +0.121 C 
ATOM      3  N   UNL     1       1.393  -4.524   4.840  0.00  0.00    -0.300 N 
ATOM      4  C   UNL     1       0.830  -5.823   4.399  0.00  0.00    +0.115 C 
ATOM      5  C   UNL     1      -0.631  -5.504   4.024  0.00  0.00    -0.004 C 
ATOM      6  C   UNL     1      -1.050  -6.314   2.801  0.00  0.00    -0.010 C 
ATOM      7  C   UNL     1      -1.082  -7.801   3.165  0.00  0.00    -0.082 C 
ATOM      8  N   UNL     1      -2.027  -8.017   4.267  0.00  0.00    +0.379 N 
ATOM      9  C   UNL     1      -1.566  -7.309   5.468  0.00  0.00    -0.082 C 
ATOM     10  C   UNL     1      -1.555  -5.801   5.201  0.00  0.00    -0.010 C 
ATOM     11  C   UNL     1       2.242  -4.296   5.861  0.00  0.00    +0.219 C 
ATOM     12  O   UNL     1       2.634  -5.220   6.542  0.00  0.00    -0.275 OA
ATOM     13  H   UNL     1      -2.936  -7.669   4.002  0.00  0.00    -0.086 HD
ATOM     14  H   UNL     1      -2.091  -9.004   4.464  0.00  0.00    -0.086 HD
ENDROOT
BRANCH  11  15
ATOM     15  C   UNL     1       2.705  -2.893   6.157  0.00  0.00    +0.078 C 
ATOM     16  C   UNL     1       3.433  -2.328   4.935  0.00  0.00    +0.032 C 
ATOM     17  C   UNL     1       3.872  -0.889   5.227  0.00  0.00    +0.112 C 
ATOM     18  N   UNL     1       4.668  -0.879   6.462  0.00  0.00    -0.267 N 
ATOM     19  C   UNL     1       4.096  -1.480   7.676  0.00  0.00    +0.112 C 
ATOM     20  C   UNL     1       3.655  -2.912   7.356  0.00  0.00    +0.032 C 
ATOM     21  C   UNL     1       5.898  -0.330   6.482  0.00  0.00    +0.403 C 
ATOM     22  O   UNL     1       6.359   0.164   5.472  0.00  0.00    -0.226 OA
BRANCH  21  23
ATOM     23  O   UNL     1       6.616  -0.327   7.621  0.00  0.00    -0.445 OA
BRANCH  23  24
ATOM     24  C   UNL     1       7.912   0.272   7.569  0.00  0.00    +0.269 C 
BRANCH  24  25
ATOM     25  C   UNL     1       8.562   0.182   8.926  0.00  0.00    -0.010 A 
ATOM     26  C   UNL     1       8.378   1.195   9.849  0.00  0.00    +0.007 A 
ATOM     27  C   UNL     1       8.974   1.113  11.094  0.00  0.00    +0.000 A 
ATOM     28  C   UNL     1       9.753   0.017  11.416  0.00  0.00    +0.000 A 
ATOM     29  C   UNL     1       9.935  -0.996  10.493  0.00  0.00    +0.000 A 
ATOM     30  C   UNL     1       9.336  -0.916   9.250  0.00  0.00    +0.007 A 
ENDBRANCH  24  25
ENDBRANCH  23  24
ENDBRANCH  21  23
ENDBRANCH  11  15
BRANCH   1  32
ATOM     31  N   UNL     1      -2.371  -3.543   1.984  0.00  0.00    -0.315 N 
ATOM     32  C   UNL     1      -1.075  -3.777   2.271  0.00  0.00    +0.218 C 
ATOM     33  O   UNL     1      -0.253  -3.808   1.381  0.00  0.00    -0.275 OA
ATOM     34  H   UNL     1      -3.029  -3.518   2.696  0.00  0.00    +0.149 HD
BRANCH  31  35
ATOM     35  C   UNL     1      -2.786  -3.326   0.596  0.00  0.00    +0.107 C 
BRANCH  35  36
ATOM     36  C   UNL     1      -4.296  -3.084   0.547  0.00  0.00    +0.006 C 
BRANCH  36  38
ATOM     37  C   UNL     1      -6.147  -1.614   1.357  0.00  0.00    +0.004 C 
ATOM     38  C   UNL     1      -4.628  -1.782   1.277  0.00  0.00    +0.002 C 
ENDBRANCH  36  38
BRANCH  36  39
ATOM     39  C   UNL     1      -4.749  -2.982  -0.911  0.00  0.00    +0.002 C 
ATOM     40  C   UNL     1      -4.543  -4.329  -1.605  0.00  0.00    +0.004 C 
ENDBRANCH  36  39
ENDBRANCH  35  36
ENDBRANCH  31  35
ENDBRANCH   1  32
TORSDOF 9
