REMARK  Name = ZINC22510573
REMARK  12 active torsions:
REMARK  status: ('A' for Active; 'I' for Inactive)
REMARK    1  A    between atoms: C_1  and  C_2
REMARK    2  A    between atoms: C_5  and  S_8
REMARK    3  A    between atoms: S_8  and  N_11
REMARK    4  A    between atoms: N_11  and  C_12
REMARK    5  A    between atoms: C_15  and  C_19
REMARK    6  A    between atoms: N_21  and  C_22
REMARK    7  A    between atoms: C_22  and  C_24
REMARK    8  A    between atoms: C_22  and  C_25
REMARK    9  A    between atoms: C_28  and  O_33
REMARK   10  A    between atoms: C_29  and  O_31
REMARK   11  A    between atoms: O_31  and  C_32
REMARK   12  A    between atoms: O_33  and  C_34
REMARK                            x       y       z     vdW  Elec       q    Type
REMARK                         _______ _______ _______ _____ _____    ______ ____
ROOT
ATOM      1  C   UNL     1      -6.305  -1.791   1.685  0.00  0.00    +0.093 A 
ATOM      2  C   UNL     1      -5.923  -0.572   1.133  0.00  0.00    +0.029 A 
ATOM      3  C   UNL     1      -4.589  -0.255   1.017  0.00  0.00    +0.015 A 
ATOM      4  C   UNL     1      -3.616  -1.163   1.444  0.00  0.00    +0.038 A 
ATOM      5  C   UNL     1      -4.002  -2.387   1.999  0.00  0.00    +0.035 A 
ATOM      6  C   UNL     1      -5.339  -2.696   2.117  0.00  0.00    +0.066 A 
ATOM      7 CL   UNL     1      -5.820  -4.215   2.806  0.00  0.00    -0.081 Cl
ENDROOT
BRANCH   4   8
ATOM      8  C   UNL     1      -2.185  -0.829   1.316  0.00  0.00    +0.245 C 
ATOM      9  O   UNL     1      -1.340  -1.618   1.692  0.00  0.00    -0.270 OA
ATOM     10  N   UNL     1      -1.814   0.352   0.781  0.00  0.00    -0.305 N 
ATOM     11  H   UNL     1      -2.579   1.065   0.440  0.00  0.00    +0.150 HD
BRANCH  10  12
ATOM     12  C   UNL     1      -0.393   0.684   0.653  0.00  0.00    +0.101 C 
ATOM     13  C   UNL     1       0.155   0.090  -0.646  0.00  0.00    +0.033 C 
BRANCH  12  14
ATOM     14  C   UNL     1      -0.228   2.182   0.630  0.00  0.00    -0.024 A 
ATOM     15  C   UNL     1      -1.125   2.964  -0.073  0.00  0.00    +0.009 A 
ATOM     16  C   UNL     1      -0.981   4.339  -0.093  0.00  0.00    +0.050 A 
ATOM     17  C   UNL     1       0.071   4.935   0.584  0.00  0.00    +0.162 A 
ATOM     18  C   UNL     1       0.978   4.147   1.286  0.00  0.00    +0.162 A 
ATOM     19  C   UNL     1       0.824   2.770   1.307  0.00  0.00    +0.054 A 
BRANCH  18  20
ATOM     20  O   UNL     1       2.012   4.727   1.952  0.00  0.00    -0.491 OA
ATOM     21  C   UNL     1       2.903   3.857   2.652  0.00  0.00    +0.277 C 
ENDBRANCH  18  20
BRANCH  17  22
ATOM     22  O   UNL     1       0.218   6.287   0.560  0.00  0.00    -0.491 OA
ATOM     23  C   UNL     1      -0.750   7.031  -0.181  0.00  0.00    +0.277 C 
ENDBRANCH  17  22
ENDBRANCH  12  14
ENDBRANCH  10  12
ENDBRANCH   4   8
BRANCH   1  24
ATOM     24  N   UNL     1      -7.655  -2.106   1.805  0.00  0.00    -0.096 NA
BRANCH  24  25
ATOM     25  S   UNL     1      -8.727  -1.613   0.643  0.00  0.00    +0.092 S 
ATOM     26  O   UNL     1      -9.980  -2.198   0.973  0.00  0.00    -0.148 OA
ATOM     27  O   UNL     1      -8.555  -0.210   0.501  0.00  0.00    -0.148 OA
BRANCH  25  32
ATOM     28  C   UNL     1      -6.980  -4.103  -4.568  0.00  0.00    +0.044 C 
ATOM     29  C   UNL     1      -7.416  -3.481  -3.266  0.00  0.00    -0.050 A 
ATOM     30  C   UNL     1      -8.301  -4.151  -2.442  0.00  0.00    +0.005 A 
ATOM     31  C   UNL     1      -8.701  -3.581  -1.248  0.00  0.00    +0.029 A 
ATOM     32  C   UNL     1      -8.217  -2.340  -0.878  0.00  0.00    +0.110 A 
ATOM     33  C   UNL     1      -7.336  -1.668  -1.705  0.00  0.00    +0.029 A 
ATOM     34  C   UNL     1      -6.932  -2.240  -2.896  0.00  0.00    +0.005 A 
ENDBRANCH  25  32
ENDBRANCH  24  25
ENDBRANCH   1  24
TORSDOF 8
