REMARK  Name = ZINC10042285
REMARK  12 active torsions:
REMARK  status: ('A' for Active; 'I' for Inactive)
REMARK    1  A    between atoms: C_1  and  C_2
REMARK    2  A    between atoms: C_6  and  C_35
REMARK    3  A    between atoms: C_7  and  N_8
REMARK    4  A    between atoms: C_9  and  C_11
REMARK    5  A    between atoms: C_11  and  S_12
REMARK    6  A    between atoms: S_12  and  C_13
REMARK    7  A    between atoms: C_18  and  N_22
REMARK    8  A    between atoms: C_23  and  C_25
REMARK    9  A    between atoms: C_28  and  O_33
REMARK   10  A    between atoms: C_29  and  O_31
REMARK   11  A    between atoms: O_31  and  C_32
REMARK   12  A    between atoms: O_33  and  C_34
REMARK                            x       y       z     vdW  Elec       q    Type
REMARK                         _______ _______ _______ _____ _____    ______ ____
ROOT
ATOM      1  C   UNL     1      -6.330   6.913  -0.757  0.00  0.00    +0.136 A 
ATOM      2  N   UNL     1      -6.349   5.824  -0.022  0.00  0.00    -0.233 NA
ATOM      3  C   UNL     1      -5.318   4.950   0.006  0.00  0.00    +0.080 A 
ATOM      4  C   UNL     1      -5.212   3.751   0.747  0.00  0.00    +0.031 A 
ATOM      5  C   UNL     1      -4.098   2.974   0.666  0.00  0.00    +0.025 A 
ATOM      6  C   UNL     1      -3.023   3.325  -0.146  0.00  0.00    +0.035 A 
ATOM      7  C   UNL     1      -3.088   4.500  -0.886  0.00  0.00    +0.040 A 
ATOM      8  C   UNL     1      -4.212   5.282  -0.809  0.00  0.00    +0.042 A 
ATOM      9  S   UNL     1      -4.731   6.812  -1.548  0.00  0.00    -0.061 S 
ENDROOT
BRANCH   6  10
ATOM     10  N   UNL     1      -1.887   2.508  -0.212  0.00  0.00    -0.281 N 
ATOM     11  C   UNL     1      -1.194   2.409  -1.364  0.00  0.00    +0.248 C 
ATOM     12  O   UNL     1      -1.595   2.970  -2.365  0.00  0.00    -0.270 OA
ATOM     13  H   UNL     1      -1.600   2.013   0.571  0.00  0.00    +0.155 HD
BRANCH  11  14
ATOM     14  C   UNL     1       0.052   1.620  -1.409  0.00  0.00    +0.041 A 
ATOM     15  C   UNL     1       0.517   0.979  -0.258  0.00  0.00    +0.017 A 
ATOM     16  C   UNL     1       1.684   0.248  -0.301  0.00  0.00    +0.050 A 
ATOM     17  C   UNL     1       2.400   0.144  -1.486  0.00  0.00    +0.162 A 
ATOM     18  C   UNL     1       1.941   0.781  -2.638  0.00  0.00    +0.162 A 
ATOM     19  C   UNL     1       0.772   1.516  -2.602  0.00  0.00    +0.062 A 
BRANCH  18  20
ATOM     20  O   UNL     1       2.644   0.678  -3.798  0.00  0.00    -0.491 OA
ATOM     21  C   UNL     1       2.116   1.356  -4.939  0.00  0.00    +0.277 C 
ENDBRANCH  18  20
BRANCH  17  22
ATOM     22  O   UNL     1       3.549  -0.578  -1.523  0.00  0.00    -0.491 OA
ATOM     23  C   UNL     1       3.961  -1.204  -0.306  0.00  0.00    +0.277 C 
ENDBRANCH  17  22
ENDBRANCH  11  14
ENDBRANCH   6  10
BRANCH   1  24
ATOM     24  S   UNL     1      -7.567   8.157  -0.920  0.00  0.00    -0.089 S 
BRANCH  24  25
ATOM     25  C   UNL     1      -8.828   7.496   0.197  0.00  0.00    +0.172 C 
BRANCH  25  27
ATOM     26  N   UNL     1     -11.085   8.130   0.986  0.00  0.00    -0.284 N 
ATOM     27  C   UNL     1     -10.017   8.422   0.218  0.00  0.00    +0.227 C 
ATOM     28  O   UNL     1     -10.011   9.431  -0.455  0.00  0.00    -0.275 OA
ATOM     29  H   UNL     1     -11.057   7.370   1.587  0.00  0.00    +0.155 HD
BRANCH  26  36
ATOM     30  C   UNL     1     -10.828  10.916   1.510  0.00  0.00    +0.045 C 
ATOM     31  C   UNL     1     -12.155  10.289   1.164  0.00  0.00    -0.029 A 
ATOM     32  C   UNL     1     -13.290  11.070   1.089  0.00  0.00    +0.005 A 
ATOM     33  C   UNL     1     -14.509  10.495   0.778  0.00  0.00    +0.001 A 
ATOM     34  C   UNL     1     -14.593   9.136   0.536  0.00  0.00    +0.005 A 
ATOM     35  C   UNL     1     -13.460   8.349   0.604  0.00  0.00    -0.029 A 
ATOM     36  C   UNL     1     -12.235   8.925   0.916  0.00  0.00    +0.039 A 
ATOM     37  C   UNL     1     -13.553   6.869   0.340  0.00  0.00    +0.045 C 
ENDBRANCH  26  36
ENDBRANCH  25  27
ENDBRANCH  24  25
ENDBRANCH   1  24
TORSDOF 8
