REMARK  Name = ZINC63303182
REMARK  9 active torsions:
REMARK  status: ('A' for Active; 'I' for Inactive)
REMARK    1  A    between atoms: C_1  and  O_2
REMARK    2  A    between atoms: O_2  and  C_3
REMARK    3  A    between atoms: C_9  and  C_12
REMARK    4  A    between atoms: C_12  and  C_13
REMARK    5  A    between atoms: C_13  and  N_14
REMARK    6  A    between atoms: C_15  and  C_17
REMARK    7  A    between atoms: C_17  and  S_18
REMARK    8  A    between atoms: S_18  and  C_19
REMARK    9  A    between atoms: C_30  and  O_31
REMARK                            x       y       z     vdW  Elec       q    Type
REMARK                         _______ _______ _______ _____ _____    ______ ____
ROOT
ATOM      1  N   UNL     1      -0.759  -6.798   1.434  0.00  0.00    -0.314 N 
ATOM      2  C   UNL     1      -0.408  -7.389   2.593  0.00  0.00    +0.223 C 
ATOM      3  O   UNL     1      -0.851  -6.975   3.644  0.00  0.00    -0.275 OA
ATOM      4  H   UNL     1      -0.405  -7.128   0.594  0.00  0.00    +0.149 HD
ENDROOT
BRANCH   1   5
ATOM      5  C   UNL     1      -1.676  -5.655   1.443  0.00  0.00    +0.108 C 
BRANCH   5   6
ATOM      6  C   UNL     1      -1.908  -5.176   0.009  0.00  0.00    +0.052 C 
BRANCH   6  13
ATOM      7  C   UNL     1      -1.200  -0.637   0.010  0.00  0.00    +0.121 A 
ATOM      8  C   UNL     1      -2.375   0.135   0.020  0.00  0.00    +0.047 A 
ATOM      9  C   UNL     1      -3.607  -0.415   0.028  0.00  0.00    +0.029 A 
ATOM     10  C   UNL     1      -3.753  -1.875   0.027  0.00  0.00    +0.043 A 
ATOM     11  N   UNL     1      -4.809  -2.650   0.034  0.00  0.00    -0.380 N 
ATOM     12  C   UNL     1      -4.362  -4.047   0.029  0.00  0.00    +0.144 C 
ATOM     13  C   UNL     1      -2.851  -4.000   0.018  0.00  0.00    -0.040 C 
ATOM     14  C   UNL     1      -2.516  -2.690   0.016  0.00  0.00    +0.002 A 
ATOM     15  C   UNL     1      -1.226  -1.992   0.003  0.00  0.00    +0.055 A 
ATOM     16  H   UNL     1      -5.731  -2.350   0.042  0.00  0.00    +0.160 HD
BRANCH   7  18
ATOM     17  C   UNL     1      -0.017   1.425   0.010  0.00  0.00    +0.277 C 
ATOM     18  O   UNL     1       0.002  -0.004   0.002  0.00  0.00    -0.495 OA
ENDBRANCH   7  18
ENDBRANCH   6  13
ENDBRANCH   5   6
ENDBRANCH   1   5
BRANCH   2  19
ATOM     19  C   UNL     1       0.535  -8.564   2.584  0.00  0.00    +0.165 C 
BRANCH  19  20
ATOM     20  S   UNL     1       0.810  -9.132   4.285  0.00  0.00    -0.139 S 
BRANCH  20  21
ATOM     21  C   UNL     1       1.950 -10.531   4.102  0.00  0.00    +0.132 C 
ATOM     22  C   UNL     1       2.378 -10.997   5.472  0.00  0.00    +0.028 C 
ATOM     23  C   UNL     1       3.569 -11.904   5.440  0.00  0.00    +0.039 C 
ATOM     24  C   UNL     1       3.299 -13.306   4.993  0.00  0.00    -0.022 A 
ATOM     25  C   UNL     1       4.057 -14.296   5.612  0.00  0.00    +0.006 A 
ATOM     26  C   UNL     1       3.910 -15.625   5.282  0.00  0.00    +0.000 A 
ATOM     27  C   UNL     1       2.990 -15.991   4.315  0.00  0.00    +0.002 A 
ATOM     28  C   UNL     1       2.232 -15.028   3.699  0.00  0.00    +0.028 A 
ATOM     29  C   UNL     1       2.368 -13.662   4.030  0.00  0.00    +0.071 A 
ATOM     30  N   UNL     1       1.546 -12.832   3.362  0.00  0.00    -0.216 NA
ATOM     31  C   UNL     1       1.273 -11.608   3.332  0.00  0.00    +0.201 C 
BRANCH  31  32
ATOM     32  O   UNL     1       0.266 -11.231   2.519  0.00  0.00    -0.495 OA
ATOM     33  H   UNL     1      -0.146 -11.962   2.038  0.00  0.00    +0.293 HD
ENDBRANCH  31  32
ENDBRANCH  20  21
ENDBRANCH  19  20
ENDBRANCH   2  19
TORSDOF 8
