REMARK  Name = ZINC40569371
REMARK  8 active torsions:
REMARK  status: ('A' for Active; 'I' for Inactive)
REMARK    1  A    between atoms: C_1  and  C_2
REMARK    2  A    between atoms: C_2  and  C_3
REMARK    3  A    between atoms: C_3  and  C_4
REMARK    4  A    between atoms: N_10  and  C_11
REMARK    5  A    between atoms: C_11  and  C_12
REMARK    6  A    between atoms: C_18  and  C_26
REMARK    7  A    between atoms: C_20  and  C_24
REMARK    8  A    between atoms: C_21  and  N_23
REMARK                            x       y       z     vdW  Elec       q    Type
REMARK                         _______ _______ _______ _____ _____    ______ ____
ROOT
ATOM      1  C   UNL     1       0.890  -2.234  -1.194  0.00  0.00    +0.026 A 
ATOM      2  C   UNL     1       0.098  -3.106  -1.855  0.00  0.00    +0.068 A 
ATOM      3  C   UNL     1       0.328  -4.492  -1.732  0.00  0.00    +0.141 A 
ATOM      4  C   UNL     1       1.364  -4.929  -0.934  0.00  0.00    +0.072 A 
ATOM      5  C   UNL     1       2.160  -3.988  -0.269  0.00  0.00    +0.259 A 
ATOM      6  O   UNL     1       3.082  -4.361   0.440  0.00  0.00    -0.267 OA
ATOM      7  N   UNL     1       1.913  -2.673  -0.415  0.00  0.00    -0.309 N 
ATOM      8  C   UNL     1       1.644  -6.398  -0.774  0.00  0.00    +0.103 C 
ATOM      9  C   UNL     1       0.951  -7.178  -1.857  0.00  0.00    +0.098 C 
ATOM     10  C   UNL     1      -0.045  -6.628  -2.591  0.00  0.00    +0.199 C 
ATOM     11  O   UNL     1      -0.462  -5.366  -2.391  0.00  0.00    -0.441 OA
ENDROOT
BRANCH   8  12
ATOM     12  C   UNL     1       1.140  -6.859   0.569  0.00  0.00    -0.033 A 
ATOM     13  C   UNL     1      -0.201  -6.741   0.882  0.00  0.00    +0.004 A 
ATOM     14  C   UNL     1      -0.664  -7.163   2.115  0.00  0.00    +0.001 A 
ATOM     15  C   UNL     1       0.215  -7.704   3.035  0.00  0.00    +0.015 A 
ATOM     16  C   UNL     1       1.557  -7.822   2.722  0.00  0.00    +0.018 A 
ATOM     17  C   UNL     1       2.019  -7.404   1.486  0.00  0.00    +0.020 A 
ATOM     18 BR   UNL     1       2.760  -8.561   3.980  0.00  0.00    -0.050 Br
ENDBRANCH   8  12
BRANCH  10  19
ATOM     19  N   UNL     1      -0.646  -7.381  -3.568  0.00  0.00    -0.328 N 
ATOM     20  H   UNL     1      -0.356  -8.294  -3.724  0.00  0.00    +0.145 HD
ATOM     21  H   UNL     1      -1.361  -7.002  -4.102  0.00  0.00    +0.145 HD
ENDBRANCH  10  19
BRANCH   9  22
ATOM     22  C   UNL     1       1.353  -8.528  -2.117  0.00  0.00    +0.101 C 
ATOM     23  N   UNL     1       1.671  -9.598  -2.324  0.00  0.00    -0.191 NA
ENDBRANCH   9  22
BRANCH   1  24
ATOM     24  C   UNL     1       0.640  -0.754  -1.329  0.00  0.00    +0.053 C 
BRANCH  24  26
ATOM     25  C   UNL     1      -0.491   1.222  -0.300  0.00  0.00    +0.004 C 
ATOM     26  C   UNL     1      -0.315  -0.296  -0.225  0.00  0.00    +0.003 C 
ENDBRANCH  24  26
ENDBRANCH   1  24
BRANCH   7  27
ATOM     27  C   UNL     1       2.757  -1.699   0.282  0.00  0.00    +0.156 C 
BRANCH  27  28
ATOM     28  C   UNL     1       3.898  -1.261  -0.638  0.00  0.00    +0.138 C 
ATOM     29  C   UNL     1       4.838  -0.275   0.101  0.00  0.00    +0.035 C 
ATOM     30  C   UNL     1       6.159  -0.479  -0.689  0.00  0.00    +0.031 C 
ATOM     31  C   UNL     1       6.097  -1.979  -1.050  0.00  0.00    +0.160 C 
ATOM     32  O   UNL     1       4.724  -2.386  -0.979  0.00  0.00    -0.375 OA
ENDBRANCH  27  28
ENDBRANCH   7  27
TORSDOF 7
