REMARK  Name = ZINC35226237
REMARK  10 active torsions:
REMARK  status: ('A' for Active; 'I' for Inactive)
REMARK    1  A    between atoms: C_1  and  C_2
REMARK    2  A    between atoms: C_5  and  N_8
REMARK    3  A    between atoms: C_9  and  C_21
REMARK    4  A    between atoms: C_12  and  S_13
REMARK    5  A    between atoms: S_13  and  C_14
REMARK    6  A    between atoms: C_14  and  C_15
REMARK    7  A    between atoms: C_21  and  C_23
REMARK    8  A    between atoms: C_21  and  N_24
REMARK    9  A    between atoms: N_27  and  C_28
REMARK   10  A    between atoms: C_32  and  C_34
REMARK                            x       y       z     vdW  Elec       q    Type
REMARK                         _______ _______ _______ _____ _____    ______ ____
ROOT
ATOM      1  N   UNL     1       0.054  -4.159  -0.028  0.00  0.00    -0.273 N 
ATOM      2  C   UNL     1      -0.920  -5.008   0.425  0.00  0.00    +0.159 A 
ATOM      3  N   UNL     1      -0.500  -6.224   0.222  0.00  0.00    -0.131 NA
ATOM      4  N   UNL     1       0.663  -6.205  -0.325  0.00  0.00    -0.122 NA
ATOM      5  C   UNL     1       1.051  -4.964  -0.507  0.00  0.00    +0.196 A 
ENDROOT
BRANCH   1  10
ATOM      6  C   UNL     1      -0.036   1.516   0.041  0.00  0.00    +0.044 C 
ATOM      7  C   UNL     1      -0.012   0.010   0.023  0.00  0.00    -0.050 A 
ATOM      8  C   UNL     1      -0.011  -0.666  -1.184  0.00  0.00    +0.005 A 
ATOM      9  C   UNL     1       0.011  -2.047  -1.204  0.00  0.00    +0.026 A 
ATOM     10  C   UNL     1       0.032  -2.756  -0.011  0.00  0.00    +0.050 A 
ATOM     11  C   UNL     1       0.031  -2.076   1.199  0.00  0.00    +0.026 A 
ATOM     12  C   UNL     1       0.014  -0.695   1.212  0.00  0.00    +0.005 A 
ENDBRANCH   1  10
BRANCH   2  13
ATOM     13  C   UNL     1      -2.234  -4.609   1.046  0.00  0.00    +0.140 C 
ATOM     14  C   UNL     1      -2.176  -4.840   2.557  0.00  0.00    +0.036 C 
BRANCH  13  15
ATOM     15  N   UNL     1      -3.312  -5.416   0.469  0.00  0.00    -0.290 N 
ATOM     16  C   UNL     1      -4.575  -4.947   0.460  0.00  0.00    +0.304 C 
ATOM     17  O   UNL     1      -4.820  -3.853   0.930  0.00  0.00    -0.252 OA
ATOM     18  N   UNL     1      -5.566  -5.690  -0.071  0.00  0.00    -0.269 N 
ATOM     19  H   UNL     1      -3.116  -6.289   0.094  0.00  0.00    +0.151 HD
ATOM     20  H   UNL     1      -5.361  -6.532  -0.506  0.00  0.00    +0.156 HD
BRANCH  18  21
ATOM     21  C   UNL     1      -6.891  -5.246   0.005  0.00  0.00    +0.036 A 
ATOM     22  C   UNL     1      -7.923  -6.162   0.174  0.00  0.00    +0.023 A 
ATOM     23  C   UNL     1      -9.233  -5.729   0.249  0.00  0.00    +0.003 A 
ATOM     24  C   UNL     1      -9.527  -4.384   0.158  0.00  0.00    +0.019 A 
ATOM     25  C   UNL     1      -8.498  -3.455  -0.011  0.00  0.00    +0.054 A 
ATOM     26  C   UNL     1      -7.175  -3.892  -0.082  0.00  0.00    +0.042 A 
BRANCH  25  27
ATOM     27  C   UNL     1      -8.800  -2.058  -0.107  0.00  0.00    +0.099 C 
ATOM     28  N   UNL     1      -9.039  -0.950  -0.183  0.00  0.00    -0.191 NA
ENDBRANCH  25  27
ENDBRANCH  18  21
ENDBRANCH  13  15
ENDBRANCH   2  13
BRANCH   5  29
ATOM     29  S   UNL     1       2.569  -4.436  -1.229  0.00  0.00    -0.081 S 
BRANCH  29  30
ATOM     30  C   UNL     1       3.421  -5.984  -1.642  0.00  0.00    +0.112 C 
BRANCH  30  31
ATOM     31  C   UNL     1       4.752  -5.671  -2.276  0.00  0.00    -0.037 A 
ATOM     32  C   UNL     1       4.846  -5.518  -3.646  0.00  0.00    +0.004 A 
ATOM     33  C   UNL     1       6.067  -5.231  -4.228  0.00  0.00    +0.000 A 
ATOM     34  C   UNL     1       7.194  -5.098  -3.438  0.00  0.00    +0.000 A 
ATOM     35  C   UNL     1       7.099  -5.250  -2.067  0.00  0.00    +0.000 A 
ATOM     36  C   UNL     1       5.878  -5.533  -1.486  0.00  0.00    +0.004 A 
ENDBRANCH  30  31
ENDBRANCH  29  30
ENDBRANCH   5  29
TORSDOF 8
