REMARK  Name = ZINC43423169
REMARK  2 active torsions:
REMARK  status: ('A' for Active; 'I' for Inactive)
REMARK    1  A    between atoms: C_4  and  C_7
REMARK    2  A    between atoms: C_5  and  N_6
REMARK                            x       y       z     vdW  Elec       q    Type
REMARK                         _______ _______ _______ _____ _____    ______ ____
ROOT
ATOM      1  C   UNL     1       1.623  -1.955  -0.024  0.00  0.00    +0.255 C 
ATOM      2  O   UNL     1       1.322  -0.779  -0.120  0.00  0.00    -0.269 OA
ATOM      3  N   UNL     1       2.920  -2.314   0.063  0.00  0.00    -0.289 N 
ATOM      4  C   UNL     1       3.965  -1.285   0.176  0.00  0.00    +0.136 C 
ATOM      5  C   UNL     1       5.038  -1.604  -0.875  0.00  0.00    +0.179 C 
ATOM      6  O   UNL     1       5.490  -2.940  -0.666  0.00  0.00    -0.373 OA
ATOM      7  C   UNL     1       4.513  -3.962  -0.869  0.00  0.00    +0.139 C 
ATOM      8  C   UNL     1       3.292  -3.723   0.052  0.00  0.00    +0.105 C 
ATOM      9  C   UNL     1       3.794  -4.170   1.440  0.00  0.00    +0.025 C 
ATOM     10  C   UNL     1       4.662  -5.412   1.139  0.00  0.00    +0.004 C 
ATOM     11  C   UNL     1       5.111  -5.287  -0.339  0.00  0.00    +0.033 C 
ENDROOT
BRANCH   1  15
ATOM     12  C   UNL     1      -1.400  -4.074  -0.431  0.00  0.00    +0.031 A 
ATOM     13  C   UNL     1      -0.921  -5.061   0.361  0.00  0.00    +0.048 A 
ATOM     14  S   UNL     1       0.590  -4.512   0.845  0.00  0.00    -0.090 S 
ATOM     15  C   UNL     1       0.613  -2.946  -0.005  0.00  0.00    +0.095 A 
ATOM     16  C   UNL     1      -0.626  -2.950  -0.647  0.00  0.00    +0.044 A 
BRANCH  16  17
ATOM     17  N   UNL     1      -1.052  -1.895  -1.449  0.00  0.00    -0.357 N 
ATOM     18  H   UNL     1      -1.921  -1.933  -1.880  0.00  0.00    +0.142 HD
ATOM     19  H   UNL     1      -0.480  -1.122  -1.578  0.00  0.00    +0.142 HD
ENDBRANCH  16  17
ENDBRANCH   1  15
TORSDOF 2
