REMARK  Name = ZINC15868402
REMARK  8 active torsions:
REMARK  status: ('A' for Active; 'I' for Inactive)
REMARK    1  A    between atoms: C_1  and  C_2
REMARK    2  A    between atoms: C_2  and  C_3
REMARK    3  A    between atoms: C_2  and  N_4
REMARK    4  A    between atoms: C_5  and  C_7
REMARK    5  A    between atoms: C_10  and  C_13
REMARK    6  A    between atoms: N_25  and  C_26
REMARK    7  A    between atoms: C_26  and  C_27
REMARK    8  A    between atoms: C_31  and  C_33
REMARK                            x       y       z     vdW  Elec       q    Type
REMARK                         _______ _______ _______ _____ _____    ______ ____
ROOT
ATOM      1  C   UNL     1      -1.355  -2.077  -0.410  0.00  0.00    +0.194 C 
ATOM      2  N   UNL     1      -1.208  -0.692   0.029  0.00  0.00    -0.322 N 
ATOM      3  C   UNL     1       0.002  -0.004   0.002  0.00  0.00    +0.055 A 
ATOM      4  C   UNL     1      -0.017   1.390   0.010  0.00  0.00    +0.025 A 
ATOM      5  C   UNL     1       1.165   2.100   0.002  0.00  0.00    +0.002 A 
ATOM      6  C   UNL     1       2.378   1.436  -0.007  0.00  0.00    +0.002 A 
ATOM      7  C   UNL     1       2.405   0.053  -0.015  0.00  0.00    +0.030 A 
ATOM      8  C   UNL     1       1.225  -0.661  -0.016  0.00  0.00    +0.126 A 
ATOM      9  S   UNL     1       1.265  -2.428  -0.048  0.00  0.00    +0.065 S 
ATOM     10  O   UNL     1       2.035  -2.846   1.070  0.00  0.00    -0.153 OA
ATOM     11  O   UNL     1       1.572  -2.813  -1.381  0.00  0.00    -0.153 OA
ATOM     12  N   UNL     1      -0.311  -2.893   0.243  0.00  0.00    -0.148 NA
ATOM     13  H   UNL     1      -1.995  -0.227   0.355  0.00  0.00    +0.148 HD
ENDROOT
BRANCH   1  17
ATOM     14  C   UNL     1      -0.898  -2.294  -4.656  0.00  0.00    +0.037 A 
ATOM     15  C   UNL     1      -1.416  -1.141  -4.065  0.00  0.00    +0.013 A 
ATOM     16  C   UNL     1      -1.561  -1.078  -2.694  0.00  0.00    +0.007 A 
ATOM     17  C   UNL     1      -1.194  -2.154  -1.906  0.00  0.00    -0.011 A 
ATOM     18  C   UNL     1      -0.675  -3.298  -2.486  0.00  0.00    +0.007 A 
ATOM     19  C   UNL     1      -0.530  -3.377  -3.855  0.00  0.00    +0.013 A 
BRANCH  14  21
ATOM     20  N   UNL     1      -0.239  -3.484  -6.692  0.00  0.00    -0.309 N 
ATOM     21  C   UNL     1      -0.739  -2.369  -6.124  0.00  0.00    +0.244 C 
ATOM     22  O   UNL     1      -1.060  -1.425  -6.819  0.00  0.00    -0.270 OA
ATOM     23  H   UNL     1       0.017  -4.238  -6.137  0.00  0.00    +0.149 HD
BRANCH  20  25
ATOM     24  C   UNL     1       1.016  -4.567  -8.490  0.00  0.00    +0.027 C 
ATOM     25  C   UNL     1      -0.082  -3.558  -8.146  0.00  0.00    +0.067 C 
ATOM     26  C   UNL     1      -1.401  -4.004  -8.780  0.00  0.00    +0.027 C 
ENDBRANCH  20  25
ENDBRANCH  14  21
ENDBRANCH   1  17
BRANCH  12  27
ATOM     27  C   UNL     1      -0.638  -4.040   1.093  0.00  0.00    +0.147 C 
BRANCH  27  28
ATOM     28  C   UNL     1      -0.828  -5.264   0.235  0.00  0.00    -0.031 A 
ATOM     29  C   UNL     1      -2.082  -5.573  -0.259  0.00  0.00    +0.005 A 
ATOM     30  C   UNL     1      -2.256  -6.693  -1.051  0.00  0.00    +0.001 A 
ATOM     31  C   UNL     1      -1.178  -7.509  -1.340  0.00  0.00    +0.012 A 
ATOM     32  C   UNL     1       0.074  -7.203  -0.842  0.00  0.00    +0.055 A 
ATOM     33  C   UNL     1       0.249  -6.080  -0.054  0.00  0.00    +0.017 A 
BRANCH  32  34
ATOM     34  C   UNL     1       1.249  -8.093  -1.156  0.00  0.00    +0.417 C 
ATOM     35  F   UNL     1       1.359  -9.084  -0.175  0.00  0.00    -0.166 F 
ATOM     36  F   UNL     1       1.059  -8.692  -2.406  0.00  0.00    -0.166 F 
ATOM     37  F   UNL     1       2.420  -7.328  -1.179  0.00  0.00    -0.166 F 
ENDBRANCH  32  34
ENDBRANCH  27  28
ENDBRANCH  12  27
TORSDOF 6
