REMARK  Name = ZINC10853112
REMARK  9 active torsions:
REMARK  status: ('A' for Active; 'I' for Inactive)
REMARK    1  A    between atoms: C_1  and  C_2
REMARK    2  A    between atoms: C_2  and  C_3
REMARK    3  A    between atoms: C_2  and  C_4
REMARK    4  A    between atoms: C_4  and  C_6
REMARK    5  A    between atoms: C_4  and  N_11
REMARK    6  A    between atoms: C_12  and  C_14
REMARK    7  A    between atoms: C_18  and  N_20
REMARK    8  A    between atoms: C_21  and  C_23
REMARK    9  A    between atoms: C_23  and  C_24
REMARK                            x       y       z     vdW  Elec       q    Type
REMARK                         _______ _______ _______ _____ _____    ______ ____
ROOT
ATOM      1  C   UNL     1      -2.203   5.473   4.159  0.00  0.00    +0.038 A 
ATOM      2  C   UNL     1      -2.605   4.506   5.082  0.00  0.00    +0.013 A 
ATOM      3  C   UNL     1      -2.426   3.167   4.801  0.00  0.00    +0.003 A 
ATOM      4  C   UNL     1      -1.854   2.778   3.603  0.00  0.00    +0.023 A 
ATOM      5  C   UNL     1      -1.446   3.733   2.680  0.00  0.00    +0.034 A 
ATOM      6  C   UNL     1      -1.621   5.081   2.954  0.00  0.00    +0.036 A 
ENDROOT
BRANCH   1   8
ATOM      7  N   UNL     1      -2.955   7.285   5.623  0.00  0.00    -0.304 N 
ATOM      8  C   UNL     1      -2.393   6.909   4.458  0.00  0.00    +0.245 C 
ATOM      9  O   UNL     1      -2.042   7.749   3.653  0.00  0.00    -0.270 OA
ATOM     10  H   UNL     1      -3.236   6.615   6.266  0.00  0.00    +0.150 HD
BRANCH   7  11
ATOM     11  C   UNL     1      -3.144   8.708   5.920  0.00  0.00    +0.113 C 
BRANCH  11  12
ATOM     12  C   UNL     1      -4.276   8.871   6.901  0.00  0.00    +0.010 A 
ATOM     13  C   UNL     1      -5.251   9.812   6.930  0.00  0.00    +0.013 A 
ATOM     14  C   UNL     1      -6.198   9.765   7.936  0.00  0.00    +0.008 A 
ATOM     15  C   UNL     1      -6.124   8.779   8.863  0.00  0.00    +0.045 A 
ATOM     16  S   UNL     1      -4.686   7.870   8.321  0.00  0.00    -0.100 S 
ENDBRANCH  11  12
BRANCH  11  18
ATOM     17  C   UNL     1      -1.459   8.447   7.746  0.00  0.00    +0.009 C 
ATOM     18  C   UNL     1      -1.859   9.277   6.525  0.00  0.00    +0.008 C 
ATOM     19  C   UNL     1      -0.739   9.225   5.484  0.00  0.00    +0.009 C 
ENDBRANCH  11  18
ENDBRANCH   7  11
ENDBRANCH   1   8
BRANCH   5  20
ATOM     20  N   UNL     1      -0.863   3.334   1.472  0.00  0.00    -0.285 N 
ATOM     21  C   UNL     1       0.115   4.078   0.917  0.00  0.00    +0.219 C 
ATOM     22  O   UNL     1       0.432   5.135   1.420  0.00  0.00    -0.275 OA
ATOM     23  H   UNL     1      -1.163   2.522   1.034  0.00  0.00    +0.155 HD
BRANCH  21  24
ATOM     24  C   UNL     1       0.814   3.595  -0.327  0.00  0.00    +0.120 C 
BRANCH  24  25
ATOM     25  C   UNL     1       1.872   4.618  -0.746  0.00  0.00    +0.150 C 
ATOM     26  C   UNL     1       2.548   4.216  -2.052  0.00  0.00    +0.252 C 
ATOM     27  O   UNL     1       3.199   3.197  -2.173  0.00  0.00    -0.272 OA
ATOM     28  N   UNL     1       2.366   5.065  -3.029  0.00  0.00    -0.158 NA
ATOM     29  C   UNL     1       1.663   6.181  -2.925  0.00  0.00    +0.150 C 
ATOM     30  S   UNL     1       1.104   6.199  -1.281  0.00  0.00    -0.080 S 
ATOM     31  N   UNL     1       1.429   7.111  -3.894  0.00  0.00    -0.312 N 
ATOM     32  C   UNL     1       0.614   8.300  -3.609  0.00  0.00    +0.107 C 
ATOM     33  C   UNL     1       1.418   9.549  -4.001  0.00  0.00    +0.019 C 
ATOM     34  C   UNL     1       1.862   9.426  -5.460  0.00  0.00    +0.003 C 
ATOM     35  C   UNL     1       2.766   8.202  -5.619  0.00  0.00    +0.019 C 
ATOM     36  C   UNL     1       1.981   6.941  -5.245  0.00  0.00    +0.107 C 
ENDBRANCH  24  25
ENDBRANCH  21  24
ENDBRANCH   5  20
TORSDOF 7
