REMARK  Name = ZINC34210886
REMARK  9 active torsions:
REMARK  status: ('A' for Active; 'I' for Inactive)
REMARK    1  A    between atoms: C_1  and  C_2
REMARK    2  A    between atoms: N_17  and  C_18
REMARK    3  A    between atoms: C_26  and  C_41
REMARK    4  A    between atoms: C_29  and  O_40
REMARK    5  A    between atoms: C_32  and  C_39
REMARK    6  A    between atoms: C_33  and  C_34
REMARK    7  A    between atoms: C_33  and  O_38
REMARK    8  A    between atoms: C_34  and  C_36
REMARK    9  A    between atoms: C_36  and  O_37
REMARK                            x       y       z     vdW  Elec       q    Type
REMARK                         _______ _______ _______ _____ _____    ______ ____
ROOT
ATOM      1  C   UNL     1      -0.203   1.611   0.084  0.00  0.00    +0.011 C 
ATOM      2  C   UNL     1      -0.149   0.085  -0.014  0.00  0.00    +0.026 C 
ATOM      3  C   UNL     1      -1.584  -0.506   0.074  0.00  0.00    +0.011 C 
ATOM      4  C   UNL     1      -1.665  -0.989   1.527  0.00  0.00    +0.002 C 
ATOM      5  C   UNL     1      -2.715  -2.011   1.867  0.00  0.00    -0.001 C 
ATOM      6  C   UNL     1      -4.100  -1.615   1.403  0.00  0.00    +0.008 C 
ATOM      7  C   UNL     1      -4.958  -1.042   2.521  0.00  0.00    +0.031 C 
ATOM      8  C   UNL     1      -4.075  -0.312   3.506  0.00  0.00    -0.061 C 
ATOM      9  C   UNL     1      -4.285   0.986   3.709  0.00  0.00    +0.028 C 
ATOM     10  C   UNL     1      -3.426   1.681   4.678  0.00  0.00    +0.071 A 
ATOM     11  C   UNL     1      -2.260   1.078   5.137  0.00  0.00    -0.001 A 
ATOM     12  C   UNL     1      -1.680   1.929   6.057  0.00  0.00    +0.139 A 
ATOM     13  N   UNL     1      -2.417   3.014   6.145  0.00  0.00    -0.174 NA
ATOM     14  N   UNL     1      -3.507   2.894   5.264  0.00  0.00    -0.231 N 
ATOM     15  C   UNL     1      -1.804  -0.257   4.605  0.00  0.00    +0.050 C 
ATOM     16  C   UNL     1      -3.011  -1.105   4.223  0.00  0.00    -0.001 C 
ATOM     17  C   UNL     1      -2.614  -2.303   3.366  0.00  0.00    +0.031 C 
ATOM     18  C   UNL     1      -1.226  -2.831   3.704  0.00  0.00    +0.119 C 
ATOM     19  C   UNL     1      -0.067  -1.983   3.181  0.00  0.00    +0.041 C 
ATOM     20  C   UNL     1      -0.263  -1.608   1.735  0.00  0.00    +0.009 C 
ATOM     21  C   UNL     1       0.643  -0.496   1.186  0.00  0.00    +0.134 C 
ATOM     22  C   UNL     1      -0.057  -2.844   0.852  0.00  0.00    +0.015 C 
ATOM     23  C   UNL     1      -3.654  -1.631   5.521  0.00  0.00    +0.016 C 
ENDROOT
BRANCH  14  24
ATOM     24  C   UNL     1      -4.494   3.862   5.037  0.00  0.00    +0.084 A 
ATOM     25  C   UNL     1      -4.931   4.682   6.075  0.00  0.00    +0.034 A 
ATOM     26  C   UNL     1      -5.908   5.625   5.802  0.00  0.00    +0.061 A 
ATOM     27  C   UNL     1      -6.414   5.721   4.516  0.00  0.00    +0.213 A 
ATOM     28  N   UNL     1      -5.977   4.928   3.555  0.00  0.00    -0.225 NA
ATOM     29  C   UNL     1      -5.044   4.022   3.773  0.00  0.00    +0.141 A 
ATOM     30  F   UNL     1      -7.367   6.639   4.242  0.00  0.00    -0.184 F 
ENDBRANCH  14  24
BRANCH  21  31
ATOM     31  C   UNL     1       1.950  -1.078   0.722  0.00  0.00    +0.190 C 
ATOM     32  O   UNL     1       2.073  -1.454  -0.419  0.00  0.00    -0.292 OA
BRANCH  31  33
ATOM     33  C   UNL     1       3.107  -1.193   1.681  0.00  0.00    +0.233 C 
BRANCH  33  34
ATOM     34  O   UNL     1       4.228  -1.772   1.010  0.00  0.00    -0.387 OA
ATOM     35  H   UNL     1       5.010  -1.875   1.568  0.00  0.00    +0.210 HD
ENDBRANCH  33  34
ENDBRANCH  31  33
ENDBRANCH  21  31
BRANCH  21  36
ATOM     36  O   UNL     1       0.857   0.504   2.177  0.00  0.00    -0.380 OA
ATOM     37  H   UNL     1       1.377   1.259   1.868  0.00  0.00    +0.211 HD
ENDBRANCH  21  36
BRANCH  18  38
ATOM     38  O   UNL     1      -1.083  -3.023   5.114  0.00  0.00    -0.391 OA
ATOM     39  H   UNL     1      -0.216  -3.358   5.381  0.00  0.00    +0.210 HD
ENDBRANCH  18  38
TORSDOF 6
