REMARK  Name = ZINC34923880
REMARK  10 active torsions:
REMARK  status: ('A' for Active; 'I' for Inactive)
REMARK    1  A    between atoms: C_1  and  C_2
REMARK    2  A    between atoms: C_3  and  C_31
REMARK    3  A    between atoms: C_4  and  C_23
REMARK    4  A    between atoms: C_7  and  C_12
REMARK    5  A    between atoms: C_13  and  N_15
REMARK    6  A    between atoms: N_15  and  C_16
REMARK    7  A    between atoms: C_27  and  O_29
REMARK    8  A    between atoms: O_29  and  C_30
REMARK    9  A    between atoms: C_31  and  O_33
REMARK   10  A    between atoms: O_33  and  C_34
REMARK                            x       y       z     vdW  Elec       q    Type
REMARK                         _______ _______ _______ _____ _____    ______ ____
ROOT
ATOM      1  C   UNL     1      -0.074   1.456  -1.298  0.00  0.00    +0.066 C 
ATOM      2  C   UNL     1      -0.107  -0.046  -1.185  0.00  0.00    +0.053 C 
ATOM      3  C   UNL     1      -1.167  -0.663  -0.549  0.00  0.00    +0.082 C 
ATOM      4  C   UNL     1      -1.155  -2.173  -0.462  0.00  0.00    +0.150 C 
ATOM      5  N   UNL     1       0.005  -2.877  -1.071  0.00  0.00    -0.267 N 
ATOM      6  C   UNL     1       0.224  -4.240  -1.110  0.00  0.00    +0.048 C 
ATOM      7  C   UNL     1       1.349  -4.677  -1.718  0.00  0.00    +0.072 C 
ATOM      8  S   UNL     1       2.104  -3.149  -2.239  0.00  0.00    -0.060 S 
ATOM      9  C   UNL     1       0.950  -2.080  -1.654  0.00  0.00    +0.166 C 
ATOM     10  N   UNL     1       0.876  -0.765  -1.701  0.00  0.00    -0.230 NA
ENDROOT
BRANCH   4  11
ATOM     11  C   UNL     1      -2.408  -2.687  -1.123  0.00  0.00    -0.019 A 
ATOM     12  C   UNL     1      -2.524  -2.657  -2.500  0.00  0.00    +0.006 A 
ATOM     13  C   UNL     1      -3.672  -3.128  -3.110  0.00  0.00    +0.004 A 
ATOM     14  C   UNL     1      -4.707  -3.628  -2.343  0.00  0.00    +0.045 A 
ATOM     15  C   UNL     1      -4.593  -3.659  -0.961  0.00  0.00    +0.120 A 
ATOM     16  C   UNL     1      -3.437  -3.192  -0.352  0.00  0.00    +0.051 A 
BRANCH  15  17
ATOM     17  O   UNL     1      -5.610  -4.150  -0.205  0.00  0.00    -0.495 OA
ATOM     18  C   UNL     1      -6.767  -4.619  -0.900  0.00  0.00    +0.277 C 
ENDBRANCH  15  17
ENDBRANCH   4  11
BRANCH   6  19
ATOM     19  C   UNL     1      -0.733  -5.181  -0.511  0.00  0.00    +0.091 C 
ATOM     20  C   UNL     1      -0.402  -6.479  -0.370  0.00  0.00    +0.243 C 
ATOM     21  O   UNL     1       0.873  -6.882  -0.595  0.00  0.00    -0.270 OA
BRANCH  20  22
ATOM     22  N   UNL     1      -1.363  -7.403   0.004  0.00  0.00    -0.280 N 
ATOM     23  H   UNL     1      -2.250  -7.103   0.258  0.00  0.00    +0.155 HD
BRANCH  22  24
ATOM     24  C   UNL     1      -1.056  -8.767   0.015  0.00  0.00    +0.069 A 
ATOM     25  C   UNL     1       0.243  -9.186   0.271  0.00  0.00    +0.026 A 
ATOM     26  C   UNL     1       0.543 -10.534   0.282  0.00  0.00    +0.002 A 
ATOM     27  C   UNL     1      -0.448 -11.468   0.039  0.00  0.00    +0.003 A 
ATOM     28  C   UNL     1      -1.743 -11.056  -0.216  0.00  0.00    +0.040 A 
ATOM     29  C   UNL     1      -2.052  -9.708  -0.224  0.00  0.00    +0.144 A 
ATOM     30  F   UNL     1      -3.319  -9.306  -0.468  0.00  0.00    -0.204 F 
ENDBRANCH  22  24
ENDBRANCH  20  22
ENDBRANCH   6  19
BRANCH   3  31
ATOM     31  C   UNL     1      -2.218   0.084  -0.003  0.00  0.00    +0.339 C 
ATOM     32  O   UNL     1      -2.207   1.300  -0.084  0.00  0.00    -0.245 OA
BRANCH  31  33
ATOM     33  O   UNL     1      -3.243  -0.543   0.615  0.00  0.00    -0.465 OA
ATOM     34  C   UNL     1      -4.281   0.282   1.149  0.00  0.00    +0.280 C 
ENDBRANCH  31  33
ENDBRANCH   3  31
TORSDOF 7
