REMARK  Name = ZINC16572344
REMARK  8 active torsions:
REMARK  status: ('A' for Active; 'I' for Inactive)
REMARK    1  A    between atoms: C_1  and  C_2
REMARK    2  A    between atoms: C_2  and  C_3
REMARK    3  A    between atoms: C_3  and  C_5
REMARK    4  A    between atoms: C_3  and  C_6
REMARK    5  A    between atoms: C_6  and  C_8
REMARK    6  A    between atoms: C_6  and  N_23
REMARK    7  A    between atoms: C_14  and  C_16
REMARK    8  A    between atoms: N_26  and  C_27
REMARK                            x       y       z     vdW  Elec       q    Type
REMARK                         _______ _______ _______ _____ _____    ______ ____
ROOT
ATOM      1  C   UNL     1       0.265   1.256   0.109  0.00  0.00    +0.163 C 
ENDROOT
BRANCH   1   2
ATOM      2  C   UNL     1      -0.425   1.669  -1.165  0.00  0.00    +0.239 C 
ATOM      3  O   UNL     1      -1.503   2.223  -1.119  0.00  0.00    -0.273 OA
ATOM      4  N   UNL     1       0.155   1.422  -2.356  0.00  0.00    -0.262 N 
ATOM      5  C   UNL     1      -0.481   1.803  -3.531  0.00  0.00    +0.188 A 
ATOM      6  N   UNL     1      -1.649   2.407  -3.711  0.00  0.00    -0.125 NA
ATOM      7  N   UNL     1      -2.084   2.689  -4.861  0.00  0.00    -0.140 NA
ATOM      8  C   UNL     1      -1.404   2.387  -5.961  0.00  0.00    +0.134 A 
ATOM      9  S   UNL     1       0.036   1.611  -5.234  0.00  0.00    -0.030 S 
ATOM     10  H   UNL     1       1.017   0.979  -2.393  0.00  0.00    +0.157 HD
BRANCH   8  11
ATOM     11  C   UNL     1      -1.741   2.624  -7.380  0.00  0.00    +0.009 A 
ATOM     12  C   UNL     1      -0.862   2.220  -8.386  0.00  0.00    +0.012 A 
ATOM     13  C   UNL     1      -1.184   2.439  -9.709  0.00  0.00    +0.016 A 
ATOM     14  C   UNL     1      -2.373   3.067 -10.040  0.00  0.00    +0.018 A 
ATOM     15  C   UNL     1      -3.247   3.475  -9.047  0.00  0.00    +0.016 A 
ATOM     16  C   UNL     1      -2.938   3.257  -7.720  0.00  0.00    +0.012 A 
ATOM     17 BR   UNL     1      -2.804   3.370 -11.856  0.00  0.00    -0.050 Br
ENDBRANCH   8  11
ENDBRANCH   1   2
BRANCH   1  18
ATOM     18  N   UNL     1      -0.563   1.633   1.258  0.00  0.00    -0.288 N 
ATOM     19  C   UNL     1      -0.444   0.965   2.422  0.00  0.00    +0.304 C 
ATOM     20  O   UNL     1       0.350   0.049   2.520  0.00  0.00    -0.252 OA
ATOM     21  N   UNL     1      -1.206   1.311   3.478  0.00  0.00    -0.269 N 
ATOM     22  H   UNL     1      -1.196   2.363   1.180  0.00  0.00    +0.151 HD
ATOM     23  H   UNL     1      -1.783   2.089   3.426  0.00  0.00    +0.156 HD
BRANCH  21  24
ATOM     24  C   UNL     1      -1.165   0.549   4.651  0.00  0.00    +0.037 A 
ATOM     25  C   UNL     1      -0.964  -0.824   4.582  0.00  0.00    +0.023 A 
ATOM     26  C   UNL     1      -0.918  -1.573   5.741  0.00  0.00    +0.005 A 
ATOM     27  C   UNL     1      -1.082  -0.962   6.970  0.00  0.00    +0.038 A 
ATOM     28  C   UNL     1      -1.288   0.406   7.043  0.00  0.00    +0.125 A 
ATOM     29  C   UNL     1      -1.330   1.163   5.885  0.00  0.00    +0.061 A 
ATOM     30  F   UNL     1      -1.450   1.001   8.245  0.00  0.00    -0.205 F 
ENDBRANCH  21  24
ENDBRANCH   1  18
BRANCH   1  31
ATOM     31  C   UNL     1       1.621   1.959   0.206  0.00  0.00    +0.015 C 
ATOM     32  C   UNL     1       2.375   1.446   1.434  0.00  0.00    +0.010 C 
BRANCH  31  34
ATOM     33  C   UNL     1       2.759   4.181   0.304  0.00  0.00    +0.004 C 
ATOM     34  C   UNL     1       1.405   3.468   0.333  0.00  0.00    +0.002 C 
ENDBRANCH  31  34
ENDBRANCH   1  31
TORSDOF 6
