REMARK  Name = ZINC38884774
REMARK  6 active torsions:
REMARK  status: ('A' for Active; 'I' for Inactive)
REMARK    1  A    between atoms: C_1  and  C_2
REMARK    2  A    between atoms: N_8  and  S_9
REMARK    3  A    between atoms: S_9  and  C_12
REMARK    4  A    between atoms: C_15  and  C_18
REMARK    5  A    between atoms: N_20  and  C_21
REMARK    6  A    between atoms: N_33  and  C_36
REMARK                            x       y       z     vdW  Elec       q    Type
REMARK                         _______ _______ _______ _____ _____    ______ ____
ROOT
ATOM      1  C   UNL     1      -2.455   0.608   6.850  0.00  0.00    +0.248 C 
ATOM      2  O   UNL     1      -3.383   1.393   6.855  0.00  0.00    -0.270 OA
ATOM      3  N   UNL     1      -2.299  -0.258   7.871  0.00  0.00    -0.281 N 
ATOM      4  H   UNL     1      -1.522  -0.838   7.900  0.00  0.00    +0.155 HD
ENDROOT
BRANCH   3   5
ATOM      5  C   UNL     1      -3.258  -0.319   8.890  0.00  0.00    +0.035 A 
ATOM      6  C   UNL     1      -3.561  -1.533   9.501  0.00  0.00    +0.025 A 
ATOM      7  C   UNL     1      -4.487  -1.619  10.493  0.00  0.00    +0.031 A 
ATOM      8  C   UNL     1      -5.181  -0.472  10.941  0.00  0.00    +0.080 A 
ATOM      9  C   UNL     1      -4.854   0.747  10.303  0.00  0.00    +0.043 A 
ATOM     10  C   UNL     1      -3.914   0.832   9.308  0.00  0.00    +0.040 A 
ATOM     11  S   UNL     1      -5.915   1.905  11.133  0.00  0.00    -0.052 S 
ATOM     12  C   UNL     1      -6.701   0.741  12.238  0.00  0.00    +0.162 A 
ATOM     13  N   UNL     1      -6.123  -0.392  11.908  0.00  0.00    -0.225 NA
ATOM     14  N   UNL     1      -7.668   0.972  13.195  0.00  0.00    -0.313 N 
ATOM     15  C   UNL     1      -8.203   2.325  13.418  0.00  0.00    +0.088 C 
ATOM     16  C   UNL     1      -9.733   2.252  13.394  0.00  0.00    -0.060 C 
ATOM     17  N   UNL     1     -10.190   1.252  14.367  0.00  0.00    +0.380 N 
ATOM     18  C   UNL     1      -9.725  -0.083  13.968  0.00  0.00    -0.060 C 
ATOM     19  C   UNL     1      -8.198  -0.127  14.017  0.00  0.00    +0.088 C 
ATOM     20  C   UNL     1     -11.658   1.260  14.422  0.00  0.00    -0.096 C 
ATOM     21  H   UNL     1      -9.820   1.477  15.278  0.00  0.00    -0.082 HD
ENDBRANCH   3   5
BRANCH   1  25
ATOM     22  C   UNL     1       0.295   0.593   3.613  0.00  0.00    +0.106 A 
ATOM     23  C   UNL     1      -0.760   1.487   3.616  0.00  0.00    +0.029 A 
ATOM     24  C   UNL     1      -1.657   1.497   4.664  0.00  0.00    +0.015 A 
ATOM     25  C   UNL     1      -1.498   0.602   5.723  0.00  0.00    +0.037 A 
ATOM     26  C   UNL     1      -0.431  -0.298   5.714  0.00  0.00    +0.015 A 
ATOM     27  C   UNL     1       0.456  -0.301   4.657  0.00  0.00    +0.029 A 
BRANCH  22  28
ATOM     28  S   UNL     1       1.436   0.586   2.270  0.00  0.00    +0.061 S 
ATOM     29  O   UNL     1       2.642   0.021   2.765  0.00  0.00    -0.153 OA
ATOM     30  O   UNL     1       1.384   1.881   1.687  0.00  0.00    -0.153 OA
BRANCH  28  37
ATOM     31  C   UNL     1      -0.378   1.476   0.287  0.00  0.00    +0.026 C 
ATOM     32  C   UNL     1      -0.155  -0.033   0.157  0.00  0.00    +0.077 C 
ATOM     33  C   UNL     1       0.350  -0.358  -1.252  0.00  0.00    +0.020 C 
ATOM     34  C   UNL     1       0.702  -1.845  -1.333  0.00  0.00    +0.003 C 
ATOM     35  C   UNL     1       1.818  -2.162  -0.335  0.00  0.00    +0.017 C 
ATOM     36  C   UNL     1       1.329  -1.857   1.085  0.00  0.00    +0.110 C 
ATOM     37  N   UNL     1       0.850  -0.469   1.135  0.00  0.00    -0.174 NA
ENDBRANCH  28  37
ENDBRANCH  22  28
ENDBRANCH   1  25
TORSDOF 4
