REMARK  Name = ZINC21352022
REMARK  8 active torsions:
REMARK  status: ('A' for Active; 'I' for Inactive)
REMARK    1  A    between atoms: C_1  and  C_2
REMARK    2  A    between atoms: C_7  and  O_8
REMARK    3  A    between atoms: O_8  and  C_9
REMARK    4  A    between atoms: C_9  and  C_11
REMARK    5  A    between atoms: C_9  and  C_12
REMARK    6  A    between atoms: N_14  and  C_15
REMARK    7  A    between atoms: C_18  and  S_21
REMARK    8  A    between atoms: S_21  and  N_24
REMARK                            x       y       z     vdW  Elec       q    Type
REMARK                         _______ _______ _______ _____ _____    ______ ____
ROOT
ATOM      1  C   UNL     1       2.306   1.626  -0.459  0.00  0.00    +0.034 A 
ATOM      2  C   UNL     1       1.164   2.398  -0.632  0.00  0.00    +0.025 A 
ATOM      3  C   UNL     1      -0.058   1.786  -0.828  0.00  0.00    +0.031 A 
ATOM      4  C   UNL     1      -0.146   0.406  -0.852  0.00  0.00    +0.113 A 
ATOM      5  C   UNL     1       0.989  -0.365  -0.680  0.00  0.00    +0.031 A 
ATOM      6  C   UNL     1       2.214   0.241  -0.484  0.00  0.00    +0.025 A 
ENDROOT
BRANCH   1   9
ATOM      7  C   UNL     1       4.668   1.669  -0.739  0.00  0.00    +0.258 C 
ATOM      8  O   UNL     1       4.595   0.667  -1.417  0.00  0.00    -0.271 OA
ATOM      9  N   UNL     1       3.546   2.244  -0.261  0.00  0.00    -0.282 N 
ATOM     10  H   UNL     1       3.605   3.197   0.284  0.00  0.00    +0.155 HD
BRANCH   7  11
ATOM     11  C   UNL     1       6.014   2.273  -0.428  0.00  0.00    +0.256 C 
ATOM     12  C   UNL     1       6.069   3.702  -0.973  0.00  0.00    +0.062 C 
BRANCH  11  13
ATOM     13  O   UNL     1       7.040   1.490  -1.041  0.00  0.00    -0.480 OA
BRANCH  13  20
ATOM     14  C   UNL     1       9.022  -0.226  -2.091  0.00  0.00    +0.047 C 
ATOM     15  C   UNL     1       9.290   0.723  -0.951  0.00  0.00    -0.007 A 
ATOM     16  C   UNL     1      10.546   0.778  -0.378  0.00  0.00    +0.027 A 
ATOM     17  C   UNL     1      10.792   1.649   0.668  0.00  0.00    +0.041 A 
ATOM     18  C   UNL     1       9.781   2.468   1.142  0.00  0.00    +0.023 A 
ATOM     19  C   UNL     1       8.526   2.419   0.568  0.00  0.00    +0.047 A 
ATOM     20  C   UNL     1       8.276   1.542  -0.478  0.00  0.00    +0.125 A 
ATOM     21 CL   UNL     1      12.370   1.717   1.387  0.00  0.00    -0.084 Cl
ENDBRANCH  13  20
ENDBRANCH  11  13
ENDBRANCH   7  11
ENDBRANCH   1   9
BRANCH   4  22
ATOM     22  S   UNL     1      -1.708  -0.371  -1.102  0.00  0.00    +0.100 S 
ATOM     23  O   UNL     1      -1.609  -1.672  -0.539  0.00  0.00    -0.146 OA
ATOM     24  O   UNL     1      -2.697   0.563  -0.692  0.00  0.00    -0.146 OA
BRANCH  22  25
ATOM     25  N   UNL     1      -1.897  -0.575  -2.735  0.00  0.00    -0.118 NA
ATOM     26  C   UNL     1      -2.970  -1.129  -3.197  0.00  0.00    +0.117 C 
ATOM     27  C   UNL     1      -4.022  -1.580  -2.310  0.00  0.00    +0.073 C 
ATOM     28  C   UNL     1      -4.405  -3.049  -2.544  0.00  0.00    +0.008 C 
ATOM     29  C   UNL     1      -5.282  -3.073  -3.764  0.00  0.00    +0.002 C 
ATOM     30  C   UNL     1      -4.501  -3.386  -5.065  0.00  0.00    +0.019 C 
ATOM     31  C   UNL     1      -3.144  -2.662  -5.064  0.00  0.00    +0.102 C 
ATOM     32  N   UNL     1      -3.158  -1.308  -4.576  0.00  0.00    -0.331 N 
ATOM     33  H   UNL     1      -3.311  -0.473  -5.276  0.00  0.00    +0.147 HD
ENDBRANCH  22  25
ENDBRANCH   4  22
TORSDOF 6
