REMARK  Name = ZINC34786045
REMARK  8 active torsions:
REMARK  status: ('A' for Active; 'I' for Inactive)
REMARK    1  A    between atoms: C_1  and  O_2
REMARK    2  A    between atoms: O_2  and  C_3
REMARK    3  A    between atoms: C_6  and  C_9
REMARK    4  A    between atoms: C_10  and  N_25
REMARK    5  A    between atoms: C_11  and  N_24
REMARK    6  A    between atoms: N_12  and  C_14
REMARK    7  A    between atoms: C_17  and  C_20
REMARK    8  A    between atoms: N_31  and  C_34
REMARK                            x       y       z     vdW  Elec       q    Type
REMARK                         _______ _______ _______ _____ _____    ______ ____
ROOT
ATOM      1  C   UNL     1       2.920  -2.874   3.970  0.00  0.00    +0.116 A 
ATOM      2  C   UNL     1       2.064  -3.698   4.729  0.00  0.00    +0.103 A 
ATOM      3  C   UNL     1       2.531  -3.714   6.009  0.00  0.00    +0.142 A 
ATOM      4  N   UNL     1       3.643  -2.925   6.052  0.00  0.00    -0.216 N 
ATOM      5  N   UNL     1       3.866  -2.419   4.766  0.00  0.00    -0.163 NA
ENDROOT
BRANCH   2   6
ATOM      6  N   UNL     1       0.928  -4.384   4.249  0.00  0.00    -0.265 N 
ATOM      7  C   UNL     1       0.136  -3.809   3.322  0.00  0.00    +0.306 C 
ATOM      8  O   UNL     1       0.336  -2.660   2.979  0.00  0.00    -0.252 OA
ATOM      9  N   UNL     1      -0.879  -4.508   2.776  0.00  0.00    -0.289 N 
ATOM     10  C   UNL     1      -1.209  -5.860   3.253  0.00  0.00    +0.091 C 
ATOM     11  C   UNL     1      -1.301  -6.794   2.042  0.00  0.00    -0.059 C 
ATOM     12  N   UNL     1      -2.256  -6.244   1.072  0.00  0.00    +0.384 N 
ATOM     13  C   UNL     1      -1.756  -4.965   0.549  0.00  0.00    -0.059 C 
ATOM     14  C   UNL     1      -1.691  -3.939   1.690  0.00  0.00    +0.091 C 
ATOM     15  H   UNL     1       0.717  -5.268   4.586  0.00  0.00    +0.157 HD
ATOM     16  H   UNL     1      -3.145  -6.096   1.524  0.00  0.00    -0.081 HD
BRANCH  12  17
ATOM     17  C   UNL     1      -2.426  -7.192  -0.037  0.00  0.00    -0.068 C 
ATOM     18  C   UNL     1      -3.480  -6.660  -1.030  0.00  0.00    -0.015 C 
ATOM     19  C   UNL     1      -4.240  -7.928  -1.492  0.00  0.00    -0.002 C 
ATOM     20  C   UNL     1      -4.319  -8.771  -0.195  0.00  0.00    -0.002 C 
ATOM     21  C   UNL     1      -2.959  -8.534   0.494  0.00  0.00    -0.015 C 
ENDBRANCH  12  17
ENDBRANCH   2   6
BRANCH   1  25
ATOM     22  C   UNL     1       2.528  -2.019  -0.179  0.00  0.00    +0.120 A 
ATOM     23  C   UNL     1       3.028  -1.052   0.683  0.00  0.00    +0.046 A 
ATOM     24  C   UNL     1       3.157  -1.327   2.029  0.00  0.00    +0.014 A 
ATOM     25  C   UNL     1       2.783  -2.575   2.523  0.00  0.00    +0.004 A 
ATOM     26  C   UNL     1       2.280  -3.543   1.655  0.00  0.00    +0.014 A 
ATOM     27  C   UNL     1       2.150  -3.261   0.311  0.00  0.00    +0.046 A 
BRANCH  22  29
ATOM     28  C   UNL     1       2.810  -0.447  -1.940  0.00  0.00    +0.277 C 
ATOM     29  O   UNL     1       2.402  -1.745  -1.504  0.00  0.00    -0.495 OA
ENDBRANCH  22  29
ENDBRANCH   1  25
BRANCH   4  30
ATOM     30  C   UNL     1       4.427  -2.671   7.184  0.00  0.00    +0.068 A 
ATOM     31  C   UNL     1       3.833  -2.578   8.436  0.00  0.00    +0.028 A 
ATOM     32  C   UNL     1       4.609  -2.327   9.550  0.00  0.00    +0.014 A 
ATOM     33  C   UNL     1       5.977  -2.168   9.421  0.00  0.00    +0.055 A 
ATOM     34  C   UNL     1       6.572  -2.260   8.176  0.00  0.00    +0.014 A 
ATOM     35  C   UNL     1       5.802  -2.517   7.058  0.00  0.00    +0.028 A 
BRANCH  33  36
ATOM     36  C   UNL     1       6.821  -1.893  10.639  0.00  0.00    +0.417 C 
ATOM     37  F   UNL     1       7.249  -3.105  11.192  0.00  0.00    -0.166 F 
ATOM     38  F   UNL     1       7.934  -1.129  10.272  0.00  0.00    -0.166 F 
ATOM     39  F   UNL     1       6.063  -1.192  11.582  0.00  0.00    -0.166 F 
ENDBRANCH  33  36
ENDBRANCH   4  30
BRANCH   3  40
ATOM     40  N   UNL     1       1.972  -4.410   7.081  0.00  0.00    -0.342 N 
ATOM     41  H   UNL     1       1.206  -4.988   6.938  0.00  0.00    +0.144 HD
ATOM     42  H   UNL     1       2.349  -4.316   7.970  0.00  0.00    +0.144 HD
ENDBRANCH   3  40
TORSDOF 7
