REMARK  Name = ZINC19353459
REMARK  8 active torsions:
REMARK  status: ('A' for Active; 'I' for Inactive)
REMARK    1  A    between atoms: C_1  and  C_2
REMARK    2  A    between atoms: C_4  and  N_28
REMARK    3  A    between atoms: C_7  and  N_8
REMARK    4  A    between atoms: C_9  and  C_11
REMARK    5  A    between atoms: C_11  and  O_12
REMARK    6  A    between atoms: O_12  and  C_13
REMARK    7  A    between atoms: C_13  and  C_15
REMARK    8  A    between atoms: C_17  and  C_21
REMARK                            x       y       z     vdW  Elec       q    Type
REMARK                         _______ _______ _______ _____ _____    ______ ____
ROOT
ATOM      1  C   UNL     1      -3.636  -0.737   0.453  0.00  0.00    +0.328 C 
ENDROOT
BRANCH   1   3
ATOM      2  N   UNL     1      -1.202  -0.721   0.009  0.00  0.00    -0.282 N 
ATOM      3  C   UNL     1      -2.311  -0.028   0.335  0.00  0.00    +0.255 C 
ATOM      4  O   UNL     1      -2.243   1.167   0.533  0.00  0.00    -0.272 OA
ATOM      5  H   UNL     1      -1.277  -1.788  -0.248  0.00  0.00    +0.155 HD
BRANCH   2  12
ATOM      6  C   UNL     1       1.111  -2.288   0.541  0.00  0.00    +0.046 C 
ATOM      7  C   UNL     1       1.200  -0.811   0.253  0.00  0.00    -0.027 A 
ATOM      8  C   UNL     1       2.429  -0.183   0.242  0.00  0.00    +0.028 A 
ATOM      9  C   UNL     1       2.511   1.178  -0.022  0.00  0.00    +0.030 A 
ATOM     10  C   UNL     1       1.356   1.907  -0.277  0.00  0.00    +0.025 A 
ATOM     11  C   UNL     1       0.127   1.278  -0.266  0.00  0.00    +0.025 A 
ATOM     12  C   UNL     1       0.045  -0.083  -0.001  0.00  0.00    +0.037 A 
BRANCH   9  13
ATOM     13  N   UNL     1       3.756   1.815  -0.034  0.00  0.00    -0.330 N 
ATOM     14  C   UNL     1       4.060   2.367  -1.379  0.00  0.00    +0.105 C 
ATOM     15  C   UNL     1       5.141   3.438  -1.087  0.00  0.00    +0.020 C 
ATOM     16  C   UNL     1       4.674   4.044   0.256  0.00  0.00    +0.020 C 
ATOM     17  C   UNL     1       3.769   2.971   0.889  0.00  0.00    +0.105 C 
ENDBRANCH   9  13
ENDBRANCH   2  12
ENDBRANCH   1   3
BRANCH   1  18
ATOM     18  O   UNL     1      -4.667   0.221   0.811  0.00  0.00    -0.451 OA
BRANCH  18  19
ATOM     19  C   UNL     1      -5.920  -0.255   0.957  0.00  0.00    +0.358 C 
ATOM     20  O   UNL     1      -6.144  -1.438   0.789  0.00  0.00    -0.243 OA
BRANCH  19  21
ATOM     21  C   UNL     1      -7.015   0.657   1.318  0.00  0.00    +0.143 A 
ATOM     22  C   UNL     1      -8.345   0.323   1.498  0.00  0.00    +0.064 A 
ATOM     23  C   UNL     1      -8.988   1.528   1.834  0.00  0.00    +0.093 A 
ATOM     24  N   UNL     1      -8.076   2.479   1.834  0.00  0.00    -0.173 NA
ATOM     25  N   UNL     1      -6.921   2.003   1.538  0.00  0.00    -0.270 N 
ATOM     26  H   UNL     1      -5.948   2.508   1.448  0.00  0.00    +0.189 HD
BRANCH  23  27
ATOM     27  C   UNL     1     -10.432   1.699   2.129  0.00  0.00    +0.002 A 
ATOM     28  C   UNL     1     -11.289   0.601   2.087  0.00  0.00    +0.011 A 
ATOM     29  C   UNL     1     -12.630   0.764   2.365  0.00  0.00    +0.016 A 
ATOM     30  C   UNL     1     -13.127   2.017   2.678  0.00  0.00    +0.018 A 
ATOM     31  C   UNL     1     -12.282   3.112   2.716  0.00  0.00    +0.016 A 
ATOM     32  C   UNL     1     -10.938   2.959   2.443  0.00  0.00    +0.011 A 
ATOM     33 BR   UNL     1     -14.968   2.235   3.052  0.00  0.00    -0.050 Br
ENDBRANCH  23  27
ENDBRANCH  19  21
ENDBRANCH  18  19
ENDBRANCH   1  18
TORSDOF 7
