REMARK  Name = ZINC21225253
REMARK  6 active torsions:
REMARK  status: ('A' for Active; 'I' for Inactive)
REMARK    1  A    between atoms: C_1  and  N_2
REMARK    2  A    between atoms: N_2  and  C_3
REMARK    3  A    between atoms: N_2  and  C_4
REMARK    4  A    between atoms: C_7  and  C_10
REMARK    5  A    between atoms: C_15  and  C_25
REMARK    6  A    between atoms: C_30  and  O_31
REMARK                            x       y       z     vdW  Elec       q    Type
REMARK                         _______ _______ _______ _____ _____    ______ ____
ROOT
ATOM      1  C   UNL     1      -2.745   1.812   0.738  0.00  0.00    +0.032 C 
ATOM      2  C   UNL     1      -1.632   2.525  -0.028  0.00  0.00    +0.059 C 
ATOM      3  C   UNL     1      -0.353   1.708   0.037  0.00  0.00    +0.017 C 
ATOM      4  C   UNL     1      -0.404   0.365   0.084  0.00  0.00    +0.037 C 
ATOM      5  C   UNL     1       0.784  -0.564   0.141  0.00  0.00    +0.139 C 
ATOM      6  N   UNL     1       2.059   0.071  -0.120  0.00  0.00    -0.331 N 
ATOM      7  C   UNL     1       2.567   1.041   0.743  0.00  0.00    +0.049 A 
ATOM      8  C   UNL     1       3.731   0.831   1.465  0.00  0.00    +0.025 A 
ATOM      9  C   UNL     1       4.171   1.805   2.344  0.00  0.00    +0.002 A 
ATOM     10  C   UNL     1       3.455   2.977   2.506  0.00  0.00    +0.002 A 
ATOM     11  C   UNL     1       2.301   3.198   1.772  0.00  0.00    +0.025 A 
ATOM     12  C   UNL     1       1.873   2.234   0.876  0.00  0.00    +0.052 A 
ATOM     13  N   UNL     1       0.791   2.438   0.027  0.00  0.00    -0.316 N 
ATOM     14  C   UNL     1      -1.652  -0.300   0.095  0.00  0.00    +0.163 C 
ATOM     15  O   UNL     1      -1.669  -1.515   0.114  0.00  0.00    -0.292 OA
ATOM     16  C   UNL     1      -2.956   0.441   0.085  0.00  0.00    +0.088 C 
ATOM     17  H   UNL     1       2.641  -0.210  -1.009  0.00  0.00    +0.147 HD
ATOM     18  H   UNL     1       0.912   3.262  -0.692  0.00  0.00    +0.152 HD
ENDROOT
BRANCH   1  22
ATOM     19  C   UNL     1      -6.353   4.093   0.516  0.00  0.00    +0.029 A 
ATOM     20  C   UNL     1      -5.797   3.787   1.752  0.00  0.00    +0.023 A 
ATOM     21  C   UNL     1      -4.631   3.050   1.820  0.00  0.00    +0.006 A 
ATOM     22  C   UNL     1      -4.017   2.616   0.660  0.00  0.00    -0.043 A 
ATOM     23  C   UNL     1      -4.564   2.923  -0.572  0.00  0.00    +0.006 A 
ATOM     24  C   UNL     1      -5.733   3.655  -0.647  0.00  0.00    +0.023 A 
BRANCH  19  26
ATOM     25  C   UNL     1      -8.117   5.404   1.662  0.00  0.00    +0.129 C 
ATOM     26  N   UNL     1      -7.532   4.837   0.444  0.00  0.00    -0.336 N 
ATOM     27  C   UNL     1      -8.184   5.052  -0.850  0.00  0.00    +0.129 C 
ENDBRANCH  19  26
ENDBRANCH   1  22
BRANCH   5  28
ATOM     28  C   UNL     1       0.835  -1.190   1.511  0.00  0.00    +0.019 A 
ATOM     29  C   UNL     1       0.128  -0.625   2.556  0.00  0.00    +0.009 A 
ATOM     30  C   UNL     1       0.173  -1.199   3.813  0.00  0.00    +0.001 A 
ATOM     31  C   UNL     1       0.926  -2.340   4.028  0.00  0.00    +0.004 A 
ATOM     32  C   UNL     1       1.634  -2.908   2.987  0.00  0.00    +0.046 A 
ATOM     33  C   UNL     1       1.586  -2.337   1.724  0.00  0.00    +0.122 A 
BRANCH  33  34
ATOM     34  O   UNL     1       2.277  -2.897   0.697  0.00  0.00    -0.506 OA
ATOM     35  H   UNL     1       2.873  -3.806   0.866  0.00  0.00    +0.292 HD
ENDBRANCH  33  34
ENDBRANCH   5  28
TORSDOF 4
