REMARK  Name = ZINC17397468
REMARK  6 active torsions:
REMARK  status: ('A' for Active; 'I' for Inactive)
REMARK    1  A    between atoms: C_3  and  C_18
REMARK    2  A    between atoms: C_5  and  S_7
REMARK    3  A    between atoms: S_7  and  N_10
REMARK    4  A    between atoms: N_10  and  C_11
REMARK    5  A    between atoms: N_20  and  N_21
REMARK    6  A    between atoms: C_22  and  C_24
REMARK                            x       y       z     vdW  Elec       q    Type
REMARK                         _______ _______ _______ _____ _____    ______ ____
ROOT
ATOM      1  C   UNL     1      -4.596   1.052   0.291  0.00  0.00    +0.003 A 
ATOM      2  C   UNL     1      -5.233   0.175  -0.562  0.00  0.00    +0.013 A 
ATOM      3  C   UNL     1      -4.597  -1.006  -0.947  0.00  0.00    +0.040 A 
ATOM      4  C   UNL     1      -3.319  -1.292  -0.464  0.00  0.00    +0.042 A 
ATOM      5  C   UNL     1      -2.693  -0.406   0.388  0.00  0.00    +0.109 A 
ATOM      6  C   UNL     1      -3.331   0.761   0.769  0.00  0.00    +0.029 A 
ENDROOT
BRANCH   3   7
ATOM      7  C   UNL     1      -5.274  -1.950  -1.861  0.00  0.00    +0.260 C 
ATOM      8  O   UNL     1      -4.717  -2.978  -2.194  0.00  0.00    -0.269 OA
ATOM      9  N   UNL     1      -6.508  -1.672  -2.325  0.00  0.00    -0.230 N 
ATOM     10  H   UNL     1      -6.952  -0.851  -2.059  0.00  0.00    +0.173 HD
BRANCH   9  11
ATOM     11  N   UNL     1      -7.150  -2.566  -3.191  0.00  0.00    -0.230 N 
ATOM     12  C   UNL     1      -8.384  -2.288  -3.655  0.00  0.00    +0.262 C 
ATOM     13  O   UNL     1      -8.941  -1.260  -3.322  0.00  0.00    -0.269 OA
ATOM     14  H   UNL     1      -6.705  -3.387  -3.457  0.00  0.00    +0.173 HD
BRANCH  12  15
ATOM     15  C   UNL     1      -9.060  -3.231  -4.569  0.00  0.00    +0.057 A 
ATOM     16  C   UNL     1      -8.423  -4.413  -4.954  0.00  0.00    +0.016 A 
ATOM     17  C   UNL     1      -9.059  -5.290  -5.806  0.00  0.00    +0.021 A 
ATOM     18  C   UNL     1     -10.328  -5.001  -6.282  0.00  0.00    +0.042 A 
ATOM     19  C   UNL     1     -10.966  -3.832  -5.905  0.00  0.00    +0.040 A 
ATOM     20  C   UNL     1     -10.342  -2.948  -5.047  0.00  0.00    +0.054 A 
ATOM     21 CL   UNL     1     -11.146  -1.485  -4.569  0.00  0.00    -0.083 Cl
ATOM     22 CL   UNL     1     -11.122  -6.111  -7.356  0.00  0.00    -0.083 Cl
ENDBRANCH  12  15
ENDBRANCH   9  11
ENDBRANCH   3   7
BRANCH   5  23
ATOM     23  S   UNL     1      -1.079  -0.765   0.999  0.00  0.00    +0.072 S 
ATOM     24  O   UNL     1      -0.879  -2.161   0.820  0.00  0.00    -0.150 OA
ATOM     25  O   UNL     1      -0.977  -0.138   2.269  0.00  0.00    -0.150 OA
BRANCH  23  26
ATOM     26  N   UNL     1       0.002  -0.001   0.004  0.00  0.00    -0.216 N 
ATOM     27  H   UNL     1       0.591   0.682   0.362  0.00  0.00    +0.174 HD
BRANCH  26  28
ATOM     28  C   UNL     1       0.066  -0.340  -1.350  0.00  0.00    +0.048 A 
ATOM     29  C   UNL     1       0.093  -1.674  -1.733  0.00  0.00    +0.026 A 
ATOM     30  C   UNL     1       0.152  -2.006  -3.072  0.00  0.00    +0.022 A 
ATOM     31  C   UNL     1       0.195  -1.010  -4.032  0.00  0.00    +0.041 A 
ATOM     32  C   UNL     1       0.174   0.320  -3.653  0.00  0.00    +0.022 A 
ATOM     33  C   UNL     1       0.110   0.658  -2.315  0.00  0.00    +0.026 A 
ATOM     34 CL   UNL     1       0.275  -1.431  -5.714  0.00  0.00    -0.084 Cl
ENDBRANCH  26  28
ENDBRANCH  23  26
ENDBRANCH   5  23
TORSDOF 6
