REMARK  Name = ZINC50708256
REMARK  7 active torsions:
REMARK  status: ('A' for Active; 'I' for Inactive)
REMARK    1  A    between atoms: C_1  and  C_2
REMARK    2  A    between atoms: C_4  and  C_8
REMARK    3  A    between atoms: C_5  and  C_7
REMARK    4  A    between atoms: C_8  and  C_10
REMARK    5  A    between atoms: C_8  and  N_11
REMARK    6  A    between atoms: C_12  and  C_14
REMARK    7  A    between atoms: C_16  and  N_21
REMARK                            x       y       z     vdW  Elec       q    Type
REMARK                         _______ _______ _______ _____ _____    ______ ____
ROOT
ATOM      1  N   UNL     1      -3.108  -2.603  -0.582  0.00  0.00    -0.305 N 
ATOM      2  C   UNL     1      -4.061  -3.370  -1.149  0.00  0.00    +0.245 C 
ATOM      3  O   UNL     1      -3.927  -4.577  -1.183  0.00  0.00    -0.270 OA
ATOM      4  H   UNL     1      -3.215  -1.639  -0.555  0.00  0.00    +0.150 HD
ENDROOT
BRANCH   2   5
ATOM      5  C   UNL     1      -5.270  -2.742  -1.730  0.00  0.00    +0.043 A 
ATOM      6  C   UNL     1      -6.270  -3.519  -2.315  0.00  0.00    +0.056 A 
ATOM      7  C   UNL     1      -7.388  -2.888  -2.848  0.00  0.00    +0.119 A 
ATOM      8  N   UNL     1      -7.507  -1.570  -2.803  0.00  0.00    -0.221 NA
ATOM      9  C   UNL     1      -6.581  -0.804  -2.257  0.00  0.00    +0.132 A 
ATOM     10  C   UNL     1      -5.442  -1.353  -1.701  0.00  0.00    +0.053 A 
ATOM     11 CL   UNL     1      -6.801   0.917  -2.232  0.00  0.00    -0.062 Cl
BRANCH   7  12
ATOM     12  N   UNL     1      -8.393  -3.649  -3.435  0.00  0.00    -0.343 N 
ATOM     13  H   UNL     1      -8.311  -4.615  -3.471  0.00  0.00    +0.144 HD
ATOM     14  H   UNL     1      -9.175  -3.214  -3.809  0.00  0.00    +0.144 HD
ENDBRANCH   7  12
ENDBRANCH   2   5
BRANCH   1  15
ATOM     15  C   UNL     1      -1.912  -3.224  -0.008  0.00  0.00    +0.101 C 
ATOM     16  C   UNL     1      -2.206  -3.663   1.428  0.00  0.00    +0.033 C 
BRANCH  15  20
ATOM     17  C   UNL     1      -0.018   1.503   0.010  0.00  0.00    +0.051 C 
ATOM     18  C   UNL     1       0.002  -0.004   0.002  0.00  0.00    -0.013 A 
ATOM     19  C   UNL     1      -1.039  -0.872   0.002  0.00  0.00    +0.016 A 
ATOM     20  C   UNL     1      -0.780  -2.230  -0.007  0.00  0.00    -0.017 A 
ATOM     21  C   UNL     1       0.507  -2.653  -0.016  0.00  0.00    -0.008 A 
ATOM     22  S   UNL     1       1.404  -1.109  -0.018  0.00  0.00    -0.098 S 
ATOM     23  C   UNL     1       1.043  -4.062  -0.027  0.00  0.00    +0.052 C 
ENDBRANCH  15  20
ENDBRANCH   1  15
TORSDOF 4
