REMARK  Name = ZINC35694666
REMARK  14 active torsions:
REMARK  status: ('A' for Active; 'I' for Inactive)
REMARK    1  A    between atoms: C_1  and  C_2
REMARK    2  A    between atoms: C_5  and  N_8
REMARK    3  A    between atoms: C_10  and  C_32
REMARK    4  A    between atoms: N_13  and  C_14
REMARK    5  A    between atoms: C_14  and  C_16
REMARK    6  A    between atoms: C_16  and  N_17
REMARK    7  A    between atoms: N_17  and  C_18
REMARK    8  A    between atoms: C_18  and  C_19
REMARK    9  A    between atoms: C_19  and  N_20
REMARK   10  A    between atoms: N_20  and  C_21
REMARK   11  A    between atoms: N_20  and  C_22
REMARK   12  A    between atoms: C_23  and  C_25
REMARK   13  A    between atoms: C_35  and  O_38
REMARK   14  A    between atoms: O_38  and  C_39
REMARK                            x       y       z     vdW  Elec       q    Type
REMARK                         _______ _______ _______ _____ _____    ______ ____
ROOT
ATOM      1  N   UNL     1       0.835  -2.112   1.210  0.00  0.00    -0.287 N 
ATOM      2  C   UNL     1       1.297  -2.471  -0.041  0.00  0.00    +0.120 A 
ATOM      3  C   UNL     1       1.548  -3.792  -0.029  0.00  0.00    +0.066 A 
ATOM      4  N   UNL     1       1.244  -4.273   1.239  0.00  0.00    -0.326 N 
ATOM      5  C   UNL     1       0.812  -3.227   1.989  0.00  0.00    +0.205 A 
ATOM      6  N   UNL     1       0.429  -3.283   3.264  0.00  0.00    -0.145 NA
ATOM      7  H   UNL     1       1.328  -5.192   1.536  0.00  0.00    +0.169 HD
ENDROOT
BRANCH   1  12
ATOM      8  C   UNL     1      -0.681   3.112   2.825  0.00  0.00    +0.044 C 
ATOM      9  C   UNL     1      -0.278   1.725   2.396  0.00  0.00    -0.050 A 
ATOM     10  C   UNL     1       0.164   1.503   1.105  0.00  0.00    +0.005 A 
ATOM     11  C   UNL     1       0.533   0.233   0.709  0.00  0.00    +0.026 A 
ATOM     12  C   UNL     1       0.462  -0.823   1.609  0.00  0.00    +0.049 A 
ATOM     13  C   UNL     1       0.018  -0.597   2.905  0.00  0.00    +0.026 A 
ATOM     14  C   UNL     1      -0.346   0.677   3.297  0.00  0.00    +0.005 A 
ENDBRANCH   1  12
BRANCH   3  15
ATOM     15  C   UNL     1       2.059  -4.592  -1.164  0.00  0.00    +0.000 A 
ATOM     16  C   UNL     1       2.329  -3.977  -2.388  0.00  0.00    +0.013 A 
ATOM     17  C   UNL     1       2.804  -4.726  -3.443  0.00  0.00    +0.046 A 
ATOM     18  C   UNL     1       3.014  -6.090  -3.291  0.00  0.00    +0.120 A 
ATOM     19  C   UNL     1       2.746  -6.705  -2.076  0.00  0.00    +0.046 A 
ATOM     20  C   UNL     1       2.276  -5.962  -1.013  0.00  0.00    +0.013 A 
BRANCH  18  21
ATOM     21  O   UNL     1       3.483  -6.824  -4.334  0.00  0.00    -0.495 OA
ATOM     22  C   UNL     1       3.676  -8.222  -4.108  0.00  0.00    +0.277 C 
ENDBRANCH  18  21
ENDBRANCH   3  15
BRANCH   6  23
ATOM     23  C   UNL     1       0.454  -4.440   3.915  0.00  0.00    +0.256 C 
ATOM     24  O   UNL     1       0.826  -5.449   3.347  0.00  0.00    -0.272 OA
BRANCH  23  25
ATOM     25  C   UNL     1       0.022  -4.503   5.357  0.00  0.00    +0.205 C 
BRANCH  25  26
ATOM     26  N   UNL     1       0.140  -5.880   5.843  0.00  0.00    -0.290 N 
ATOM     27  C   UNL     1      -0.956  -6.658   5.938  0.00  0.00    +0.247 C 
ATOM     28  O   UNL     1      -0.864  -7.788   6.377  0.00  0.00    -0.270 OA
BRANCH  27  29
ATOM     29  C   UNL     1      -2.271  -6.137   5.510  0.00  0.00    +0.037 A 
ATOM     30  C   UNL     1      -2.343  -5.085   4.595  0.00  0.00    +0.016 A 
ATOM     31  C   UNL     1      -3.572  -4.603   4.199  0.00  0.00    +0.039 A 
ATOM     32  C   UNL     1      -4.735  -5.160   4.708  0.00  0.00    +0.123 A 
ATOM     33  C   UNL     1      -4.669  -6.205   5.617  0.00  0.00    +0.039 A 
ATOM     34  C   UNL     1      -3.445  -6.699   6.015  0.00  0.00    +0.016 A 
ATOM     35  F   UNL     1      -5.937  -4.683   4.317  0.00  0.00    -0.205 F 
ENDBRANCH  27  29
BRANCH  26  36
ATOM     36  C   UNL     1       1.451  -6.412   6.224  0.00  0.00    +0.090 C 
BRANCH  36  37
ATOM     37  C   UNL     1       1.650  -6.247   7.732  0.00  0.00    -0.060 C 
BRANCH  37  38
ATOM     38  N   UNL     1       2.918  -6.871   8.130  0.00  0.00    +0.377 N 
ATOM     39  C   UNL     1       3.183  -6.582   9.546  0.00  0.00    -0.097 C 
ATOM     40  C   UNL     1       2.832  -8.324   7.934  0.00  0.00    -0.097 C 
ATOM     41  H   UNL     1       3.668  -6.499   7.566  0.00  0.00    -0.083 HD
ENDBRANCH  37  38
ENDBRANCH  36  37
ENDBRANCH  26  36
ENDBRANCH  25  26
ENDBRANCH  23  25
ENDBRANCH   6  23
TORSDOF 10
