REMARK  Name = ZINC44016377
REMARK  4 active torsions:
REMARK  status: ('A' for Active; 'I' for Inactive)
REMARK    1  A    between atoms: C_7  and  N_12
REMARK    2  A    between atoms: N_15  and  C_16
REMARK    3  A    between atoms: C_19  and  C_22
REMARK    4  A    between atoms: N_26  and  C_27
REMARK                            x       y       z     vdW  Elec       q    Type
REMARK                         _______ _______ _______ _____ _____    ______ ____
ROOT
ATOM      1  N   UNL     1       0.166  -2.531   0.819  0.00  0.00    -0.292 N 
ATOM      2  C   UNL     1      -1.117  -2.681   0.433  0.00  0.00    +0.304 C 
ATOM      3  O   UNL     1      -1.424  -2.525  -0.733  0.00  0.00    -0.252 OA
ATOM      4  N   UNL     1      -2.059  -3.004   1.341  0.00  0.00    -0.269 N 
ATOM      5  H   UNL     1       0.411  -2.655   1.749  0.00  0.00    +0.151 HD
ATOM      6  H   UNL     1      -1.805  -3.196   2.257  0.00  0.00    +0.156 HD
ENDROOT
BRANCH   1  13
ATOM      7  C   UNL     1       0.011   1.373  -0.600  0.00  0.00    +0.001 A 
ATOM      8  C   UNL     1       1.203   2.066  -0.700  0.00  0.00    +0.004 A 
ATOM      9  C   UNL     1       2.402   1.387  -0.623  0.00  0.00    +0.046 A 
ATOM     10  C   UNL     1       2.416   0.007  -0.445  0.00  0.00    +0.125 A 
ATOM     11  C   UNL     1       1.221  -0.683  -0.349  0.00  0.00    +0.015 A 
ATOM     12  C   UNL     1       0.020   0.003  -0.424  0.00  0.00    +0.009 A 
ATOM     13  C   UNL     1       1.191  -2.180  -0.168  0.00  0.00    +0.111 C 
ATOM     14  C   UNL     1       2.556  -2.667   0.322  0.00  0.00    +0.068 C 
ATOM     15  C   UNL     1       3.639  -2.039  -0.564  0.00  0.00    +0.231 C 
ATOM     16  O   UNL     1       3.616  -0.624  -0.369  0.00  0.00    -0.492 OA
ENDBRANCH   1  13
BRANCH   4  17
ATOM     17  C   UNL     1      -3.403  -3.062   0.962  0.00  0.00    +0.035 A 
ATOM     18  C   UNL     1      -3.747  -3.521  -0.304  0.00  0.00    +0.024 A 
ATOM     19  C   UNL     1      -5.072  -3.580  -0.681  0.00  0.00    +0.013 A 
ATOM     20  C   UNL     1      -6.068  -3.179   0.211  0.00  0.00    +0.021 A 
ATOM     21  C   UNL     1      -5.719  -2.719   1.482  0.00  0.00    +0.013 A 
ATOM     22  C   UNL     1      -4.393  -2.667   1.854  0.00  0.00    +0.024 A 
BRANCH  20  23
ATOM     23  C   UNL     1      -7.490  -3.240  -0.191  0.00  0.00    +0.182 A 
ATOM     24  N   UNL     1      -7.954  -3.325  -1.420  0.00  0.00    -0.108 NA
ATOM     25  N   UNL     1      -9.237  -3.359  -1.415  0.00  0.00    -0.023 NA
ATOM     26  N   UNL     1      -9.684  -3.301  -0.207  0.00  0.00    -0.043 NA
ATOM     27  N   UNL     1      -8.563  -3.226   0.639  0.00  0.00    -0.222 N 
BRANCH  27  28
ATOM     28  C   UNL     1      -8.557  -3.147   2.101  0.00  0.00    +0.111 C 
ATOM     29  C   UNL     1      -9.908  -3.186   2.817  0.00  0.00    +0.029 C 
ATOM     30  C   UNL     1      -9.119  -1.877   2.743  0.00  0.00    +0.029 C 
ENDBRANCH  27  28
ENDBRANCH  20  23
ENDBRANCH   4  17
TORSDOF 4
