REMARK  Name = ZINC35270152
REMARK  5 active torsions:
REMARK  status: ('A' for Active; 'I' for Inactive)
REMARK    1  A    between atoms: C_3  and  C_6
REMARK    2  A    between atoms: C_15  and  O_32
REMARK    3  A    between atoms: C_17  and  O_31
REMARK    4  A    between atoms: C_19  and  O_22
REMARK    5  A    between atoms: O_22  and  C_23
REMARK                            x       y       z     vdW  Elec       q    Type
REMARK                         _______ _______ _______ _____ _____    ______ ____
ROOT
ATOM      1  C   UNL     1       3.599   0.625  -0.029  0.00  0.00    +0.319 C 
ATOM      2  O   UNL     1       4.100   1.287   1.133  0.00  0.00    -0.342 OA
ATOM      3  C   UNL     1       3.733   0.666   2.372  0.00  0.00    +0.197 C 
ATOM      4  C   UNL     1       4.225  -0.782   2.348  0.00  0.00    +0.179 C 
ATOM      5  C   UNL     1       3.644  -1.472   1.107  0.00  0.00    +0.184 C 
ATOM      6  O   UNL     1       4.042  -0.737  -0.047  0.00  0.00    -0.336 OA
ATOM      7  C   UNL     1       4.167  -2.907   1.057  0.00  0.00    +0.180 C 
ATOM      8  C   UNL     1       3.754  -3.620   2.350  0.00  0.00    +0.214 C 
ATOM      9  C   UNL     1       4.276  -2.839   3.558  0.00  0.00    +0.339 C 
ATOM     10  O   UNL     1       3.800  -1.491   3.510  0.00  0.00    -0.331 OA
ENDROOT
BRANCH   1  13
ATOM     11  C   UNL     1      -0.016   1.341   0.009  0.00  0.00    +0.041 A 
ATOM     12  C   UNL     1       1.331   1.769  -0.001  0.00  0.00    +0.050 A 
ATOM     13  C   UNL     1       2.092   0.660  -0.014  0.00  0.00    +0.161 A 
ATOM     14  O   UNL     1       1.282  -0.411  -0.012  0.00  0.00    -0.463 OA
ATOM     15  C   UNL     1       0.002  -0.004   0.002  0.00  0.00    +0.195 A 
ENDBRANCH   1  13
BRANCH   8  16
ATOM     16  O   UNL     1       2.329  -3.698   2.416  0.00  0.00    -0.383 OA
ATOM     17  H   UNL     1       1.995  -4.138   3.210  0.00  0.00    +0.210 HD
ENDBRANCH   8  16
BRANCH   7  18
ATOM     18  O   UNL     1       3.605  -3.584  -0.070  0.00  0.00    -0.386 OA
ATOM     19  H   UNL     1       3.895  -4.502  -0.162  0.00  0.00    +0.210 HD
ENDBRANCH   7  18
BRANCH   9  20
ATOM     20  O   UNL     1       3.816  -3.460   4.760  0.00  0.00    -0.460 OA
BRANCH  20  21
ATOM     21  C   UNL     1       4.277  -2.952   5.933  0.00  0.00    +0.138 A 
ATOM     22  C   UNL     1       5.150  -1.874   5.927  0.00  0.00    +0.048 A 
ATOM     23  C   UNL     1       5.617  -1.358   7.121  0.00  0.00    +0.019 A 
ATOM     24  C   UNL     1       5.215  -1.916   8.322  0.00  0.00    +0.019 A 
ATOM     25  C   UNL     1       4.345  -2.991   8.330  0.00  0.00    +0.034 A 
ATOM     26  C   UNL     1       3.870  -3.507   7.138  0.00  0.00    +0.061 A 
ATOM     27 BR   UNL     1       2.674  -4.971   7.150  0.00  0.00    -0.046 Br
ATOM     28 BR   UNL     1       5.856  -1.207   9.953  0.00  0.00    -0.050 Br
ENDBRANCH  20  21
ENDBRANCH   9  20
TORSDOF 5
