REMARK  Name = ZINC13445372
REMARK  10 active torsions:
REMARK  status: ('A' for Active; 'I' for Inactive)
REMARK    1  A    between atoms: C_1  and  O_2
REMARK    2  A    between atoms: O_2  and  C_3
REMARK    3  A    between atoms: C_5  and  C_34
REMARK    4  A    between atoms: C_6  and  N_13
REMARK    5  A    between atoms: C_7  and  O_11
REMARK    6  A    between atoms: C_8  and  O_9
REMARK    7  A    between atoms: O_9  and  C_10
REMARK    8  A    between atoms: O_11  and  C_12
REMARK    9  A    between atoms: C_14  and  C_16
REMARK   10  A    between atoms: C_22  and  C_24
REMARK                            x       y       z     vdW  Elec       q    Type
REMARK                         _______ _______ _______ _____ _____    ______ ____
ROOT
ATOM      1  N   UNL     1      -7.233  -0.088   1.959  0.00  0.00    -0.282 N 
ATOM      2  C   UNL     1      -6.619   1.090   2.184  0.00  0.00    +0.220 C 
ATOM      3  O   UNL     1      -6.835   1.700   3.210  0.00  0.00    -0.275 OA
ATOM      4  H   UNL     1      -7.026  -0.598   1.160  0.00  0.00    +0.155 HD
ENDROOT
BRANCH   2   5
ATOM      5  C   UNL     1      -5.664   1.650   1.162  0.00  0.00    +0.078 C 
ATOM      6  C   UNL     1      -5.111   2.987   1.660  0.00  0.00    +0.032 C 
ATOM      7  C   UNL     1      -4.167   3.570   0.603  0.00  0.00    +0.109 C 
ATOM      8  N   UNL     1      -3.138   2.571   0.285  0.00  0.00    -0.297 N 
ATOM      9  C   UNL     1      -3.562   1.225  -0.123  0.00  0.00    +0.109 C 
ATOM     10  C   UNL     1      -4.511   0.666   0.948  0.00  0.00    +0.032 C 
ATOM     11  C   UNL     1      -1.829   2.886   0.361  0.00  0.00    +0.247 C 
ATOM     12  O   UNL     1      -1.489   3.976   0.778  0.00  0.00    -0.270 OA
BRANCH  11  13
ATOM     13  C   UNL     1      -0.810   1.907  -0.062  0.00  0.00    +0.045 A 
ATOM     14  C   UNL     1      -0.882   1.317  -1.315  0.00  0.00    +0.014 A 
ATOM     15  C   UNL     1       0.071   0.390  -1.717  0.00  0.00    +0.001 A 
ATOM     16  C   UNL     1       1.107   0.045  -0.902  0.00  0.00    +0.008 A 
ATOM     17  C   UNL     1       1.223   0.623   0.374  0.00  0.00    -0.017 A 
ATOM     18  C   UNL     1       0.258   1.565   0.804  0.00  0.00    -0.006 A 
ATOM     19  C   UNL     1       0.376   2.141   2.076  0.00  0.00    +0.009 A 
ATOM     20  C   UNL     1       1.415   1.788   2.884  0.00  0.00    +0.001 A 
ATOM     21  C   UNL     1       2.366   0.861   2.462  0.00  0.00    +0.001 A 
ATOM     22  C   UNL     1       2.283   0.282   1.233  0.00  0.00    +0.008 A 
ENDBRANCH  11  13
ENDBRANCH   2   5
BRANCH   1  26
ATOM     23  C   UNL     1     -10.027  -1.555   4.703  0.00  0.00    +0.166 A 
ATOM     24  C   UNL     1      -9.189  -2.435   4.050  0.00  0.00    +0.066 A 
ATOM     25  C   UNL     1      -8.254  -1.954   3.126  0.00  0.00    +0.092 A 
ATOM     26  C   UNL     1      -8.166  -0.576   2.876  0.00  0.00    +0.094 A 
ATOM     27  C   UNL     1      -9.015   0.301   3.540  0.00  0.00    +0.187 A 
ATOM     28  C   UNL     1      -9.943  -0.186   4.451  0.00  0.00    +0.205 A 
BRANCH  25  29
ATOM     29  C   UNL     1      -7.362  -2.891   2.423  0.00  0.00    +0.389 C 
ATOM     30  O   UNL     1      -6.482  -2.465   1.701  0.00  0.00    -0.241 OA
ATOM     31  O   UNL     1      -7.522  -4.220   2.579  0.00  0.00    -0.241 OA
ENDBRANCH  25  29
BRANCH  23  33
ATOM     32  C   UNL     1     -10.973  -3.438   5.808  0.00  0.00    +0.277 C 
ATOM     33  O   UNL     1     -10.940  -2.025   5.597  0.00  0.00    -0.491 OA
ENDBRANCH  23  33
BRANCH  28  34
ATOM     34  O   UNL     1     -10.772   0.674   5.099  0.00  0.00    -0.488 OA
ATOM     35  C   UNL     1     -10.270   1.287   6.288  0.00  0.00    +0.277 C 
ENDBRANCH  28  34
BRANCH  27  36
ATOM     36  O   UNL     1      -8.937   1.638   3.297  0.00  0.00    -0.490 OA
ATOM     37  C   UNL     1      -9.833   2.174   2.321  0.00  0.00    +0.277 C 
ENDBRANCH  27  36
ENDBRANCH   1  26
TORSDOF 7
