REMARK  Name = ZINC39674206
REMARK  7 active torsions:
REMARK  status: ('A' for Active; 'I' for Inactive)
REMARK    1  A    between atoms: C_1  and  C_2
REMARK    2  A    between atoms: C_4  and  C_9
REMARK    3  A    between atoms: C_5  and  C_8
REMARK    4  A    between atoms: C_9  and  C_11
REMARK    5  A    between atoms: C_9  and  N_12
REMARK    6  A    between atoms: C_13  and  C_15
REMARK    7  A    between atoms: C_26  and  C_28
REMARK                            x       y       z     vdW  Elec       q    Type
REMARK                         _______ _______ _______ _____ _____    ______ ____
ROOT
ATOM      1  C   UNL     1      -2.891  -1.084  -4.259  0.00  0.00    +0.100 C 
ATOM      2  C   UNL     1      -2.344   0.145  -5.019  0.00  0.00    +0.121 C 
ATOM      3  N   UNL     1      -2.822  -0.031  -6.410  0.00  0.00    -0.296 N 
ATOM      4  C   UNL     1      -4.198  -0.562  -6.263  0.00  0.00    +0.115 C 
ATOM      5  C   UNL     1      -4.108  -1.545  -5.079  0.00  0.00    -0.004 C 
ATOM      6  C   UNL     1      -3.895  -2.967  -5.589  0.00  0.00    -0.010 C 
ATOM      7  C   UNL     1      -5.141  -3.423  -6.352  0.00  0.00    -0.082 C 
ATOM      8  N   UNL     1      -6.308  -3.370  -5.463  0.00  0.00    +0.379 N 
ATOM      9  C   UNL     1      -6.562  -1.985  -5.051  0.00  0.00    -0.082 C 
ATOM     10  C   UNL     1      -5.375  -1.468  -4.233  0.00  0.00    -0.010 C 
ATOM     11  C   UNL     1      -2.156   0.232  -7.552  0.00  0.00    +0.247 C 
ATOM     12  O   UNL     1      -2.719   0.122  -8.624  0.00  0.00    -0.270 OA
ATOM     13  H   UNL     1      -7.116  -3.729  -5.949  0.00  0.00    -0.086 HD
ATOM     14  H   UNL     1      -6.133  -3.936  -4.646  0.00  0.00    -0.086 HD
ENDROOT
BRANCH  11  15
ATOM     15  C   UNL     1      -0.741   0.654  -7.501  0.00  0.00    +0.045 A 
ATOM     16  C   UNL     1      -0.353   1.718  -6.679  0.00  0.00    +0.014 A 
ATOM     17  C   UNL     1       0.965   2.113  -6.629  0.00  0.00    +0.001 A 
ATOM     18  C   UNL     1       1.923   1.462  -7.392  0.00  0.00    +0.012 A 
ATOM     19  C   UNL     1       1.559   0.404  -8.216  0.00  0.00    +0.031 A 
ATOM     20  C   UNL     1       0.220  -0.014  -8.272  0.00  0.00    +0.006 A 
ATOM     21  C   UNL     1       0.116  -1.156  -9.214  0.00  0.00    -0.006 A 
ATOM     22  C   UNL     1      -0.967  -1.921  -9.627  0.00  0.00    +0.009 A 
ATOM     23  C   UNL     1      -0.782  -2.950 -10.536  0.00  0.00    +0.001 A 
ATOM     24  C   UNL     1       0.476  -3.224 -11.037  0.00  0.00    +0.001 A 
ATOM     25  C   UNL     1       1.567  -2.470 -10.635  0.00  0.00    +0.012 A 
ATOM     26  C   UNL     1       1.395  -1.435  -9.725  0.00  0.00    +0.030 A 
ATOM     27  C   UNL     1       2.343  -0.464  -9.127  0.00  0.00    +0.194 C 
ATOM     28  O   UNL     1       3.538  -0.401  -9.334  0.00  0.00    -0.287 OA
ENDBRANCH  11  15
BRANCH   1  30
ATOM     29  N   UNL     1      -3.404  -1.633  -1.903  0.00  0.00    -0.309 N 
ATOM     30  C   UNL     1      -3.313  -0.695  -2.866  0.00  0.00    +0.219 C 
ATOM     31  O   UNL     1      -3.572   0.462  -2.612  0.00  0.00    -0.275 OA
ATOM     32  H   UNL     1      -3.198  -2.559  -2.106  0.00  0.00    +0.149 HD
BRANCH  29  33
ATOM     33  C   UNL     1      -3.815  -1.255  -0.548  0.00  0.00    +0.100 C 
ATOM     34  C   UNL     1      -2.594  -0.774   0.239  0.00  0.00    +0.033 C 
BRANCH  33  37
ATOM     35  C   UNL     1      -2.526  -3.776   1.111  0.00  0.00    +0.039 C 
ATOM     36  C   UNL     1      -3.828  -3.836   0.309  0.00  0.00    +0.154 C 
ATOM     37  C   UNL     1      -4.421  -2.448   0.144  0.00  0.00    -0.001 C 
ATOM     38  C   UNL     1      -5.605  -2.530   0.756  0.00  0.00    +0.063 C 
ATOM     39  N   UNL     1      -5.800  -3.768   1.261  0.00  0.00    -0.159 NA
ATOM     40  N   UNL     1      -4.869  -4.559   1.059  0.00  0.00    -0.180 NA
ATOM     41  C   UNL     1      -6.590  -1.395   0.868  0.00  0.00    +0.067 C 
ENDBRANCH  33  37
ENDBRANCH  29  33
ENDBRANCH   1  30
TORSDOF 4
