REMARK  Name = ZINC10354491
REMARK  7 active torsions:
REMARK  status: ('A' for Active; 'I' for Inactive)
REMARK    1  A    between atoms: C_1  and  C_2
REMARK    2  A    between atoms: C_8  and  C_10
REMARK    3  A    between atoms: C_11  and  C_31
REMARK    4  A    between atoms: N_12  and  C_28
REMARK    5  A    between atoms: C_16  and  C_18
REMARK    6  A    between atoms: C_22  and  N_24
REMARK    7  A    between atoms: C_28  and  C_29
REMARK                            x       y       z     vdW  Elec       q    Type
REMARK                         _______ _______ _______ _____ _____    ______ ____
ROOT
ATOM      1  C   UNL     1      -3.128   1.079  -1.385  0.00  0.00    +0.056 C 
ATOM      2  C   UNL     1      -4.348   1.643  -1.515  0.00  0.00    +0.020 C 
ATOM      3  N   UNL     1      -5.037   2.092  -0.426  0.00  0.00    -0.282 N 
ATOM      4  C   UNL     1      -4.575   2.015   0.829  0.00  0.00    +0.138 C 
ATOM      5  S   UNL     1      -5.542   2.618   2.106  0.00  0.00    -0.018 S 
ATOM      6  N   UNL     1      -3.373   1.477   1.119  0.00  0.00    -0.315 N 
ATOM      7  C   UNL     1      -2.551   0.962   0.011  0.00  0.00    +0.139 C 
ATOM      8  C   UNL     1      -4.958   1.778  -2.886  0.00  0.00    +0.061 C 
ATOM      9  H   UNL     1      -3.058   1.431   2.035  0.00  0.00    +0.149 HD
ENDROOT
BRANCH   1  17
ATOM     10  C   UNL     1      -0.103  -1.283  -7.096  0.00  0.00    +0.089 C 
ATOM     11  C   UNL     1      -0.393  -0.177  -6.115  0.00  0.00    +0.136 A 
ATOM     12  C   UNL     1      -1.128  -0.272  -4.984  0.00  0.00    +0.091 A 
ATOM     13  C   UNL     1      -1.085   1.038  -4.436  0.00  0.00    +0.168 A 
ATOM     14  N   UNL     1      -0.366   1.754  -5.260  0.00  0.00    -0.063 NA
ATOM     15  O   UNL     1       0.030   1.093  -6.192  0.00  0.00    -0.358 OA
ATOM     16  N   UNL     1      -1.693   1.473  -3.259  0.00  0.00    -0.264 N 
ATOM     17  C   UNL     1      -2.413   0.611  -2.514  0.00  0.00    +0.249 C 
ATOM     18  O   UNL     1      -2.448  -0.569  -2.812  0.00  0.00    -0.270 OA
ATOM     19  H   UNL     1      -1.597   2.396  -2.977  0.00  0.00    +0.157 HD
ENDBRANCH   1  17
BRANCH   7  20
ATOM     20  C   UNL     1      -1.233   1.694   0.032  0.00  0.00    -0.020 A 
ATOM     21  C   UNL     1      -1.211   3.076   0.051  0.00  0.00    +0.007 A 
ATOM     22  C   UNL     1      -0.003   3.748   0.064  0.00  0.00    +0.018 A 
ATOM     23  C   UNL     1       1.184   3.036   0.063  0.00  0.00    +0.048 A 
ATOM     24  C   UNL     1       1.161   1.653   0.049  0.00  0.00    +0.140 A 
ATOM     25  C   UNL     1      -0.048   0.983   0.037  0.00  0.00    +0.039 A 
ATOM     26 BR   UNL     1       2.837   3.954   0.081  0.00  0.00    -0.048 Br
BRANCH  24  27
ATOM     27  N   UNL     1       2.430   0.892   0.048  0.00  0.00    +0.058 N 
ATOM     28  O   UNL     1       2.409  -0.326   0.036  0.00  0.00    -0.126 OA
ATOM     29  O   UNL     1       3.495   1.483   0.059  0.00  0.00    -0.126 OA
ENDBRANCH  24  27
ENDBRANCH   7  20
BRANCH   3  30
ATOM     30  C   UNL     1      -6.355   2.693  -0.641  0.00  0.00    +0.139 C 
BRANCH  30  31
ATOM     31  C   UNL     1      -7.421   1.643  -0.463  0.00  0.00    -0.015 C 
ATOM     32  C   UNL     1      -8.396   1.837   0.390  0.00  0.00    +0.005 C 
ENDBRANCH  30  31
ENDBRANCH   3  30
TORSDOF 5
