REMARK  Name = ZINC15835556
REMARK  7 active torsions:
REMARK  status: ('A' for Active; 'I' for Inactive)
REMARK    1  A    between atoms: C_1  and  C_2
REMARK    2  A    between atoms: C_4  and  C_14
REMARK    3  A    between atoms: C_5  and  C_13
REMARK    4  A    between atoms: N_6  and  C_7
REMARK    5  A    between atoms: N_16  and  N_17
REMARK    6  A    between atoms: C_18  and  C_20
REMARK    7  A    between atoms: C_23  and  N_25
REMARK                            x       y       z     vdW  Elec       q    Type
REMARK                         _______ _______ _______ _____ _____    ______ ____
ROOT
ATOM      1  C   UNL     1       0.042  -3.386  -1.449  0.00  0.00    +0.262 C 
ATOM      2  O   UNL     1       0.059  -4.481  -0.920  0.00  0.00    -0.269 OA
ATOM      3  N   UNL     1       0.036  -3.287  -2.793  0.00  0.00    -0.230 N 
ATOM      4  H   UNL     1       0.022  -2.414  -3.215  0.00  0.00    +0.173 HD
ENDROOT
BRANCH   1   8
ATOM      5  C   UNL     1      -0.018   1.503   0.010  0.00  0.00    +0.064 C 
ATOM      6  C   UNL     1       0.002  -0.004   0.002  0.00  0.00    +0.022 A 
ATOM      7  C   UNL     1       0.008  -0.780  -1.096  0.00  0.00    +0.036 A 
ATOM      8  C   UNL     1       0.029  -2.169  -0.621  0.00  0.00    +0.059 A 
ATOM      9  C   UNL     1       0.034  -2.104   0.745  0.00  0.00    +0.033 A 
ATOM     10  N   UNL     1       0.024  -0.805   1.109  0.00  0.00    -0.317 N 
ATOM     11  C   UNL     1       0.053  -3.283   1.683  0.00  0.00    +0.064 C 
BRANCH  10  12
ATOM     12  C   UNL     1       0.030  -0.344   2.433  0.00  0.00    +0.047 A 
ATOM     13  C   UNL     1       1.132  -0.574   3.244  0.00  0.00    +0.026 A 
ATOM     14  C   UNL     1       1.136  -0.117   4.548  0.00  0.00    +0.002 A 
ATOM     15  C   UNL     1       0.043   0.568   5.045  0.00  0.00    +0.000 A 
ATOM     16  C   UNL     1      -1.057   0.799   4.239  0.00  0.00    +0.002 A 
ATOM     17  C   UNL     1      -1.064   0.350   2.933  0.00  0.00    +0.026 A 
ENDBRANCH  10  12
ENDBRANCH   1   8
BRANCH   3  18
ATOM     18  N   UNL     1       0.048  -4.446  -3.581  0.00  0.00    -0.230 N 
ATOM     19  C   UNL     1       0.042  -4.347  -4.925  0.00  0.00    +0.267 C 
ATOM     20  O   UNL     1       0.025  -3.252  -5.455  0.00  0.00    -0.268 OA
ATOM     21  H   UNL     1       0.061  -5.319  -3.159  0.00  0.00    +0.173 HD
BRANCH  19  22
ATOM     22  C   UNL     1       0.055  -5.559  -5.749  0.00  0.00    +0.077 A 
ATOM     23  C   UNL     1       0.057  -5.677  -7.131  0.00  0.00    +0.023 A 
ATOM     24  C   UNL     1       0.071  -6.961  -7.620  0.00  0.00    +0.041 A 
ATOM     25  C   UNL     1       0.082  -7.999  -6.748  0.00  0.00    +0.164 A 
ATOM     26  S   UNL     1       0.080  -7.266  -5.236  0.00  0.00    -0.060 S 
BRANCH  25  27
ATOM     27  N   UNL     1       0.097  -9.447  -7.057  0.00  0.00    +0.063 N 
ATOM     28  O   UNL     1       0.101  -9.819  -8.207  0.00  0.00    -0.126 OA
ATOM     29  O   UNL     1       0.105 -10.256  -6.160  0.00  0.00    -0.126 OA
ENDBRANCH  25  27
ENDBRANCH  19  22
ENDBRANCH   3  18
TORSDOF 5
