REMARK  Name = ZINC39595692
REMARK  9 active torsions:
REMARK  status: ('A' for Active; 'I' for Inactive)
REMARK    1  A    between atoms: C_1  and  C_2
REMARK    2  A    between atoms: C_2  and  C_4
REMARK    3  A    between atoms: C_2  and  O_28
REMARK    4  A    between atoms: C_4  and  N_5
REMARK    5  A    between atoms: C_6  and  C_8
REMARK    6  A    between atoms: C_19  and  C_21
REMARK    7  A    between atoms: C_21  and  C_22
REMARK    8  A    between atoms: C_22  and  C_23
REMARK    9  A    between atoms: O_28  and  C_29
REMARK                            x       y       z     vdW  Elec       q    Type
REMARK                         _______ _______ _______ _____ _____    ______ ____
ROOT
ATOM      1  C   UNL     1       1.472  -3.685   1.339  0.00  0.00    +0.100 C 
ATOM      2  C   UNL     1       2.304  -3.909   0.056  0.00  0.00    +0.121 C 
ATOM      3  N   UNL     1       3.677  -4.179   0.543  0.00  0.00    -0.300 N 
ATOM      4  C   UNL     1       3.483  -5.022   1.746  0.00  0.00    +0.115 C 
ATOM      5  C   UNL     1       2.247  -4.421   2.445  0.00  0.00    -0.004 C 
ATOM      6  C   UNL     1       1.387  -5.530   3.045  0.00  0.00    -0.010 C 
ATOM      7  C   UNL     1       2.157  -6.209   4.181  0.00  0.00    -0.082 C 
ATOM      8  N   UNL     1       2.495  -5.215   5.207  0.00  0.00    +0.379 N 
ATOM      9  C   UNL     1       3.398  -4.203   4.646  0.00  0.00    -0.082 C 
ATOM     10  C   UNL     1       2.680  -3.439   3.529  0.00  0.00    -0.010 C 
ATOM     11  C   UNL     1       4.841  -3.754   0.011  0.00  0.00    +0.216 C 
ATOM     12  O   UNL     1       5.893  -4.063   0.530  0.00  0.00    -0.276 OA
ATOM     13  H   UNL     1       1.651  -4.768   5.532  0.00  0.00    -0.086 HD
ATOM     14  H   UNL     1       2.948  -5.675   5.983  0.00  0.00    -0.086 HD
ENDROOT
BRANCH   1  16
ATOM     15  N   UNL     1       0.310  -1.736   2.322  0.00  0.00    -0.312 N 
ATOM     16  C   UNL     1       1.377  -2.215   1.654  0.00  0.00    +0.218 C 
ATOM     17  O   UNL     1       2.263  -1.462   1.306  0.00  0.00    -0.275 OA
ATOM     18  H   UNL     1      -0.398  -2.338   2.601  0.00  0.00    +0.149 HD
BRANCH  15  19
ATOM     19  C   UNL     1       0.218  -0.306   2.628  0.00  0.00    +0.148 C 
BRANCH  19  21
ATOM     20  C   UNL     1      -1.178   1.463   3.707  0.00  0.00    +0.053 C 
ATOM     21  C   UNL     1      -1.082  -0.030   3.387  0.00  0.00    +0.187 C 
BRANCH  21  22
ATOM     22  O   UNL     1      -2.196  -0.417   2.580  0.00  0.00    -0.488 OA
BRANCH  22  23
ATOM     23  C   UNL     1      -3.346  -0.741   3.230  0.00  0.00    +0.121 A 
ATOM     24  C   UNL     1      -4.429  -1.234   2.518  0.00  0.00    +0.048 A 
ATOM     25  C   UNL     1      -5.597  -1.562   3.179  0.00  0.00    +0.042 A 
ATOM     26  C   UNL     1      -5.686  -1.399   4.551  0.00  0.00    +0.124 A 
ATOM     27  C   UNL     1      -4.605  -0.906   5.263  0.00  0.00    +0.042 A 
ATOM     28  C   UNL     1      -3.434  -0.583   4.605  0.00  0.00    +0.048 A 
ATOM     29  F   UNL     1      -6.829  -1.720   5.197  0.00  0.00    -0.205 F 
ENDBRANCH  22  23
ENDBRANCH  21  22
ENDBRANCH  19  21
ENDBRANCH  15  19
ENDBRANCH   1  16
BRANCH  11  30
ATOM     30  C   UNL     1       4.834  -2.896  -1.227  0.00  0.00    +0.096 C 
BRANCH  30  31
ATOM     31  C   UNL     1       6.274  -2.555  -1.619  0.00  0.00    +0.013 C 
BRANCH  31  32
ATOM     32  C   UNL     1       6.267  -1.683  -2.877  0.00  0.00    -0.011 C 
ATOM     33  C   UNL     1       5.772  -2.504  -4.085  0.00  0.00    +0.003 C 
ATOM     34  C   UNL     1       6.636  -1.999  -5.267  0.00  0.00    +0.000 C 
ATOM     35  C   UNL     1       8.024  -1.790  -4.611  0.00  0.00    +0.000 C 
ATOM     36  C   UNL     1       7.699  -1.229  -3.211  0.00  0.00    +0.003 C 
ENDBRANCH  31  32
ENDBRANCH  30  31
ENDBRANCH  11  30
TORSDOF 8
