REMARK  Name = ZINC36743848
REMARK  3 active torsions:
REMARK  status: ('A' for Active; 'I' for Inactive)
REMARK    1  A    between atoms: C_3  and  N_8
REMARK    2  A    between atoms: N_11  and  C_12
REMARK    3  A    between atoms: C_17  and  N_18
REMARK                            x       y       z     vdW  Elec       q    Type
REMARK                         _______ _______ _______ _____ _____    ______ ____
ROOT
ATOM      1  N   UNL     1       3.580   2.119   0.035  0.00  0.00    -0.269 N 
ATOM      2  C   UNL     1       4.757   1.467   0.114  0.00  0.00    +0.308 C 
ATOM      3  O   UNL     1       4.779   0.252   0.143  0.00  0.00    -0.252 OA
ATOM      4  N   UNL     1       5.911   2.163   0.160  0.00  0.00    -0.267 N 
ATOM      5  H   UNL     1       3.566   3.084  -0.064  0.00  0.00    +0.156 HD
ATOM      6  H   UNL     1       5.892   3.131   0.203  0.00  0.00    +0.156 HD
ENDROOT
BRANCH   4   7
ATOM      7  C   UNL     1       7.140   1.485   0.145  0.00  0.00    +0.059 A 
ATOM      8  C   UNL     1       7.252   0.236   0.738  0.00  0.00    +0.074 A 
ATOM      9  C   UNL     1       8.464  -0.433   0.723  0.00  0.00    +0.168 A 
ATOM     10  C   UNL     1       9.573   0.147   0.112  0.00  0.00    +0.168 A 
ATOM     11  C   UNL     1       9.463   1.394  -0.482  0.00  0.00    +0.074 A 
ATOM     12  C   UNL     1       8.248   2.063  -0.472  0.00  0.00    +0.050 A 
ATOM     13  O   UNL     1      10.634  -0.705   0.233  0.00  0.00    -0.453 OA
ATOM     14  C   UNL     1      10.270  -1.627   1.277  0.00  0.00    +0.466 C 
ATOM     15  O   UNL     1       8.831  -1.649   1.227  0.00  0.00    -0.453 OA
BRANCH  12  16
ATOM     16  N   UNL     1       8.136   3.323  -1.077  0.00  0.00    -0.356 N 
ATOM     17  H   UNL     1       7.287   3.792  -1.067  0.00  0.00    +0.142 HD
ATOM     18  H   UNL     1       8.907   3.725  -1.506  0.00  0.00    +0.142 HD
ENDBRANCH  12  16
ENDBRANCH   4   7
BRANCH   1  21
ATOM     19  C   UNL     1       1.100  -0.441   0.942  0.00  0.00    +0.003 A 
ATOM     20  C   UNL     1       2.287   0.264   0.883  0.00  0.00    +0.023 A 
ATOM     21  C   UNL     1       2.379   1.404   0.096  0.00  0.00    +0.036 A 
ATOM     22  C   UNL     1       1.276   1.833  -0.631  0.00  0.00    +0.043 A 
ATOM     23  C   UNL     1       0.091   1.124  -0.569  0.00  0.00    +0.043 A 
ATOM     24  C   UNL     1       0.004  -0.012   0.217  0.00  0.00    +0.020 A 
ATOM     25 CL   UNL     1      -1.288   1.660  -1.476  0.00  0.00    -0.083 Cl
ENDBRANCH   1  21
TORSDOF 3
