REMARK  Name = ZINC09254735
REMARK  6 active torsions:
REMARK  status: ('A' for Active; 'I' for Inactive)
REMARK    1  A    between atoms: C_3  and  C_11
REMARK    2  A    between atoms: C_5  and  O_7
REMARK    3  A    between atoms: O_7  and  C_8
REMARK    4  A    between atoms: N_13  and  C_14
REMARK    5  A    between atoms: C_17  and  S_20
REMARK    6  A    between atoms: S_20  and  N_23
REMARK                            x       y       z     vdW  Elec       q    Type
REMARK                         _______ _______ _______ _____ _____    ______ ____
ROOT
ATOM      1  C   UNL     1       4.861   4.184  -0.114  0.00  0.00    +0.034 A 
ATOM      2  C   UNL     1       6.041   3.461  -0.230  0.00  0.00    +0.025 A 
ATOM      3  C   UNL     1       7.248   4.124  -0.328  0.00  0.00    +0.031 A 
ATOM      4  C   UNL     1       7.284   5.506  -0.310  0.00  0.00    +0.113 A 
ATOM      5  C   UNL     1       6.111   6.229  -0.194  0.00  0.00    +0.031 A 
ATOM      6  C   UNL     1       4.899   5.573  -0.101  0.00  0.00    +0.025 A 
ENDROOT
BRANCH   1   9
ATOM      7  C   UNL     1       2.534   4.041  -0.587  0.00  0.00    +0.248 C 
ATOM      8  O   UNL     1       2.586   5.134  -1.115  0.00  0.00    -0.270 OA
ATOM      9  N   UNL     1       3.636   3.516  -0.015  0.00  0.00    -0.282 N 
ATOM     10  H   UNL     1       3.580   2.675   0.466  0.00  0.00    +0.155 HD
BRANCH   7  13
ATOM     11  C   UNL     1       0.013   1.330   0.049  0.00  0.00    +0.004 A 
ATOM     12  C   UNL     1       1.201   2.031   0.035  0.00  0.00    +0.013 A 
ATOM     13  C   UNL     1       1.263   3.287  -0.571  0.00  0.00    +0.040 A 
ATOM     14  C   UNL     1       0.121   3.828  -1.162  0.00  0.00    +0.059 A 
ATOM     15  C   UNL     1      -1.067   3.115  -1.143  0.00  0.00    +0.128 A 
ATOM     16  C   UNL     1      -1.119   1.867  -0.537  0.00  0.00    +0.046 A 
BRANCH  15  17
ATOM     17  O   UNL     1      -2.182   3.639  -1.717  0.00  0.00    -0.434 OA
BRANCH  17  18
ATOM     18  C   UNL     1      -3.372   2.849  -1.661  0.00  0.00    +0.541 C 
ATOM     19  F   UNL     1      -3.153   1.629  -2.308  0.00  0.00    -0.166 F 
ATOM     20  F   UNL     1      -3.712   2.614  -0.325  0.00  0.00    -0.166 F 
ENDBRANCH  17  18
ENDBRANCH  15  17
ENDBRANCH   7  13
ENDBRANCH   1   9
BRANCH   4  21
ATOM     21  S   UNL     1       8.826   6.348  -0.435  0.00  0.00    +0.100 S 
ATOM     22  O   UNL     1       8.640   7.628   0.154  0.00  0.00    -0.146 OA
ATOM     23  O   UNL     1       9.822   5.440   0.015  0.00  0.00    -0.146 OA
BRANCH  21  24
ATOM     24  N   UNL     1       9.114   6.606  -2.045  0.00  0.00    -0.118 NA
ATOM     25  C   UNL     1      10.193   7.213  -2.420  0.00  0.00    +0.117 C 
ATOM     26  C   UNL     1      11.206   7.687  -1.380  0.00  0.00    +0.073 C 
ATOM     27  C   UNL     1      12.438   6.821  -1.526  0.00  0.00    +0.008 C 
ATOM     28  C   UNL     1      13.444   7.359  -2.545  0.00  0.00    +0.002 C 
ATOM     29  C   UNL     1      12.785   7.872  -3.825  0.00  0.00    +0.019 C 
ATOM     30  C   UNL     1      11.682   6.968  -4.332  0.00  0.00    +0.102 C 
ATOM     31  N   UNL     1      10.424   7.419  -3.702  0.00  0.00    -0.331 N 
ATOM     32  H   UNL     1       9.759   7.876  -4.241  0.00  0.00    +0.147 HD
ENDBRANCH  21  24
ENDBRANCH   4  21
TORSDOF 6
