REMARK  Name = ZINC09028321
REMARK  6 active torsions:
REMARK  status: ('A' for Active; 'I' for Inactive)
REMARK    1  A    between atoms: C_3  and  N_22
REMARK    2  A    between atoms: C_6  and  C_7
REMARK    3  A    between atoms: C_7  and  C_8
REMARK    4  A    between atoms: N_10  and  N_11
REMARK    5  A    between atoms: C_12  and  C_13
REMARK    6  A    between atoms: C_18  and  O_19
REMARK                            x       y       z     vdW  Elec       q    Type
REMARK                         _______ _______ _______ _____ _____    ______ ____
ROOT
ATOM      1  C   UNL     1      -1.738  -1.025  -1.408  0.00  0.00    +0.237 C 
ATOM      2  O   UNL     1      -1.069  -0.616  -2.334  0.00  0.00    -0.274 OA
ATOM      3  N   UNL     1      -2.878  -1.701  -1.647  0.00  0.00    -0.207 N 
ATOM      4  H   UNL     1      -3.413  -2.028  -0.906  0.00  0.00    +0.177 HD
ENDROOT
BRANCH   3   5
ATOM      5  N   UNL     1      -3.292  -1.933  -2.965  0.00  0.00    -0.188 NA
ATOM      6  C   UNL     1      -4.391  -2.585  -3.195  0.00  0.00    +0.142 C 
BRANCH   6   7
ATOM      7  C   UNL     1      -4.826  -2.829  -4.582  0.00  0.00    +0.038 A 
ATOM      8  C   UNL     1      -6.011  -3.525  -4.834  0.00  0.00    +0.028 A 
ATOM      9  C   UNL     1      -6.413  -3.750  -6.135  0.00  0.00    +0.020 A 
ATOM     10  C   UNL     1      -5.647  -3.288  -7.192  0.00  0.00    +0.034 A 
ATOM     11  C   UNL     1      -4.472  -2.598  -6.955  0.00  0.00    +0.061 A 
ATOM     12  C   UNL     1      -4.057  -2.359  -5.655  0.00  0.00    +0.139 A 
ATOM     13 BR   UNL     1      -3.435  -1.973  -8.408  0.00  0.00    -0.046 Br
ATOM     14 BR   UNL     1      -8.017  -4.693  -6.475  0.00  0.00    -0.050 Br
BRANCH  12  15
ATOM     15  O   UNL     1      -2.906  -1.676  -5.421  0.00  0.00    -0.505 OA
ATOM     16  H   UNL     1      -2.121  -2.238  -5.362  0.00  0.00    +0.292 HD
ENDBRANCH  12  15
ENDBRANCH   6   7
ENDBRANCH   3   5
BRANCH   1  17
ATOM     17  C   UNL     1      -1.293  -0.775   0.010  0.00  0.00    +0.132 C 
BRANCH  17  23
ATOM     18  C   UNL     1      -0.017   1.378   0.010  0.00  0.00    +0.006 A 
ATOM     19  C   UNL     1       1.171   2.086   0.002  0.00  0.00    +0.033 A 
ATOM     20  C   UNL     1       2.377   1.411  -0.013  0.00  0.00    +0.126 A 
ATOM     21  C   UNL     1       2.396   0.029  -0.020  0.00  0.00    +0.033 A 
ATOM     22  C   UNL     1       1.208  -0.679  -0.012  0.00  0.00    +0.006 A 
ATOM     23  C   UNL     1       0.002  -0.004   0.002  0.00  0.00    -0.038 A 
BRANCH  20  24
ATOM     24  N   UNL     1       3.649   2.168  -0.022  0.00  0.00    +0.056 N 
ATOM     25  O   UNL     1       3.633   3.377  -0.016  0.00  0.00    -0.126 OA
ATOM     26  O   UNL     1       4.704   1.578  -0.035  0.00  0.00    -0.126 OA
ENDBRANCH  20  24
ENDBRANCH  17  23
ENDBRANCH   1  17
TORSDOF 6
