REMARK  Name = ZINC36213802
REMARK  9 active torsions:
REMARK  status: ('A' for Active; 'I' for Inactive)
REMARK    1  A    between atoms: C_1  and  C_2
REMARK    2  A    between atoms: C_7  and  C_8
REMARK    3  A    between atoms: N_10  and  C_11
REMARK    4  A    between atoms: C_11  and  C_13
REMARK    5  A    between atoms: C_11  and  C_26
REMARK    6  A    between atoms: N_21  and  C_22
REMARK    7  A    between atoms: C_22  and  C_23
REMARK    8  A    between atoms: C_22  and  C_24
REMARK    9  A    between atoms: C_22  and  C_25
REMARK                            x       y       z     vdW  Elec       q    Type
REMARK                         _______ _______ _______ _____ _____    ______ ____
ROOT
ATOM      1  C   UNL     1       0.588   0.055   4.910  0.00  0.00    +0.162 C 
ENDROOT
BRANCH   1   2
ATOM      2  C   UNL     1       0.239  -0.861   6.085  0.00  0.00    +0.021 C 
ATOM      3  C   UNL     1       1.272  -1.986   6.179  0.00  0.00    +0.025 C 
ATOM      4  C   UNL     1       0.940  -2.881   7.377  0.00  0.00    +0.109 C 
ATOM      5  N   UNL     1      -0.448  -3.346   7.249  0.00  0.00    -0.286 N 
ATOM      6  C   UNL     1      -1.512  -2.350   7.062  0.00  0.00    +0.109 C 
ATOM      7  C   UNL     1      -1.152  -1.461   5.868  0.00  0.00    +0.025 C 
ATOM      8  C   UNL     1      -0.739  -4.661   7.301  0.00  0.00    +0.303 C 
ATOM      9  O   UNL     1       0.138  -5.469   7.538  0.00  0.00    -0.253 OA
ATOM     10  N   UNL     1      -2.002  -5.080   7.089  0.00  0.00    -0.294 N 
ATOM     11  H   UNL     1      -2.687  -4.445   6.830  0.00  0.00    +0.151 HD
BRANCH  10  12
ATOM     12  C   UNL     1      -2.341  -6.497   7.251  0.00  0.00    +0.028 C 
ATOM     13  C   UNL     1      -2.042  -6.931   8.687  0.00  0.00    +0.031 C 
ATOM     14  C   UNL     1      -3.827  -6.703   6.954  0.00  0.00    +0.031 C 
ATOM     15  C   UNL     1      -1.505  -7.335   6.281  0.00  0.00    +0.031 C 
ENDBRANCH  10  12
ENDBRANCH   1   2
BRANCH   1  16
ATOM     16  C   UNL     1       1.958   0.644   5.122  0.00  0.00    +0.236 C 
ATOM     17  O   UNL     1       2.930   0.114   4.627  0.00  0.00    -0.274 OA
ATOM     18  N   UNL     1       2.104   1.761   5.863  0.00  0.00    -0.300 N 
ATOM     19  C   UNL     1       0.955   2.351   6.562  0.00  0.00    +0.108 C 
ATOM     20  C   UNL     1       1.312   2.520   8.042  0.00  0.00    +0.019 C 
ATOM     21  C   UNL     1       2.604   3.330   8.162  0.00  0.00    +0.003 C 
ATOM     22  C   UNL     1       3.745   2.579   7.473  0.00  0.00    +0.019 C 
ATOM     23  C   UNL     1       3.417   2.407   5.991  0.00  0.00    +0.108 C 
ENDBRANCH   1  16
BRANCH   1  26
ATOM     24  C   UNL     1       0.351  -0.102   2.490  0.00  0.00    +0.245 C 
ATOM     25  O   UNL     1       0.158   1.098   2.461  0.00  0.00    -0.270 OA
ATOM     26  N   UNL     1       0.576  -0.720   3.667  0.00  0.00    -0.300 N 
ATOM     27  H   UNL     1       0.731  -1.677   3.690  0.00  0.00    +0.150 HD
BRANCH  24  34
ATOM     28  C   UNL     1       0.006   1.258  -0.040  0.00  0.00    +0.044 C 
ATOM     29  C   UNL     1       0.174  -0.238   0.009  0.00  0.00    -0.038 A 
ATOM     30  C   UNL     1       0.170  -0.973  -1.159  0.00  0.00    +0.004 A 
ATOM     31  C   UNL     1       0.324  -2.347  -1.116  0.00  0.00    +0.000 A 
ATOM     32  C   UNL     1       0.483  -2.994   0.097  0.00  0.00    +0.001 A 
ATOM     33  C   UNL     1       0.490  -2.271   1.272  0.00  0.00    +0.013 A 
ATOM     34  C   UNL     1       0.340  -0.884   1.235  0.00  0.00    +0.040 A 
ENDBRANCH  24  34
ENDBRANCH   1  26
TORSDOF 5
