REMARK  Name = ZINC15947410
REMARK  8 active torsions:
REMARK  status: ('A' for Active; 'I' for Inactive)
REMARK    1  A    between atoms: C_1  and  C_2
REMARK    2  A    between atoms: C_2  and  N_3
REMARK    3  A    between atoms: C_11  and  O_32
REMARK    4  A    between atoms: C_13  and  C_16
REMARK    5  A    between atoms: C_19  and  O_22
REMARK    6  A    between atoms: O_22  and  C_23
REMARK    7  A    between atoms: C_23  and  C_25
REMARK    8  A    between atoms: C_28  and  C_31
REMARK                            x       y       z     vdW  Elec       q    Type
REMARK                         _______ _______ _______ _____ _____    ______ ____
ROOT
ATOM      1  N   UNL     1       0.441  -0.020   1.524  0.00  0.00    +0.383 N 
ATOM      2  C   UNL     1       0.565  -1.473   1.345  0.00  0.00    -0.074 C 
ATOM      3  C   UNL     1       1.603  -2.039   2.320  0.00  0.00    +0.018 C 
ATOM      4  C   UNL     1       1.241  -1.560   3.719  0.00  0.00    -0.027 A 
ATOM      5  C   UNL     1       0.392  -0.517   3.880  0.00  0.00    -0.021 A 
ATOM      6  S   UNL     1       0.257  -0.312   5.633  0.00  0.00    -0.080 S 
ATOM      7  C   UNL     1       1.262  -1.534   6.130  0.00  0.00    +0.080 A 
ATOM      8  C   UNL     1       1.736  -2.133   4.955  0.00  0.00    +0.067 A 
ATOM      9  C   UNL     1       2.683  -3.267   5.099  0.00  0.00    +0.220 C 
ATOM     10  N   UNL     1       2.822  -3.795   6.285  0.00  0.00    -0.223 NA
ATOM     11  C   UNL     1       2.065  -3.390   7.463  0.00  0.00    +0.224 C 
ATOM     12  N   UNL     1       1.637  -1.982   7.376  0.00  0.00    -0.313 N 
ATOM     13  C   UNL     1      -0.265   0.265   2.787  0.00  0.00    -0.035 C 
ATOM     14  H   UNL     1       1.621  -1.403   8.154  0.00  0.00    +0.149 HD
ATOM     15  H   UNL     1       1.361   0.394   1.552  0.00  0.00    -0.081 HD
ENDROOT
BRANCH  11  16
ATOM     16  C   UNL     1       0.845  -4.266   7.589  0.00  0.00    -0.005 A 
ATOM     17  C   UNL     1      -0.308  -3.765   8.165  0.00  0.00    +0.011 A 
ATOM     18  C   UNL     1      -1.427  -4.566   8.282  0.00  0.00    +0.047 A 
ATOM     19  C   UNL     1      -1.394  -5.874   7.820  0.00  0.00    +0.132 A 
ATOM     20  C   UNL     1      -0.236  -6.374   7.242  0.00  0.00    +0.047 A 
ATOM     21  C   UNL     1       0.879  -5.568   7.123  0.00  0.00    +0.011 A 
BRANCH  19  22
ATOM     22  O   UNL     1      -2.494  -6.665   7.934  0.00  0.00    -0.422 OA
BRANCH  22  23
ATOM     23  C   UNL     1      -3.565  -6.372   7.171  0.00  0.00    +0.344 C 
ATOM     24  O   UNL     1      -3.494  -5.493   6.336  0.00  0.00    -0.245 OA
BRANCH  23  25
ATOM     25  C   UNL     1      -4.825  -7.121   7.350  0.00  0.00    +0.059 A 
ATOM     26  C   UNL     1      -4.913  -8.128   8.313  0.00  0.00    +0.015 A 
ATOM     27  C   UNL     1      -6.093  -8.823   8.475  0.00  0.00    +0.004 A 
ATOM     28  C   UNL     1      -7.189  -8.525   7.685  0.00  0.00    -0.050 A 
ATOM     29  C   UNL     1      -7.110  -7.528   6.728  0.00  0.00    +0.004 A 
ATOM     30  C   UNL     1      -5.937  -6.821   6.560  0.00  0.00    +0.015 A 
ATOM     31  C   UNL     1      -8.476  -9.289   7.867  0.00  0.00    +0.044 C 
ENDBRANCH  23  25
ENDBRANCH  22  23
ENDBRANCH  19  22
ENDBRANCH  11  16
BRANCH   1  33
ATOM     32  C   UNL     1      -0.336   2.074   0.519  0.00  0.00    -0.017 C 
ATOM     33  C   UNL     1      -0.317   0.548   0.401  0.00  0.00    -0.082 C 
ENDBRANCH   1  33
BRANCH   9  34
ATOM     34  O   UNL     1       3.379  -3.738   4.038  0.00  0.00    -0.492 OA
ATOM     35  H   UNL     1       3.966  -4.477   4.249  0.00  0.00    +0.294 HD
ENDBRANCH   9  34
TORSDOF 6
