REMARK  Name = ZINC57744231
REMARK  6 active torsions:
REMARK  status: ('A' for Active; 'I' for Inactive)
REMARK    1  A    between atoms: C_1  and  C_2
REMARK    2  A    between atoms: C_2  and  C_4
REMARK    3  A    between atoms: C_2  and  N_14
REMARK    4  A    between atoms: C_15  and  C_17
REMARK    5  A    between atoms: N_20  and  S_23
REMARK    6  A    between atoms: S_23  and  C_26
REMARK                            x       y       z     vdW  Elec       q    Type
REMARK                         _______ _______ _______ _____ _____    ______ ____
ROOT
ATOM      1  C   UNL     1       0.712  -1.094  -3.598  0.00  0.00    +0.077 C 
ATOM      2  C   UNL     1       1.851  -0.133  -3.947  0.00  0.00    +0.030 C 
ATOM      3  C   UNL     1       2.587  -0.649  -5.187  0.00  0.00    +0.110 C 
ATOM      4  N   UNL     1       1.612  -0.846  -6.268  0.00  0.00    -0.177 NA
ATOM      5  C   UNL     1       0.430  -1.680  -6.010  0.00  0.00    +0.110 C 
ATOM      6  C   UNL     1      -0.282  -1.153  -4.761  0.00  0.00    +0.030 C 
ENDROOT
BRANCH   1   8
ATOM      7  N   UNL     1       0.688  -0.476  -1.203  0.00  0.00    -0.306 N 
ATOM      8  C   UNL     1       0.006  -0.608  -2.358  0.00  0.00    +0.217 C 
ATOM      9  O   UNL     1      -1.175  -0.336  -2.400  0.00  0.00    -0.275 OA
ATOM     10  H   UNL     1       1.632  -0.695  -1.170  0.00  0.00    +0.149 HD
BRANCH   7  12
ATOM     11  C   UNL     1      -0.019   1.526   0.010  0.00  0.00    +0.036 C 
ATOM     12  C   UNL     1       0.002  -0.004   0.002  0.00  0.00    +0.136 C 
BRANCH  12  13
ATOM     13  C   UNL     1       0.731  -0.503   1.223  0.00  0.00    +0.128 A 
ATOM     14  N   UNL     1       0.165  -0.691   2.446  0.00  0.00    -0.340 N 
ATOM     15  H   UNL     1      -0.762  -0.530   2.681  0.00  0.00    +0.167 HD
ATOM     16  C   UNL     1       1.155  -1.153   3.290  0.00  0.00    +0.066 A 
ATOM     17  C   UNL     1       1.192  -1.517   4.629  0.00  0.00    +0.028 A 
ATOM     18  C   UNL     1       2.376  -1.950   5.186  0.00  0.00    +0.002 A 
ATOM     19  C   UNL     1       3.530  -2.024   4.418  0.00  0.00    +0.002 A 
ATOM     20  C   UNL     1       3.512  -1.670   3.099  0.00  0.00    +0.030 A 
ATOM     21  C   UNL     1       2.323  -1.229   2.512  0.00  0.00    +0.089 A 
ATOM     22  N   UNL     1       1.992  -0.823   1.260  0.00  0.00    -0.231 NA
ENDBRANCH  12  13
ENDBRANCH   7  12
ENDBRANCH   1   8
BRANCH   4  23
ATOM     23  S   UNL     1       1.840  -0.141  -7.749  0.00  0.00    +0.061 S 
ATOM     24  O   UNL     1       0.556  -0.031  -8.349  0.00  0.00    -0.153 OA
ATOM     25  O   UNL     1       2.681   0.985  -7.538  0.00  0.00    -0.153 OA
BRANCH  23  26
ATOM     26  C   UNL     1       2.759  -1.279  -8.732  0.00  0.00    +0.106 A 
ATOM     27  C   UNL     1       4.141  -1.242  -8.725  0.00  0.00    +0.029 A 
ATOM     28  C   UNL     1       4.853  -2.134  -9.499  0.00  0.00    +0.006 A 
ATOM     29  C   UNL     1       4.194  -3.071 -10.285  0.00  0.00    -0.044 A 
ATOM     30  C   UNL     1       2.818  -3.110 -10.288  0.00  0.00    -0.042 A 
ATOM     31  C   UNL     1       2.102  -2.212  -9.506  0.00  0.00    +0.032 A 
ATOM     32  C   UNL     1       2.037  -4.108 -11.103  0.00  0.00    +0.035 C 
ATOM     33  C   UNL     1       2.915  -4.713 -12.197  0.00  0.00    +0.005 C 
ATOM     34  C   UNL     1       4.211  -5.218 -11.553  0.00  0.00    +0.005 C 
ATOM     35  C   UNL     1       5.033  -4.009 -11.112  0.00  0.00    +0.035 C 
ENDBRANCH  23  26
ENDBRANCH   4  23
TORSDOF 5
