REMARK  Name = ZINC33727842
REMARK  6 active torsions:
REMARK  status: ('A' for Active; 'I' for Inactive)
REMARK    1  A    between atoms: C_1  and  C_2
REMARK    2  A    between atoms: C_3  and  C_27
REMARK    3  A    between atoms: C_4  and  C_13
REMARK    4  A    between atoms: C_17  and  N_19
REMARK    5  A    between atoms: C_20  and  C_22
REMARK    6  A    between atoms: N_29  and  C_30
REMARK                            x       y       z     vdW  Elec       q    Type
REMARK                         _______ _______ _______ _____ _____    ______ ____
ROOT
ATOM      1  C   UNL     1      -0.371   1.900   0.405  0.00  0.00    +0.064 C 
ATOM      2  C   UNL     1      -0.108   0.418   0.328  0.00  0.00    +0.025 C 
ATOM      3  C   UNL     1      -1.152  -0.442   0.161  0.00  0.00    +0.058 C 
ATOM      4  C   UNL     1      -0.871  -1.920   0.029  0.00  0.00    +0.143 C 
ATOM      5  N   UNL     1       0.385  -2.215   0.752  0.00  0.00    -0.300 N 
ATOM      6  C   UNL     1       0.465  -3.450   1.516  0.00  0.00    +0.109 C 
ATOM      7  C   UNL     1       1.810  -4.145   1.349  0.00  0.00    +0.030 C 
ATOM      8  C   UNL     1       2.918  -3.230   1.882  0.00  0.00    +0.078 C 
ATOM      9  S   UNL     1       3.088  -1.823   0.756  0.00  0.00    -0.092 S 
ATOM     10  C   UNL     1       1.403  -1.316   0.644  0.00  0.00    +0.135 C 
ATOM     11  N   UNL     1       1.139  -0.034   0.430  0.00  0.00    -0.341 N 
ATOM     12  H   UNL     1       1.963   0.688   0.333  0.00  0.00    +0.167 HD
ENDROOT
BRANCH   4  13
ATOM     13  C   UNL     1      -0.720  -2.288  -1.424  0.00  0.00    -0.021 A 
ATOM     14  C   UNL     1       0.466  -2.021  -2.085  0.00  0.00    +0.006 A 
ATOM     15  C   UNL     1       0.609  -2.357  -3.418  0.00  0.00    +0.002 A 
ATOM     16  C   UNL     1      -0.432  -2.961  -4.095  0.00  0.00    +0.023 A 
ATOM     17  C   UNL     1      -1.624  -3.231  -3.435  0.00  0.00    +0.034 A 
ATOM     18  C   UNL     1      -1.762  -2.897  -2.094  0.00  0.00    +0.029 A 
BRANCH  17  19
ATOM     19  N   UNL     1      -2.681  -3.842  -4.118  0.00  0.00    -0.285 N 
ATOM     20  C   UNL     1      -2.426  -4.768  -5.064  0.00  0.00    +0.220 C 
ATOM     21  O   UNL     1      -1.281  -5.010  -5.383  0.00  0.00    -0.275 OA
ATOM     22  H   UNL     1      -3.720  -3.568  -3.883  0.00  0.00    +0.155 HD
BRANCH  20  23
ATOM     23  C   UNL     1      -3.563  -5.502  -5.726  0.00  0.00    +0.075 C 
ATOM     24  C   UNL     1      -4.346  -6.319  -4.678  0.00  0.00    +0.013 C 
ATOM     25  C   UNL     1      -4.735  -7.620  -5.424  0.00  0.00    +0.001 C 
ATOM     26  C   UNL     1      -3.483  -7.906  -6.289  0.00  0.00    +0.001 C 
ATOM     27  C   UNL     1      -3.015  -6.511  -6.750  0.00  0.00    +0.013 C 
ENDBRANCH  20  23
ENDBRANCH  17  19
ENDBRANCH   4  13
BRANCH   3  28
ATOM     28  C   UNL     1      -2.472   0.040   0.107  0.00  0.00    +0.248 C 
ATOM     29  O   UNL     1      -2.689   1.235   0.210  0.00  0.00    -0.270 OA
ATOM     30  N   UNL     1      -3.497  -0.819  -0.059  0.00  0.00    -0.282 N 
ATOM     31  H   UNL     1      -3.298  -1.887  -0.228  0.00  0.00    +0.155 HD
BRANCH  30  32
ATOM     32  C   UNL     1      -4.815  -0.352  -0.016  0.00  0.00    +0.034 A 
ATOM     33  C   UNL     1      -5.817  -1.146   0.525  0.00  0.00    +0.023 A 
ATOM     34  C   UNL     1      -7.117  -0.679   0.571  0.00  0.00    +0.002 A 
ATOM     35  C   UNL     1      -7.421   0.572   0.068  0.00  0.00    +0.000 A 
ATOM     36  C   UNL     1      -6.426   1.363  -0.476  0.00  0.00    +0.002 A 
ATOM     37  C   UNL     1      -5.124   0.905  -0.520  0.00  0.00    +0.023 A 
ENDBRANCH  30  32
ENDBRANCH   3  28
TORSDOF 5
