REMARK  Name = ZINC35396638
REMARK  10 active torsions:
REMARK  status: ('A' for Active; 'I' for Inactive)
REMARK    1  A    between atoms: C_1  and  C_2
REMARK    2  A    between atoms: C_2  and  C_3
REMARK    3  A    between atoms: C_10  and  C_37
REMARK    4  A    between atoms: C_11  and  S_15
REMARK    5  A    between atoms: S_15  and  N_18
REMARK    6  A    between atoms: C_22  and  C_25
REMARK    7  A    between atoms: N_27  and  C_28
REMARK    8  A    between atoms: C_29  and  C_36
REMARK    9  A    between atoms: C_31  and  C_35
REMARK   10  A    between atoms: C_33  and  C_34
REMARK                            x       y       z     vdW  Elec       q    Type
REMARK                         _______ _______ _______ _____ _____    ______ ____
ROOT
ATOM      1  N   UNL     1      -4.655  -1.115  -7.476  0.00  0.00    -0.176 NA
ATOM      2  C   UNL     1      -3.345  -1.044  -8.137  0.00  0.00    +0.109 C 
ATOM      3  C   UNL     1      -2.530  -2.283  -7.750  0.00  0.00    +0.018 C 
ATOM      4  C   UNL     1      -3.334  -3.542  -8.082  0.00  0.00    +0.015 C 
ATOM      5  C   UNL     1      -4.634  -3.547  -7.274  0.00  0.00    +0.091 C 
ATOM      6  C   UNL     1      -5.470  -2.326  -7.651  0.00  0.00    +0.122 C 
ENDROOT
BRANCH   5   7
ATOM      7  C   UNL     1      -5.409  -4.803  -7.577  0.00  0.00    +0.222 C 
ATOM      8  O   UNL     1      -6.524  -4.729  -8.049  0.00  0.00    -0.275 OA
ATOM      9  N   UNL     1      -4.864  -6.009  -7.323  0.00  0.00    -0.285 N 
ATOM     10  H   UNL     1      -3.949  -6.071  -7.007  0.00  0.00    +0.155 HD
BRANCH   9  11
ATOM     11  C   UNL     1      -5.618  -7.172  -7.516  0.00  0.00    +0.039 A 
ATOM     12  C   UNL     1      -6.875  -7.290  -6.937  0.00  0.00    -0.029 A 
ATOM     13  C   UNL     1      -7.616  -8.440  -7.129  0.00  0.00    +0.008 A 
ATOM     14  C   UNL     1      -7.108  -9.472  -7.896  0.00  0.00    -0.050 A 
ATOM     15  C   UNL     1      -5.856  -9.358  -8.472  0.00  0.00    +0.008 A 
ATOM     16  C   UNL     1      -5.112  -8.209  -8.290  0.00  0.00    -0.029 A 
ATOM     17  C   UNL     1      -3.752  -8.082  -8.924  0.00  0.00    +0.045 C 
ATOM     18  C   UNL     1      -7.920 -10.725  -8.102  0.00  0.00    +0.044 C 
ATOM     19  C   UNL     1      -7.429  -6.166  -6.101  0.00  0.00    +0.045 C 
ENDBRANCH   9  11
ENDBRANCH   5   7
BRANCH   1  20
ATOM     20  S   UNL     1      -5.201   0.142  -6.548  0.00  0.00    +0.061 S 
ATOM     21  O   UNL     1      -6.620   0.117  -6.623  0.00  0.00    -0.153 OA
ATOM     22  O   UNL     1      -4.439   1.283  -6.920  0.00  0.00    -0.153 OA
BRANCH  20  30
ATOM     23  C   UNL     1      -6.088  -1.960  -0.675  0.00  0.00    +0.259 C 
ATOM     24  C   UNL     1      -4.731  -1.615  -0.114  0.00  0.00    +0.258 C 
ATOM     25  O   UNL     1      -4.497  -1.786   1.063  0.00  0.00    -0.271 OA
ATOM     26  N   UNL     1      -3.779  -1.114  -0.928  0.00  0.00    -0.280 N 
ATOM     27  C   UNL     1      -4.107  -0.804  -2.255  0.00  0.00    +0.076 A 
ATOM     28  C   UNL     1      -3.114  -0.507  -3.175  0.00  0.00    +0.032 A 
ATOM     29  C   UNL     1      -3.453  -0.216  -4.484  0.00  0.00    -0.022 A 
ATOM     30  C   UNL     1      -4.779  -0.223  -4.876  0.00  0.00    +0.112 A 
ATOM     31  C   UNL     1      -5.775  -0.513  -3.962  0.00  0.00    +0.076 A 
ATOM     32  C   UNL     1      -5.443  -0.799  -2.648  0.00  0.00    +0.145 A 
ATOM     33  O   UNL     1      -6.415  -1.056  -1.733  0.00  0.00    -0.478 OA
ATOM     34  C   UNL     1      -2.374   0.108  -5.485  0.00  0.00    +0.046 C 
ATOM     35  H   UNL     1      -2.878  -0.969  -0.599  0.00  0.00    +0.155 HD
BRANCH  23  37
ATOM     36  C   UNL     1      -7.473  -3.786  -1.669  0.00  0.00    +0.008 C 
ATOM     37  C   UNL     1      -6.066  -3.391  -1.216  0.00  0.00    +0.051 C 
ENDBRANCH  23  37
ENDBRANCH  20  30
ENDBRANCH   1  20
TORSDOF 5
