REMARK  Name = ZINC39852186
REMARK  6 active torsions:
REMARK  status: ('A' for Active; 'I' for Inactive)
REMARK    1  A    between atoms: C_4  and  C_7
REMARK    2  A    between atoms: C_7  and  C_8
REMARK    3  A    between atoms: N_10  and  N_11
REMARK    4  A    between atoms: C_12  and  C_14
REMARK    5  A    between atoms: C_17  and  N_20
REMARK    6  A    between atoms: C_23  and  C_25
REMARK                            x       y       z     vdW  Elec       q    Type
REMARK                         _______ _______ _______ _____ _____    ______ ____
ROOT
ATOM      1  C   UNL     1       7.348  -2.737   4.541  0.00  0.00    +0.038 A 
ATOM      2  C   UNL     1       6.657  -2.162   5.610  0.00  0.00    +0.015 A 
ATOM      3  C   UNL     1       7.074  -2.394   6.902  0.00  0.00    +0.028 A 
ATOM      4  C   UNL     1       8.181  -3.201   7.143  0.00  0.00    +0.066 A 
ATOM      5  C   UNL     1       8.871  -3.775   6.080  0.00  0.00    +0.028 A 
ATOM      6  C   UNL     1       8.456  -3.552   4.786  0.00  0.00    +0.015 A 
ENDROOT
BRANCH   4   7
ATOM      7  N   UNL     1       8.602  -3.434   8.454  0.00  0.00    -0.231 N 
ATOM      8  C   UNL     1       7.810  -3.707   9.506  0.00  0.00    +0.082 A 
ATOM      9  C   UNL     1       8.623  -3.904  10.610  0.00  0.00    +0.011 A 
ATOM     10  C   UNL     1       9.931  -3.707  10.197  0.00  0.00    +0.169 A 
ATOM     11  N   UNL     1       9.931  -3.431   8.914  0.00  0.00    -0.161 NA
ATOM     12  C   UNL     1       8.082  -4.293  11.959  0.00  0.00    +0.047 C 
ATOM     13  C   UNL     1       6.680  -3.725  12.185  0.00  0.00    +0.080 C 
ATOM     14  C   UNL     1       5.828  -3.861  10.951  0.00  0.00    +0.114 A 
ATOM     15  C   UNL     1       6.356  -3.827   9.681  0.00  0.00    +0.042 A 
ATOM     16  C   UNL     1       5.242  -3.928   8.764  0.00  0.00    +0.051 A 
ATOM     17  C   UNL     1       4.143  -4.043   9.538  0.00  0.00    +0.196 A 
ATOM     18  O   UNL     1       4.511  -4.021  10.833  0.00  0.00    -0.467 OA
BRANCH  10  19
ATOM     19  C   UNL     1      11.152  -3.800  11.075  0.00  0.00    +0.436 C 
ATOM     20  F   UNL     1      11.635  -5.113  11.066  0.00  0.00    -0.164 F 
ATOM     21  F   UNL     1      12.141  -2.937  10.592  0.00  0.00    -0.164 F 
ATOM     22  F   UNL     1      10.815  -3.437  12.384  0.00  0.00    -0.164 F 
ENDBRANCH  10  19
ENDBRANCH   4   7
BRANCH   1  24
ATOM     23  N   UNL     1       5.835  -1.704   2.919  0.00  0.00    -0.230 N 
ATOM     24  C   UNL     1       6.904  -2.490   3.154  0.00  0.00    +0.260 C 
ATOM     25  O   UNL     1       7.503  -2.996   2.225  0.00  0.00    -0.269 OA
ATOM     26  H   UNL     1       5.357  -1.301   3.661  0.00  0.00    +0.173 HD
BRANCH  23  29
ATOM     27  C   UNL     1       4.344  -0.684   1.369  0.00  0.00    +0.233 C 
ATOM     28  O   UNL     1       3.747  -0.180   2.296  0.00  0.00    -0.274 OA
ATOM     29  N   UNL     1       5.413  -1.470   1.604  0.00  0.00    -0.234 N 
ATOM     30  H   UNL     1       5.891  -1.873   0.862  0.00  0.00    +0.173 HD
BRANCH  27  31
ATOM     31  C   UNL     1       3.891  -0.432  -0.046  0.00  0.00    +0.132 C 
BRANCH  31  35
ATOM     32  C   UNL     1       0.472   2.129  -0.014  0.00  0.00    +0.000 A 
ATOM     33  C   UNL     1       1.742   2.672  -0.077  0.00  0.00    +0.000 A 
ATOM     34  C   UNL     1       2.848   1.843  -0.087  0.00  0.00    +0.004 A 
ATOM     35  C   UNL     1       2.685   0.472  -0.034  0.00  0.00    -0.039 A 
ATOM     36  C   UNL     1       1.415  -0.071   0.030  0.00  0.00    +0.004 A 
ATOM     37  C   UNL     1       0.309   0.758   0.039  0.00  0.00    +0.000 A 
ENDBRANCH  31  35
ENDBRANCH  27  31
ENDBRANCH  23  29
ENDBRANCH   1  24
TORSDOF 6
