REMARK  Name = ZINC09866034
REMARK  8 active torsions:
REMARK  status: ('A' for Active; 'I' for Inactive)
REMARK    1  A    between atoms: C_1  and  C_2
REMARK    2  A    between atoms: C_4  and  C_7
REMARK    3  A    between atoms: C_10  and  N_13
REMARK    4  A    between atoms: C_14  and  C_16
REMARK    5  A    between atoms: C_16  and  N_17
REMARK    6  A    between atoms: C_22  and  C_29
REMARK    7  A    between atoms: C_25  and  C_27
REMARK    8  A    between atoms: C_25  and  C_28
REMARK                            x       y       z     vdW  Elec       q    Type
REMARK                         _______ _______ _______ _____ _____    ______ ____
ROOT
ATOM      1  C   UNL     1       8.091  -1.614   0.134  0.00  0.00    +0.214 C 
ENDROOT
BRANCH   1   2
ATOM      2  N   UNL     1       8.119  -3.076   0.223  0.00  0.00    -0.215 N 
ATOM      3  C   UNL     1       8.187  -3.899  -0.845  0.00  0.00    +0.247 C 
ATOM      4  O   UNL     1       8.170  -3.557  -2.008  0.00  0.00    -0.273 OA
ATOM      5  C   UNL     1       8.259  -5.299  -0.285  0.00  0.00    +0.113 C 
ATOM      6  C   UNL     1       7.085  -6.134  -0.776  0.00  0.00    +0.038 C 
ATOM      7  C   UNL     1       7.287  -6.497  -2.248  0.00  0.00    -0.011 C 
ATOM      8  C   UNL     1       8.544  -7.355  -2.368  0.00  0.00    +0.009 C 
ATOM      9  C   UNL     1       9.777  -6.584  -1.913  0.00  0.00    -0.032 C 
ATOM     10  C   UNL     1       9.602  -5.948  -0.545  0.00  0.00    +0.041 C 
ATOM     11  C   UNL     1      10.951  -7.584  -1.827  0.00  0.00    +0.011 C 
ATOM     12  C   UNL     1      10.152  -5.529  -2.958  0.00  0.00    +0.011 C 
ATOM     13  C   UNL     1       6.077  -7.296  -2.744  0.00  0.00    +0.007 C 
ATOM     14  N   UNL     1       8.113  -5.090   1.173  0.00  0.00    -0.285 N 
ATOM     15  C   UNL     1       8.070  -3.762   1.370  0.00  0.00    +0.310 C 
ATOM     16  O   UNL     1       7.996  -3.241   2.466  0.00  0.00    -0.252 OA
ATOM     17  H   UNL     1       8.060  -5.787   1.843  0.00  0.00    +0.151 HD
ENDBRANCH   1   2
BRANCH   1  19
ATOM     18  N   UNL     1       6.390   0.173  -0.056  0.00  0.00    -0.284 N 
ATOM     19  C   UNL     1       6.662  -1.144   0.037  0.00  0.00    +0.235 C 
ATOM     20  O   UNL     1       5.757  -1.951   0.042  0.00  0.00    -0.274 OA
ATOM     21  H   UNL     1       7.115   0.813  -0.137  0.00  0.00    +0.155 HD
BRANCH  18  25
ATOM     22  C   UNL     1       2.437   1.496   0.008  0.00  0.00    +0.001 A 
ATOM     23  C   UNL     1       3.386   2.171  -0.758  0.00  0.00    +0.012 A 
ATOM     24  C   UNL     1       4.694   1.735  -0.773  0.00  0.00    +0.024 A 
ATOM     25  C   UNL     1       5.064   0.617  -0.035  0.00  0.00    +0.033 A 
ATOM     26  C   UNL     1       4.117  -0.061   0.724  0.00  0.00    +0.024 A 
ATOM     27  C   UNL     1       2.809   0.375   0.747  0.00  0.00    +0.012 A 
BRANCH  22  31
ATOM     28  C   UNL     1      -2.304   1.164   1.522  0.00  0.00    +0.073 C 
ATOM     29  C   UNL     1      -1.134   1.748   0.772  0.00  0.00    +0.076 A 
ATOM     30  N   UNL     1       0.111   1.339   0.746  0.00  0.00    -0.244 NA
ATOM     31  C   UNL     1       1.030   1.968   0.031  0.00  0.00    +0.078 A 
ATOM     32  C   UNL     1       0.642   3.066  -0.688  0.00  0.00    +0.075 A 
ATOM     33  S   UNL     1      -1.094   3.137  -0.269  0.00  0.00    -0.080 S 
ENDBRANCH  22  31
ENDBRANCH  18  25
ENDBRANCH   1  19
TORSDOF 4
