REMARK  Name = ZINC40325749
REMARK  4 active torsions:
REMARK  status: ('A' for Active; 'I' for Inactive)
REMARK    1  A    between atoms: C_1  and  C_2
REMARK    2  A    between atoms: C_15  and  C_17
REMARK    3  A    between atoms: C_19  and  N_23
REMARK    4  A    between atoms: N_21  and  C_22
REMARK                            x       y       z     vdW  Elec       q    Type
REMARK                         _______ _______ _______ _____ _____    ______ ____
ROOT
ATOM      1  C   UNL     1       1.335   1.482   1.371  0.00  0.00    +0.008 C 
ATOM      2  C   UNL     1       0.920   0.136   0.775  0.00  0.00    -0.008 C 
ATOM      3  C   UNL     1       1.863  -0.227  -0.376  0.00  0.00    +0.022 C 
ATOM      4  C   UNL     1       1.443  -1.567  -0.986  0.00  0.00    +0.109 C 
ATOM      5  N   UNL     1       1.365  -2.578   0.080  0.00  0.00    -0.293 N 
ATOM      6  C   UNL     1       0.542  -2.281   1.257  0.00  0.00    +0.080 C 
ATOM      7  C   UNL     1       1.001  -0.946   1.851  0.00  0.00    +0.012 C 
ATOM      8  C   UNL     1       0.108  -0.593   3.040  0.00  0.00    +0.005 C 
ATOM      9  C   UNL     1       0.239  -1.687   4.104  0.00  0.00    +0.000 C 
ATOM     10  C   UNL     1      -0.184  -3.035   3.518  0.00  0.00    +0.002 C 
ATOM     11  C   UNL     1       0.695  -3.378   2.309  0.00  0.00    +0.023 C 
ATOM     12  C   UNL     1       2.033  -3.744  -0.022  0.00  0.00    +0.263 C 
ATOM     13  O   UNL     1       2.089  -4.498   0.931  0.00  0.00    -0.268 OA
ENDROOT
BRANCH  12  14
ATOM     14  C   UNL     1       2.692  -4.104  -1.282  0.00  0.00    +0.106 A 
ATOM     15  C   UNL     1       2.317  -3.690  -2.544  0.00  0.00    +0.055 A 
ATOM     16  C   UNL     1       3.217  -4.266  -3.451  0.00  0.00    +0.043 A 
ATOM     17  C   UNL     1       4.106  -5.007  -2.740  0.00  0.00    +0.108 A 
ATOM     18  N   UNL     1       3.798  -4.910  -1.419  0.00  0.00    -0.344 N 
ATOM     19  C   UNL     1       4.522  -5.559  -0.323  0.00  0.00    +0.149 C 
BRANCH  16  20
ATOM     20  N   UNL     1       3.201  -4.107  -4.849  0.00  0.00    -0.357 N 
ATOM     21  H   UNL     1       2.522  -3.555  -5.267  0.00  0.00    +0.142 HD
ATOM     22  H   UNL     1       3.870  -4.549  -5.396  0.00  0.00    +0.142 HD
ENDBRANCH  16  20
ENDBRANCH  12  14
TORSDOF 2
