REMARK  Name = ZINC12250850
REMARK  9 active torsions:
REMARK  status: ('A' for Active; 'I' for Inactive)
REMARK    1  A    between atoms: C_1  and  C_2
REMARK    2  A    between atoms: C_4  and  S_27
REMARK    3  A    between atoms: C_5  and  C_25
REMARK    4  A    between atoms: C_6  and  C_18
REMARK    5  A    between atoms: C_8  and  C_9
REMARK    6  A    between atoms: N_11  and  C_12
REMARK    7  A    between atoms: S_27  and  C_28
REMARK    8  A    between atoms: C_28  and  C_29
REMARK    9  A    between atoms: N_31  and  C_32
REMARK                            x       y       z     vdW  Elec       q    Type
REMARK                         _______ _______ _______ _____ _____    ______ ____
ROOT
ATOM      1  C   UNL     1      -2.506  -1.983   1.589  0.00  0.00    +0.061 C 
ATOM      2  C   UNL     1      -1.774  -2.663   0.461  0.00  0.00    +0.014 C 
ATOM      3  N   UNL     1      -2.338  -2.754  -0.695  0.00  0.00    -0.312 N 
ATOM      4  C   UNL     1      -1.722  -3.355  -1.746  0.00  0.00    +0.080 C 
ATOM      5  C   UNL     1      -0.369  -3.542  -1.746  0.00  0.00    +0.069 C 
ATOM      6  C   UNL     1       0.445  -3.080  -0.563  0.00  0.00    +0.101 C 
ATOM      7  C   UNL     1      -0.399  -3.224   0.706  0.00  0.00    +0.044 C 
ATOM      8  H   UNL     1      -3.344  -2.338  -0.851  0.00  0.00    +0.152 HD
ENDROOT
BRANCH   6   9
ATOM      9  C   UNL     1       0.832  -1.636  -0.750  0.00  0.00    +0.000 A 
ATOM     10  C   UNL     1      -0.146  -0.670  -0.890  0.00  0.00    +0.007 A 
ATOM     11  C   UNL     1       0.209   0.655  -1.062  0.00  0.00    +0.000 A 
ATOM     12  C   UNL     1       1.543   1.015  -1.094  0.00  0.00    +0.003 A 
ATOM     13  C   UNL     1       2.523   0.051  -0.954  0.00  0.00    +0.038 A 
ATOM     14  C   UNL     1       2.169  -1.276  -0.782  0.00  0.00    +0.127 A 
ATOM     15  F   UNL     1       3.126  -2.219  -0.645  0.00  0.00    -0.205 F 
ENDBRANCH   6   9
BRANCH   7  16
ATOM     16  C   UNL     1       0.258  -2.471   1.834  0.00  0.00    +0.247 C 
ATOM     17  O   UNL     1       1.247  -1.802   1.622  0.00  0.00    -0.270 OA
ATOM     18  N   UNL     1      -0.255  -2.540   3.079  0.00  0.00    -0.282 N 
ATOM     19  H   UNL     1      -1.096  -3.216   3.290  0.00  0.00    +0.155 HD
BRANCH  18  20
ATOM     20  C   UNL     1       0.284  -1.753   4.102  0.00  0.00    +0.034 A 
ATOM     21  C   UNL     1       0.319  -2.232   5.405  0.00  0.00    +0.023 A 
ATOM     22  C   UNL     1       0.856  -1.455   6.412  0.00  0.00    +0.002 A 
ATOM     23  C   UNL     1       1.350  -0.195   6.125  0.00  0.00    +0.000 A 
ATOM     24  C   UNL     1       1.312   0.288   4.830  0.00  0.00    +0.002 A 
ATOM     25  C   UNL     1       0.781  -0.487   3.818  0.00  0.00    +0.023 A 
ENDBRANCH  18  20
ENDBRANCH   7  16
BRANCH   5  26
ATOM     26  C   UNL     1       0.272  -4.172  -2.861  0.00  0.00    +0.098 C 
ATOM     27  N   UNL     1       0.781  -4.672  -3.745  0.00  0.00    -0.191 NA
ENDBRANCH   5  26
BRANCH   4  28
ATOM     28  S   UNL     1      -2.678  -3.898  -3.123  0.00  0.00    -0.100 S 
BRANCH  28  29
ATOM     29  C   UNL     1      -4.330  -3.401  -2.575  0.00  0.00    +0.171 C 
BRANCH  29  30
ATOM     30  C   UNL     1      -5.342  -3.776  -3.626  0.00  0.00    +0.227 C 
ATOM     31  O   UNL     1      -4.982  -4.326  -4.646  0.00  0.00    -0.275 OA
ATOM     32  N   UNL     1      -6.647  -3.501  -3.433  0.00  0.00    -0.285 N 
ATOM     33  H   UNL     1      -6.964  -2.927  -2.550  0.00  0.00    +0.155 HD
BRANCH  32  34
ATOM     34  C   UNL     1      -7.600  -3.946  -4.357  0.00  0.00    +0.033 A 
ATOM     35  C   UNL     1      -8.732  -3.183  -4.611  0.00  0.00    +0.023 A 
ATOM     36  C   UNL     1      -9.668  -3.623  -5.526  0.00  0.00    +0.002 A 
ATOM     37  C   UNL     1      -9.484  -4.826  -6.182  0.00  0.00    +0.000 A 
ATOM     38  C   UNL     1      -8.360  -5.590  -5.928  0.00  0.00    +0.002 A 
ATOM     39  C   UNL     1      -7.418  -5.154  -5.017  0.00  0.00    +0.023 A 
ENDBRANCH  32  34
ENDBRANCH  29  30
ENDBRANCH  28  29
ENDBRANCH   4  28
TORSDOF 8
