REMARK  Name = ZINC25897831
REMARK  7 active torsions:
REMARK  status: ('A' for Active; 'I' for Inactive)
REMARK    1  A    between atoms: C_1  and  C_2
REMARK    2  A    between atoms: C_2  and  C_3
REMARK    3  A    between atoms: C_2  and  C_4
REMARK    4  A    between atoms: C_2  and  N_23
REMARK    5  A    between atoms: C_4  and  N_5
REMARK    6  A    between atoms: C_6  and  C_8
REMARK    7  A    between atoms: N_16  and  C_17
REMARK                            x       y       z     vdW  Elec       q    Type
REMARK                         _______ _______ _______ _____ _____    ______ ____
ROOT
ATOM      1  N   UNL     1      -0.635   0.506   2.037  0.00  0.00    -0.316 N 
ATOM      2  C   UNL     1      -0.627   0.337   3.374  0.00  0.00    +0.216 C 
ATOM      3  O   UNL     1      -0.010  -0.585   3.865  0.00  0.00    -0.276 OA
ATOM      4  H   UNL     1      -1.195   1.342   1.592  0.00  0.00    +0.149 HD
ENDROOT
BRANCH   2   5
ATOM      5  C   UNL     1      -1.385   1.292   4.259  0.00  0.00    +0.078 C 
ATOM      6  C   UNL     1      -0.843   2.710   4.061  0.00  0.00    +0.032 C 
ATOM      7  C   UNL     1      -1.638   3.683   4.936  0.00  0.00    +0.110 C 
ATOM      8  N   UNL     1      -1.598   3.210   6.327  0.00  0.00    -0.285 N 
ATOM      9  C   UNL     1      -2.012   1.831   6.616  0.00  0.00    +0.110 C 
ATOM     10  C   UNL     1      -1.212   0.878   5.722  0.00  0.00    +0.032 C 
ATOM     11  C   UNL     1      -1.189   4.027   7.318  0.00  0.00    +0.306 C 
ATOM     12  O   UNL     1      -1.247   3.655   8.474  0.00  0.00    -0.252 OA
ATOM     13  N   UNL     1      -0.716   5.255   7.028  0.00  0.00    -0.269 N 
ATOM     14  H   UNL     1      -0.746   5.625   5.992  0.00  0.00    +0.156 HD
BRANCH  13  15
ATOM     15  C   UNL     1      -0.186   6.059   8.043  0.00  0.00    +0.035 A 
ATOM     16  C   UNL     1       0.482   5.478   9.113  0.00  0.00    +0.023 A 
ATOM     17  C   UNL     1       1.008   6.275  10.111  0.00  0.00    +0.002 A 
ATOM     18  C   UNL     1       0.861   7.649  10.052  0.00  0.00    +0.000 A 
ATOM     19  C   UNL     1       0.191   8.229   8.990  0.00  0.00    +0.002 A 
ATOM     20  C   UNL     1      -0.332   7.439   7.986  0.00  0.00    +0.023 A 
ENDBRANCH  13  15
ENDBRANCH   2   5
BRANCH   1  21
ATOM     21  C   UNL     1       0.102  -0.423   1.177  0.00  0.00    +0.092 C 
BRANCH  21  23
ATOM     22  C   UNL     1       0.699  -0.980  -1.185  0.00  0.00    -0.008 C 
ATOM     23  C   UNL     1      -0.071  -0.009  -0.286  0.00  0.00    -0.055 C 
ATOM     24  C   UNL     1      -1.555  -0.042  -0.654  0.00  0.00    -0.008 C 
BRANCH  23  25
ATOM     25  N   UNL     1       0.451   1.351  -0.475  0.00  0.00    +0.387 N 
ATOM     26  C   UNL     1       0.301   1.784  -1.874  0.00  0.00    -0.073 C 
ATOM     27  C   UNL     1       0.508   3.297  -1.938  0.00  0.00    +0.017 C 
ATOM     28  C   UNL     1       1.783   3.674  -1.227  0.00  0.00    -0.048 A 
ATOM     29  C   UNL     1       2.330   4.925  -1.468  0.00  0.00    +0.004 A 
ATOM     30  C   UNL     1       3.494   5.311  -0.834  0.00  0.00    +0.000 A 
ATOM     31  C   UNL     1       4.118   4.445   0.044  0.00  0.00    +0.000 A 
ATOM     32  C   UNL     1       3.576   3.198   0.282  0.00  0.00    +0.002 A 
ATOM     33  C   UNL     1       2.407   2.809  -0.354  0.00  0.00    -0.061 A 
ATOM     34  C   UNL     1       1.856   1.437  -0.065  0.00  0.00    -0.042 C 
ATOM     35  H   UNL     1      -0.137   2.025   0.165  0.00  0.00    -0.080 HD
ENDBRANCH  23  25
ENDBRANCH  21  23
ENDBRANCH   1  21
TORSDOF 5
