REMARK  Name = ZINC38684517
REMARK  9 active torsions:
REMARK  status: ('A' for Active; 'I' for Inactive)
REMARK    1  A    between atoms: C_2  and  C_3
REMARK    2  A    between atoms: C_3  and  O_4
REMARK    3  A    between atoms: O_4  and  C_5
REMARK    4  A    between atoms: C_9  and  C_11
REMARK    5  A    between atoms: C_16  and  O_25
REMARK    6  A    between atoms: C_20  and  N_24
REMARK    7  A    between atoms: C_21  and  C_22
REMARK    8  A    between atoms: O_25  and  C_26
REMARK    9  A    between atoms: C_26  and  C_28
REMARK                            x       y       z     vdW  Elec       q    Type
REMARK                         _______ _______ _______ _____ _____    ______ ____
ROOT
ATOM      1  C   UNL     1      -3.411  -5.565  -3.092  0.00  0.00    +0.098 C 
ATOM      2  C   UNL     1      -4.522  -5.377  -4.090  0.00  0.00    +0.008 A 
ATOM      3  C   UNL     1      -4.413  -4.388  -5.052  0.00  0.00    +0.012 A 
ATOM      4  C   UNL     1      -5.422  -4.201  -5.976  0.00  0.00    +0.047 A 
ATOM      5  C   UNL     1      -6.552  -5.006  -5.941  0.00  0.00    +0.135 A 
ATOM      6  C   UNL     1      -6.665  -5.997  -4.979  0.00  0.00    +0.093 A 
ATOM      7  C   UNL     1      -5.649  -6.183  -4.051  0.00  0.00    +0.138 A 
ATOM      8  O   UNL     1      -5.774  -7.157  -3.116  0.00  0.00    -0.441 OA
ATOM      9  C   UNL     1      -4.686  -7.614  -2.474  0.00  0.00    +0.199 C 
ATOM     10  C   UNL     1      -3.536  -6.907  -2.426  0.00  0.00    +0.098 C 
ENDROOT
BRANCH   1  15
ATOM     11  C   UNL     1      -2.499  -2.614  -0.916  0.00  0.00    +0.121 A 
ATOM     12  C   UNL     1      -3.635  -2.491  -0.129  0.00  0.00    +0.045 A 
ATOM     13  C   UNL     1      -4.693  -3.362  -0.305  0.00  0.00    +0.004 A 
ATOM     14  C   UNL     1      -4.619  -4.356  -1.264  0.00  0.00    +0.005 A 
ATOM     15  C   UNL     1      -3.488  -4.481  -2.049  0.00  0.00    -0.031 A 
ATOM     16  C   UNL     1      -2.430  -3.608  -1.880  0.00  0.00    +0.050 A 
BRANCH  11  17
ATOM     17  O   UNL     1      -1.457  -1.758  -0.745  0.00  0.00    -0.488 OA
BRANCH  17  18
ATOM     18  C   UNL     1      -1.598  -0.759   0.267  0.00  0.00    +0.256 C 
BRANCH  18  20
ATOM     19  C   UNL     1      -0.454   1.395   0.386  0.00  0.00    +0.007 C 
ATOM     20  C   UNL     1      -0.354   0.091   0.311  0.00  0.00    +0.006 C 
ENDBRANCH  18  20
ENDBRANCH  17  18
ENDBRANCH  11  17
ENDBRANCH   1  15
BRANCH   9  21
ATOM     21  N   UNL     1      -4.745  -8.835  -1.849  0.00  0.00    -0.328 N 
ATOM     22  H   UNL     1      -5.565  -9.353  -1.874  0.00  0.00    +0.145 HD
ATOM     23  H   UNL     1      -3.968  -9.178  -1.381  0.00  0.00    +0.145 HD
ENDBRANCH   9  21
BRANCH  10  24
ATOM     24  C   UNL     1      -2.412  -7.450  -1.725  0.00  0.00    +0.101 C 
ATOM     25  N   UNL     1      -1.520  -7.881  -1.169  0.00  0.00    -0.191 NA
ENDBRANCH  10  24
BRANCH   5  26
ATOM     26  O   UNL     1      -7.546  -4.823  -6.849  0.00  0.00    -0.422 OA
BRANCH  26  27
ATOM     27  C   UNL     1      -7.298  -5.145  -8.133  0.00  0.00    +0.344 C 
ATOM     28  O   UNL     1      -6.250  -5.682  -8.433  0.00  0.00    -0.245 OA
BRANCH  27  29
ATOM     29  C   UNL     1      -8.299  -4.847  -9.177  0.00  0.00    +0.059 A 
ATOM     30  C   UNL     1      -9.502  -4.225  -8.837  0.00  0.00    +0.016 A 
ATOM     31  C   UNL     1     -10.433  -3.949  -9.816  0.00  0.00    +0.016 A 
ATOM     32  C   UNL     1     -10.177  -4.287 -11.134  0.00  0.00    +0.018 A 
ATOM     33  C   UNL     1      -8.985  -4.904 -11.478  0.00  0.00    +0.016 A 
ATOM     34  C   UNL     1      -8.044  -5.180 -10.509  0.00  0.00    +0.016 A 
ATOM     35 BR   UNL     1     -11.459  -3.905 -12.471  0.00  0.00    -0.050 Br
ENDBRANCH  27  29
ENDBRANCH  26  27
ENDBRANCH   5  26
TORSDOF 9
