REMARK  Name = ZINC16608985
REMARK  12 active torsions:
REMARK  status: ('A' for Active; 'I' for Inactive)
REMARK    1  A    between atoms: C_1  and  C_2
REMARK    2  A    between atoms: C_3  and  C_30
REMARK    3  A    between atoms: C_4  and  C_11
REMARK    4  A    between atoms: N_9  and  C_10
REMARK    5  A    between atoms: C_14  and  N_17
REMARK    6  A    between atoms: C_18  and  C_20
REMARK    7  A    between atoms: C_23  and  C_26
REMARK    8  A    between atoms: C_30  and  O_32
REMARK    9  A    between atoms: O_32  and  C_33
REMARK   10  A    between atoms: C_33  and  C_34
REMARK   11  A    between atoms: C_34  and  C_35
REMARK   12  A    between atoms: C_34  and  C_36
REMARK                            x       y       z     vdW  Elec       q    Type
REMARK                         _______ _______ _______ _____ _____    ______ ____
ROOT
ATOM      1  C   UNL     1       2.293  -0.528  -2.415  0.00  0.00    -0.022 A 
ATOM      2  C   UNL     1       3.182  -1.140  -1.551  0.00  0.00    +0.007 A 
ATOM      3  C   UNL     1       3.883  -0.385  -0.631  0.00  0.00    +0.023 A 
ATOM      4  C   UNL     1       3.685   0.988  -0.567  0.00  0.00    +0.034 A 
ATOM      5  C   UNL     1       2.787   1.599  -1.433  0.00  0.00    +0.023 A 
ATOM      6  C   UNL     1       2.094   0.839  -2.354  0.00  0.00    +0.007 A 
ENDROOT
BRANCH   1  10
ATOM      7  C   UNL     1      -0.850  -4.053  -2.043  0.00  0.00    +0.061 C 
ATOM      8  C   UNL     1       0.294  -3.359  -2.738  0.00  0.00    +0.021 C 
ATOM      9  C   UNL     1       0.371  -2.011  -2.706  0.00  0.00    +0.078 C 
ATOM     10  C   UNL     1       1.534  -1.354  -3.422  0.00  0.00    +0.141 C 
ATOM     11  N   UNL     1       2.498  -2.247  -4.088  0.00  0.00    -0.315 N 
ATOM     12  C   UNL     1       2.285  -3.577  -4.031  0.00  0.00    +0.137 C 
ATOM     13  S   UNL     1       3.393  -4.627  -4.806  0.00  0.00    -0.018 S 
ATOM     14  N   UNL     1       1.235  -4.104  -3.387  0.00  0.00    -0.289 N 
ATOM     15  C   UNL     1       1.089  -5.561  -3.381  0.00  0.00    +0.137 C 
ATOM     16  H   UNL     1       3.265  -1.887  -4.559  0.00  0.00    +0.149 HD
BRANCH   9  17
ATOM     17  C   UNL     1      -0.604  -1.238  -2.034  0.00  0.00    +0.339 C 
ATOM     18  O   UNL     1      -1.531  -1.787  -1.468  0.00  0.00    -0.245 OA
BRANCH  17  19
ATOM     19  O   UNL     1      -0.506   0.107  -2.019  0.00  0.00    -0.461 OA
BRANCH  19  20
ATOM     20  C   UNL     1      -1.525   0.825  -1.320  0.00  0.00    +0.235 C 
BRANCH  20  21
ATOM     21  C   UNL     1      -1.247   2.326  -1.413  0.00  0.00    +0.020 C 
ATOM     22  C   UNL     1      -1.361   2.777  -2.870  0.00  0.00    +0.010 C 
ATOM     23  C   UNL     1      -2.267   3.087  -0.562  0.00  0.00    +0.010 C 
ENDBRANCH  20  21
ENDBRANCH  19  20
ENDBRANCH  17  19
ENDBRANCH   9  17
ENDBRANCH   1  10
BRANCH   4  24
ATOM     24  N   UNL     1       4.388   1.755   0.368  0.00  0.00    -0.282 N 
ATOM     25  C   UNL     1       5.659   1.435   0.683  0.00  0.00    +0.248 C 
ATOM     26  O   UNL     1       6.226   0.541   0.085  0.00  0.00    -0.270 OA
ATOM     27  H   UNL     1       3.961   2.517   0.790  0.00  0.00    +0.155 HD
BRANCH  25  28
ATOM     28  C   UNL     1       6.363   2.170   1.754  0.00  0.00    +0.037 A 
ATOM     29  C   UNL     1       5.716   3.201   2.439  0.00  0.00    +0.013 A 
ATOM     30  C   UNL     1       6.377   3.880   3.441  0.00  0.00    +0.013 A 
ATOM     31  C   UNL     1       7.681   3.549   3.762  0.00  0.00    +0.055 A 
ATOM     32  C   UNL     1       8.330   2.532   3.084  0.00  0.00    +0.013 A 
ATOM     33  C   UNL     1       7.679   1.841   2.083  0.00  0.00    +0.013 A 
BRANCH  31  34
ATOM     34  C   UNL     1       8.399   4.299   4.854  0.00  0.00    +0.417 C 
ATOM     35  F   UNL     1       9.060   5.403   4.305  0.00  0.00    -0.166 F 
ATOM     36  F   UNL     1       7.472   4.737   5.806  0.00  0.00    -0.166 F 
ATOM     37  F   UNL     1       9.331   3.454   5.465  0.00  0.00    -0.166 F 
ENDBRANCH  31  34
ENDBRANCH  25  28
ENDBRANCH   4  24
TORSDOF 8
