REMARK  Name = ZINC63062011
REMARK  5 active torsions:
REMARK  status: ('A' for Active; 'I' for Inactive)
REMARK    1  A    between atoms: C_1  and  C_2
REMARK    2  A    between atoms: C_7  and  O_8
REMARK    3  A    between atoms: O_8  and  C_9
REMARK    4  A    between atoms: C_12  and  C_15
REMARK    5  A    between atoms: N_16  and  O_17
REMARK                            x       y       z     vdW  Elec       q    Type
REMARK                         _______ _______ _______ _____ _____    ______ ____
ROOT
ATOM      1  C   UNL     1      -0.058  -0.756   3.524  0.00  0.00    +0.220 A 
ATOM      2  C   UNL     1      -0.169  -0.099   4.745  0.00  0.00    +0.068 A 
ATOM      3  C   UNL     1      -0.255  -0.841   5.906  0.00  0.00    +0.018 A 
ATOM      4  C   UNL     1      -0.226  -2.239   5.806  0.00  0.00    +0.036 A 
ATOM      5  C   UNL     1      -0.112  -2.824   4.546  0.00  0.00    +0.126 A 
ATOM      6  N   UNL     1      -0.038  -2.078   3.463  0.00  0.00    -0.220 NA
ENDROOT
BRANCH   4   7
ATOM      7  C   UNL     1      -0.313  -3.080   7.020  0.00  0.00    +0.164 C 
ATOM      8  N   UNL     1      -0.418  -2.523   8.191  0.00  0.00    -0.071 NA
ATOM      9  N   UNL     1      -0.283  -4.460   6.910  0.00  0.00    -0.340 N 
ATOM     10  H   UNL     1      -0.205  -4.875   6.036  0.00  0.00    +0.144 HD
ATOM     11  H   UNL     1      -0.341  -5.011   7.705  0.00  0.00    +0.144 HD
BRANCH   8  12
ATOM     12  O   UNL     1      -0.502  -3.328   9.353  0.00  0.00    -0.408 OA
ATOM     13  H   UNL     1      -0.578  -2.825  10.175  0.00  0.00    +0.328 HD
ENDBRANCH   8  12
ENDBRANCH   4   7
BRANCH   1  14
ATOM     14  O   UNL     1       0.025  -0.033   2.381  0.00  0.00    -0.438 OA
BRANCH  14  21
ATOM     15  C   UNL     1       2.527  -0.942   1.436  0.00  0.00    +0.047 C 
ATOM     16  C   UNL     1       1.242  -1.177   0.686  0.00  0.00    -0.007 A 
ATOM     17  C   UNL     1       1.256  -1.866  -0.512  0.00  0.00    +0.022 A 
ATOM     18  C   UNL     1       0.076  -2.081  -1.201  0.00  0.00    +0.018 A 
ATOM     19  C   UNL     1      -1.121  -1.606  -0.693  0.00  0.00    +0.019 A 
ATOM     20  C   UNL     1      -1.139  -0.917   0.504  0.00  0.00    +0.047 A 
ATOM     21  C   UNL     1       0.042  -0.706   1.200  0.00  0.00    +0.133 A 
ATOM     22 BR   UNL     1       0.098  -3.023  -2.840  0.00  0.00    -0.050 Br
ENDBRANCH  14  21
ENDBRANCH   1  14
TORSDOF 4
