REMARK  Name = ZINC26456482
REMARK  6 active torsions:
REMARK  status: ('A' for Active; 'I' for Inactive)
REMARK    1  A    between atoms: C_1  and  C_2
REMARK    2  A    between atoms: C_6  and  N_8
REMARK    3  A    between atoms: C_9  and  C_11
REMARK    4  A    between atoms: C_12  and  C_36
REMARK    5  A    between atoms: C_16  and  C_18
REMARK    6  A    between atoms: C_28  and  C_31
REMARK                            x       y       z     vdW  Elec       q    Type
REMARK                         _______ _______ _______ _____ _____    ______ ____
ROOT
ATOM      1  C   UNL     1       0.523   2.976   6.808  0.00  0.00    +0.043 C 
ATOM      2  C   UNL     1       0.006   3.352   7.990  0.00  0.00    +0.014 C 
ATOM      3  N   UNL     1       0.817   3.519   9.079  0.00  0.00    -0.321 N 
ATOM      4  C   UNL     1       2.164   3.710   8.921  0.00  0.00    +0.016 C 
ATOM      5  C   UNL     1       2.776   3.358   7.771  0.00  0.00    +0.024 C 
ATOM      6  C   UNL     1       1.994   2.733   6.643  0.00  0.00    +0.090 C 
ATOM      7  C   UNL     1       4.154   3.564   7.590  0.00  0.00    +0.162 C 
ATOM      8  O   UNL     1       4.676   3.227   6.545  0.00  0.00    -0.292 OA
ATOM      9  C   UNL     1       4.996   4.195   8.665  0.00  0.00    +0.091 C 
ATOM     10  C   UNL     1       4.116   5.131   9.502  0.00  0.00    +0.068 C 
ATOM     11  C   UNL     1       2.942   4.324  10.059  0.00  0.00    +0.062 C 
ATOM     12  C   UNL     1      -1.477   3.585   8.118  0.00  0.00    +0.061 C 
ATOM     13  H   UNL     1       0.389   3.500  10.091  0.00  0.00    +0.152 HD
ENDROOT
BRANCH   6  14
ATOM     14  C   UNL     1       2.252   1.248   6.625  0.00  0.00    -0.035 A 
ATOM     15  C   UNL     1       1.906   0.475   7.718  0.00  0.00    +0.006 A 
ATOM     16  C   UNL     1       2.137  -0.888   7.700  0.00  0.00    +0.020 A 
ATOM     17  C   UNL     1       2.724  -1.476   6.594  0.00  0.00    +0.041 A 
ATOM     18  C   UNL     1       3.075  -0.700   5.503  0.00  0.00    +0.020 A 
ATOM     19  C   UNL     1       2.838   0.661   5.520  0.00  0.00    +0.006 A 
ATOM     20 CL   UNL     1       3.020  -3.186   6.574  0.00  0.00    -0.084 Cl
ENDBRANCH   6  14
BRANCH  10  21
ATOM     21  C   UNL     1       4.923   5.702  10.639  0.00  0.00    +0.109 A 
ATOM     22  C   UNL     1       5.152   7.008  10.864  0.00  0.00    +0.045 A 
ATOM     23  C   UNL     1       5.947   7.090  12.030  0.00  0.00    +0.041 A 
ATOM     24  C   UNL     1       6.163   5.829  12.444  0.00  0.00    +0.195 A 
ATOM     25  O   UNL     1       5.541   4.992  11.598  0.00  0.00    -0.468 OA
ENDBRANCH  10  21
BRANCH   1  27
ATOM     26  N   UNL     1      -1.131   1.725   5.611  0.00  0.00    -0.267 N 
ATOM     27  C   UNL     1      -0.338   2.812   5.695  0.00  0.00    +0.248 C 
ATOM     28  O   UNL     1      -0.362   3.652   4.815  0.00  0.00    -0.270 OA
ATOM     29  H   UNL     1      -1.169   1.006   6.443  0.00  0.00    +0.157 HD
BRANCH  26  35
ATOM     30  C   UNL     1      -2.656   3.349   1.371  0.00  0.00    +0.065 C 
ATOM     31  C   UNL     1      -2.651   2.270   2.424  0.00  0.00    +0.040 A 
ATOM     32  C   UNL     1      -3.401   1.127   2.231  0.00  0.00    +0.023 A 
ATOM     33  C   UNL     1      -3.389   0.134   3.201  0.00  0.00    +0.005 A 
ATOM     34  C   UNL     1      -2.628   0.334   4.340  0.00  0.00    +0.044 A 
ATOM     35  C   UNL     1      -1.901   1.512   4.470  0.00  0.00    +0.125 A 
ATOM     36  N   UNL     1      -1.934   2.433   3.519  0.00  0.00    -0.237 NA
ENDBRANCH  26  35
ENDBRANCH   1  27
TORSDOF 4
