REMARK  Name = ZINC12609247
REMARK  8 active torsions:
REMARK  status: ('A' for Active; 'I' for Inactive)
REMARK    1  A    between atoms: C_1  and  C_2
REMARK    2  A    between atoms: C_2  and  C_4
REMARK    3  A    between atoms: C_2  and  N_19
REMARK    4  A    between atoms: N_6  and  C_7
REMARK    5  A    between atoms: C_8  and  C_17
REMARK    6  A    between atoms: N_19  and  C_20
REMARK    7  A    between atoms: C_24  and  S_26
REMARK    8  A    between atoms: S_26  and  N_29
REMARK                            x       y       z     vdW  Elec       q    Type
REMARK                         _______ _______ _______ _____ _____    ______ ____
ROOT
ATOM      1  C   UNL     1      -0.535  -2.977  -1.445  0.00  0.00    +0.038 C 
ATOM      2  C   UNL     1      -0.019  -2.830  -0.012  0.00  0.00    +0.154 C 
ENDROOT
BRANCH   2   3
ATOM      3  C   UNL     1       0.218  -4.196   0.579  0.00  0.00    +0.238 C 
ATOM      4  O   UNL     1       1.327  -4.510   0.957  0.00  0.00    -0.273 OA
ATOM      5  N   UNL     1      -0.803  -5.069   0.689  0.00  0.00    -0.277 N 
ATOM      6  H   UNL     1      -1.690  -4.818   0.387  0.00  0.00    +0.155 HD
BRANCH   5   7
ATOM      7  C   UNL     1      -0.585  -6.327   1.234  0.00  0.00    +0.090 A 
ATOM      8  C   UNL     1      -1.497  -7.351   1.428  0.00  0.00    +0.084 A 
ATOM      9  C   UNL     1      -1.011  -8.588   2.023  0.00  0.00    -0.018 A 
ATOM     10  C   UNL     1       0.303  -8.593   2.333  0.00  0.00    -0.004 A 
ATOM     11  S   UNL     1       0.896  -7.000   1.829  0.00  0.00    -0.077 S 
ATOM     12  C   UNL     1       1.091  -9.698   2.965  0.00  0.00    +0.043 C 
ATOM     13  C   UNL     1       0.805 -11.010   2.222  0.00  0.00    +0.005 C 
ATOM     14  C   UNL     1      -0.393 -11.686   2.880  0.00  0.00    +0.001 C 
ATOM     15  C   UNL     1      -1.367 -10.634   3.408  0.00  0.00    +0.005 C 
ATOM     16  C   UNL     1      -1.915  -9.791   2.261  0.00  0.00    +0.037 C 
BRANCH   8  17
ATOM     17  C   UNL     1      -2.871  -7.199   1.055  0.00  0.00    +0.102 C 
ATOM     18  N   UNL     1      -3.961  -7.078   0.760  0.00  0.00    -0.191 NA
ENDBRANCH   8  17
ENDBRANCH   5   7
ENDBRANCH   2   3
BRANCH   2  19
ATOM     19  N   UNL     1       1.238  -2.077  -0.021  0.00  0.00    -0.333 N 
ATOM     20  H   UNL     1       2.086  -2.549  -0.031  0.00  0.00    +0.147 HD
BRANCH  19  21
ATOM     21  C   UNL     1       1.215  -0.681  -0.013  0.00  0.00    +0.030 A 
ATOM     22  C   UNL     1       0.002  -0.004   0.002  0.00  0.00    +0.023 A 
ATOM     23  C   UNL     1      -0.017   1.377   0.010  0.00  0.00    +0.004 A 
ATOM     24  C   UNL     1       1.171   2.086   0.002  0.00  0.00    +0.028 A 
ATOM     25  C   UNL     1       2.380   1.416  -0.013  0.00  0.00    +0.107 A 
ATOM     26  C   UNL     1       2.406   0.035  -0.021  0.00  0.00    +0.051 A 
BRANCH  25  27
ATOM     27  S   UNL     1       3.889   2.324  -0.023  0.00  0.00    +0.061 S 
ATOM     28  O   UNL     1       3.601   3.598   0.538  0.00  0.00    -0.153 OA
ATOM     29  O   UNL     1       4.885   1.464   0.514  0.00  0.00    -0.153 OA
BRANCH  27  30
ATOM     30  N   UNL     1       4.294   2.585  -1.607  0.00  0.00    -0.177 NA
ATOM     31  C   UNL     1       5.124   1.700  -2.437  0.00  0.00    +0.109 C 
ATOM     32  C   UNL     1       5.249   2.358  -3.827  0.00  0.00    +0.018 C 
ATOM     33  C   UNL     1       4.961   3.853  -3.528  0.00  0.00    +0.018 C 
ATOM     34  C   UNL     1       3.886   3.747  -2.418  0.00  0.00    +0.109 C 
ENDBRANCH  27  30
ENDBRANCH  25  27
ENDBRANCH  19  21
ENDBRANCH   2  19
TORSDOF 7
