REMARK  Name = ZINC33063341
REMARK  5 active torsions:
REMARK  status: ('A' for Active; 'I' for Inactive)
REMARK    1  A    between atoms: C_4  and  C_7
REMARK    2  A    between atoms: C_7  and  N_8
REMARK    3  A    between atoms: C_9  and  C_11
REMARK    4  A    between atoms: C_14  and  C_17
REMARK    5  A    between atoms: C_22  and  C_30
REMARK                            x       y       z     vdW  Elec       q    Type
REMARK                         _______ _______ _______ _____ _____    ______ ____
ROOT
ATOM      1  C   UNL     1       0.994   6.101   0.420  0.00  0.00    +0.191 C 
ATOM      2  N   UNL     1      -0.108   5.245  -0.013  0.00  0.00    -0.322 N 
ATOM      3  C   UNL     1      -0.050   3.854   0.010  0.00  0.00    +0.056 A 
ATOM      4  C   UNL     1      -1.242   3.131   0.024  0.00  0.00    +0.037 A 
ATOM      5  C   UNL     1      -1.219   1.753   0.017  0.00  0.00    +0.057 A 
ATOM      6  C   UNL     1      -0.013   1.076   0.008  0.00  0.00    +0.014 A 
ATOM      7  C   UNL     1       1.175   1.785   0.000  0.00  0.00    +0.031 A 
ATOM      8  C   UNL     1       1.155   3.164   0.008  0.00  0.00    +0.126 A 
ATOM      9  S   UNL     1       2.675   4.066   0.034  0.00  0.00    +0.062 S 
ATOM     10  O   UNL     1       3.173   4.002   1.363  0.00  0.00    -0.153 OA
ATOM     11  O   UNL     1       3.429   3.641  -1.093  0.00  0.00    -0.153 OA
ATOM     12  N   UNL     1       2.233   5.651  -0.245  0.00  0.00    -0.166 NA
ATOM     13  H   UNL     1      -1.043   5.694  -0.379  0.00  0.00    +0.148 HD
ATOM     14  H   UNL     1       2.712   6.287  -1.004  0.00  0.00    +0.150 HD
ENDROOT
BRANCH   1  18
ATOM     15  C   UNL     1       1.456   5.814   4.661  0.00  0.00    +0.037 A 
ATOM     16  C   UNL     1       2.562   6.078   3.852  0.00  0.00    +0.013 A 
ATOM     17  C   UNL     1       2.406   6.169   2.484  0.00  0.00    +0.007 A 
ATOM     18  C   UNL     1       1.157   6.000   1.914  0.00  0.00    -0.011 A 
ATOM     19  C   UNL     1       0.055   5.743   2.711  0.00  0.00    +0.007 A 
ATOM     20  C   UNL     1       0.198   5.644   4.080  0.00  0.00    +0.013 A 
BRANCH  15  22
ATOM     21  N   UNL     1       0.545   5.459   6.906  0.00  0.00    -0.307 N 
ATOM     22  C   UNL     1       1.616   5.715   6.128  0.00  0.00    +0.244 C 
ATOM     23  O   UNL     1       2.712   5.863   6.631  0.00  0.00    -0.270 OA
ATOM     24  H   UNL     1      -0.447   5.324   6.451  0.00  0.00    +0.149 HD
BRANCH  21  25
ATOM     25  C   UNL     1       0.704   5.361   8.359  0.00  0.00    +0.139 C 
BRANCH  25  29
ATOM     26  C   UNL     1      -3.086   4.541  10.153  0.00  0.00    +0.000 A 
ATOM     27  C   UNL     1      -2.266   3.499   9.760  0.00  0.00    +0.000 A 
ATOM     28  C   UNL     1      -1.040   3.764   9.180  0.00  0.00    +0.005 A 
ATOM     29  C   UNL     1      -0.633   5.072   8.992  0.00  0.00    -0.030 A 
ATOM     30  C   UNL     1      -1.450   6.114   9.389  0.00  0.00    +0.005 A 
ATOM     31  C   UNL     1      -2.678   5.849   9.965  0.00  0.00    +0.000 A 
ENDBRANCH  25  29
ENDBRANCH  21  25
ENDBRANCH  15  22
ENDBRANCH   1  18
BRANCH   5  32
ATOM     32  C   UNL     1      -2.513   0.980   0.027  0.00  0.00    +0.417 C 
ATOM     33  F   UNL     1      -2.237  -0.392   0.024  0.00  0.00    -0.166 F 
ATOM     34  F   UNL     1      -3.243   1.306   1.175  0.00  0.00    -0.166 F 
ATOM     35  F   UNL     1      -3.260   1.308  -1.110  0.00  0.00    -0.166 F 
ENDBRANCH   5  32
TORSDOF 5
