REMARK  Name = ZINC02837785
REMARK  8 active torsions:
REMARK  status: ('A' for Active; 'I' for Inactive)
REMARK    1  A    between atoms: C_1  and  O_2
REMARK    2  A    between atoms: O_2  and  C_3
REMARK    3  A    between atoms: C_5  and  C_19
REMARK    4  A    between atoms: C_8  and  O_9
REMARK    5  A    between atoms: O_9  and  C_10
REMARK    6  A    between atoms: C_10  and  C_11
REMARK    7  A    between atoms: C_28  and  N_32
REMARK    8  A    between atoms: C_29  and  C_30
REMARK                            x       y       z     vdW  Elec       q    Type
REMARK                         _______ _______ _______ _____ _____    ______ ____
ROOT
ATOM      1  C   UNL     1      -1.931   4.508   2.904  0.00  0.00    +0.163 A 
ATOM      2  C   UNL     1      -1.704   4.019   1.627  0.00  0.00    +0.054 A 
ATOM      3  C   UNL     1      -1.571   2.659   1.421  0.00  0.00    -0.030 A 
ATOM      4  C   UNL     1      -1.672   1.782   2.486  0.00  0.00    +0.028 A 
ATOM      5  C   UNL     1      -1.893   2.264   3.764  0.00  0.00    +0.086 A 
ATOM      6  C   UNL     1      -2.027   3.628   3.976  0.00  0.00    +0.181 A 
ATOM      7 CL   UNL     1      -2.011   1.161   5.099  0.00  0.00    -0.080 Cl
ENDROOT
BRANCH   3   8
ATOM      8  C   UNL     1      -1.323   2.129   0.032  0.00  0.00    +0.098 C 
ATOM      9  C   UNL     1      -0.017   1.381   0.010  0.00  0.00    +0.011 A 
ATOM     10  C   UNL     1       1.172   2.090   0.002  0.00  0.00    +0.057 A 
ATOM     11  C   UNL     1       2.384   1.420  -0.012  0.00  0.00    +0.167 A 
ATOM     12  C   UNL     1       2.406   0.027  -0.020  0.00  0.00    +0.170 A 
ATOM     13  C   UNL     1       1.216  -0.680  -0.013  0.00  0.00    +0.096 A 
ATOM     14  C   UNL     1       0.002  -0.004   0.002  0.00  0.00    +0.138 A 
ATOM     15  O   UNL     1      -1.153  -0.716   0.009  0.00  0.00    -0.441 OA
ATOM     16  C   UNL     1      -2.304  -0.129  -0.358  0.00  0.00    +0.199 C 
ATOM     17  C   UNL     1      -2.450   1.218  -0.371  0.00  0.00    +0.098 C 
ATOM     18  O   UNL     1       3.706  -0.388  -0.034  0.00  0.00    -0.452 OA
ATOM     19  C   UNL     1       4.479   0.754   0.378  0.00  0.00    +0.466 C 
ATOM     20  O   UNL     1       3.671   1.877  -0.021  0.00  0.00    -0.453 OA
BRANCH  16  21
ATOM     21  N   UNL     1      -3.364  -0.917  -0.731  0.00  0.00    -0.328 N 
ATOM     22  H   UNL     1      -3.276  -1.883  -0.726  0.00  0.00    +0.145 HD
ATOM     23  H   UNL     1      -4.202  -0.508  -0.998  0.00  0.00    +0.145 HD
ENDBRANCH  16  21
BRANCH  17  24
ATOM     24  C   UNL     1      -3.702   1.784  -0.773  0.00  0.00    +0.101 C 
ATOM     25  N   UNL     1      -4.695   2.233  -1.092  0.00  0.00    -0.191 NA
ENDBRANCH  17  24
ENDBRANCH   3   8
BRANCH   1  27
ATOM     26  C   UNL     1      -1.951   6.691   1.960  0.00  0.00    +0.277 C 
ATOM     27  O   UNL     1      -2.061   5.847   3.107  0.00  0.00    -0.491 OA
ENDBRANCH   1  27
BRANCH   6  28
ATOM     28  O   UNL     1      -2.251   4.103   5.231  0.00  0.00    -0.482 OA
BRANCH  28  29
ATOM     29  C   UNL     1      -3.614   4.236   5.641  0.00  0.00    +0.267 C 
BRANCH  29  30
ATOM     30  C   UNL     1      -3.665   4.773   7.048  0.00  0.00    +0.025 A 
ATOM     31  C   UNL     1      -2.493   5.046   7.727  0.00  0.00    +0.010 A 
ATOM     32  C   UNL     1      -2.540   5.544   9.015  0.00  0.00    +0.001 A 
ATOM     33  C   UNL     1      -3.759   5.758   9.631  0.00  0.00    +0.003 A 
ATOM     34  C   UNL     1      -4.932   5.480   8.956  0.00  0.00    +0.039 A 
ATOM     35  C   UNL     1      -4.887   4.987   7.663  0.00  0.00    +0.130 A 
ATOM     36  F   UNL     1      -6.033   4.714   7.003  0.00  0.00    -0.205 F 
ENDBRANCH  29  30
ENDBRANCH  28  29
ENDBRANCH   6  28
TORSDOF 7
