REMARK  Name = ZINC14551643
REMARK  4 active torsions:
REMARK  status: ('A' for Active; 'I' for Inactive)
REMARK    1  A    between atoms: C_1  and  C_2
REMARK    2  A    between atoms: C_2  and  C_3
REMARK    3  A    between atoms: N_5  and  C_6
REMARK    4  A    between atoms: C_19  and  C_22
REMARK                            x       y       z     vdW  Elec       q    Type
REMARK                         _______ _______ _______ _____ _____    ______ ____
ROOT
ATOM      1  C   UNL     1       0.290   4.116  -0.739  0.00  0.00    +0.034 A 
ATOM      2  C   UNL     1       0.649   2.780  -0.622  0.00  0.00    +0.025 A 
ATOM      3  C   UNL     1      -0.328   1.827  -0.416  0.00  0.00    +0.025 A 
ATOM      4  C   UNL     1      -1.662   2.203  -0.333  0.00  0.00    +0.031 A 
ATOM      5  C   UNL     1      -2.028   3.535  -0.444  0.00  0.00    -0.018 A 
ATOM      6  C   UNL     1      -1.041   4.489  -0.651  0.00  0.00    +0.029 A 
ATOM      7  C   UNL     1      -3.452   3.985  -0.356  0.00  0.00    +0.049 C 
ATOM      8  C   UNL     1      -3.741   4.648   0.969  0.00  0.00    -0.023 C 
ATOM      9  C   UNL     1      -4.947   4.376   1.371  0.00  0.00    -0.030 C 
ATOM     10  C   UNL     1      -5.639   3.464   0.376  0.00  0.00    +0.033 C 
ATOM     11  C   UNL     1      -4.456   2.817  -0.403  0.00  0.00    +0.029 C 
ATOM     12  C   UNL     1      -3.929   1.642   0.426  0.00  0.00    +0.105 C 
ATOM     13  N   UNL     1      -2.631   1.224  -0.114  0.00  0.00    -0.336 N 
ATOM     14  H   UNL     1      -2.450   0.290  -0.306  0.00  0.00    +0.147 HD
ENDROOT
BRANCH  12  15
ATOM     15  C   UNL     1      -3.764   2.071   1.861  0.00  0.00    -0.027 A 
ATOM     16  C   UNL     1      -2.562   2.603   2.289  0.00  0.00    +0.005 A 
ATOM     17  C   UNL     1      -2.412   3.002   3.604  0.00  0.00    +0.000 A 
ATOM     18  C   UNL     1      -3.460   2.859   4.494  0.00  0.00    +0.000 A 
ATOM     19  C   UNL     1      -4.660   2.321   4.067  0.00  0.00    +0.000 A 
ATOM     20  C   UNL     1      -4.812   1.928   2.751  0.00  0.00    +0.005 A 
ENDBRANCH  12  15
BRANCH   1  23
ATOM     21  C   UNL     1       2.376   4.792  -1.667  0.00  0.00    +0.217 C 
ATOM     22  O   UNL     1       2.469   3.713  -2.215  0.00  0.00    -0.275 OA
ATOM     23  N   UNL     1       1.277   5.090  -0.946  0.00  0.00    -0.285 N 
ATOM     24  H   UNL     1       1.169   5.978  -0.572  0.00  0.00    +0.155 HD
BRANCH  21  26
ATOM     25  C   UNL     1       4.611   5.215  -2.656  0.00  0.00    +0.013 C 
ATOM     26  C   UNL     1       3.491   5.798  -1.792  0.00  0.00    +0.093 C 
ENDBRANCH  21  26
ENDBRANCH   1  23
TORSDOF 3
