REMARK  Name = ZINC13353572
REMARK  8 active torsions:
REMARK  status: ('A' for Active; 'I' for Inactive)
REMARK    1  A    between atoms: C_1  and  C_2
REMARK    2  A    between atoms: C_2  and  C_4
REMARK    3  A    between atoms: C_2  and  S_15
REMARK    4  A    between atoms: N_6  and  C_7
REMARK    5  A    between atoms: C_7  and  C_13
REMARK    6  A    between atoms: S_15  and  C_16
REMARK    7  A    between atoms: C_19  and  C_28
REMARK    8  A    between atoms: N_20  and  C_21
REMARK                            x       y       z     vdW  Elec       q    Type
REMARK                         _______ _______ _______ _____ _____    ______ ____
ROOT
ATOM      1  S   UNL     1       4.673   1.069   1.953  0.00  0.00    -0.075 S 
ENDROOT
BRANCH   1   2
ATOM      2  C   UNL     1       6.244   1.810   1.653  0.00  0.00    +0.175 A 
ATOM      3  N   UNL     1       6.457   2.875   0.906  0.00  0.00    -0.229 NA
ATOM      4  C   UNL     1       7.755   3.169   0.895  0.00  0.00    +0.147 A 
ATOM      5  C   UNL     1       8.411   2.236   1.670  0.00  0.00    +0.156 A 
ATOM      6  N   UNL     1       7.431   1.371   2.150  0.00  0.00    -0.282 N 
BRANCH   6   7
ATOM      7  C   UNL     1       7.630   0.262   2.984  0.00  0.00    +0.049 A 
ATOM      8  C   UNL     1       7.103   0.255   4.269  0.00  0.00    +0.029 A 
ATOM      9  C   UNL     1       7.296  -0.840   5.087  0.00  0.00    +0.040 A 
ATOM     10  C   UNL     1       8.024  -1.926   4.632  0.00  0.00    +0.124 A 
ATOM     11  C   UNL     1       8.555  -1.919   3.353  0.00  0.00    +0.040 A 
ATOM     12  C   UNL     1       8.360  -0.828   2.529  0.00  0.00    +0.029 A 
ATOM     13  F   UNL     1       8.217  -2.994   5.436  0.00  0.00    -0.205 F 
ENDBRANCH   6   7
BRANCH   5  14
ATOM     14  C   UNL     1       9.803   2.171   1.927  0.00  0.00    +0.405 C 
ATOM     15  O   UNL     1      10.551   2.998   1.439  0.00  0.00    -0.239 OA
ATOM     16  O   UNL     1      10.299   1.191   2.711  0.00  0.00    -0.239 OA
ENDBRANCH   5  14
ENDBRANCH   1   2
BRANCH   1  18
ATOM     17  C   UNL     1       3.646   3.577   1.607  0.00  0.00    +0.029 C 
ATOM     18  C   UNL     1       3.614   2.177   0.990  0.00  0.00    +0.137 C 
BRANCH  18  19
ATOM     19  C   UNL     1       2.200   1.655   1.001  0.00  0.00    +0.227 C 
ATOM     20  O   UNL     1       1.822   0.948   1.910  0.00  0.00    -0.275 OA
ATOM     21  N   UNL     1       1.357   1.975  -0.000  0.00  0.00    -0.296 N 
ATOM     22  H   UNL     1       1.659   2.541  -0.728  0.00  0.00    +0.150 HD
BRANCH  21  23
ATOM     23  C   UNL     1      -0.018   1.468   0.010  0.00  0.00    +0.121 C 
ATOM     24  C   UNL     1      -0.734   1.961   1.269  0.00  0.00    +0.041 C 
ATOM     25  C   UNL     1      -2.169   1.432   1.280  0.00  0.00    +0.003 C 
ATOM     26  C   UNL     1      -2.909   1.938   0.040  0.00  0.00    +0.000 C 
ATOM     27  C   UNL     1      -2.193   1.445  -1.219  0.00  0.00    +0.003 C 
ATOM     28  C   UNL     1      -0.758   1.975  -1.229  0.00  0.00    +0.041 C 
BRANCH  23  29
ATOM     29  C   UNL     1       0.002  -0.004   0.002  0.00  0.00    +0.088 C 
ATOM     30  N   UNL     1       0.018  -1.140  -0.004  0.00  0.00    -0.194 NA
ENDBRANCH  23  29
ENDBRANCH  21  23
ENDBRANCH  18  19
ENDBRANCH   1  18
TORSDOF 7
