REMARK  Name = ZINC33436976
REMARK  13 active torsions:
REMARK  status: ('A' for Active; 'I' for Inactive)
REMARK    1  A    between atoms: C_1  and  C_2
REMARK    2  A    between atoms: C_3  and  C_31
REMARK    3  A    between atoms: C_4  and  C_13
REMARK    4  A    between atoms: C_16  and  N_19
REMARK    5  A    between atoms: C_20  and  C_22
REMARK    6  A    between atoms: C_22  and  C_23
REMARK    7  A    between atoms: C_23  and  C_25
REMARK    8  A    between atoms: C_23  and  C_26
REMARK    9  A    between atoms: C_26  and  C_27
REMARK   10  A    between atoms: C_27  and  C_28
REMARK   11  A    between atoms: C_27  and  C_29
REMARK   12  A    between atoms: C_27  and  C_30
REMARK   13  A    between atoms: N_33  and  C_34
REMARK                            x       y       z     vdW  Elec       q    Type
REMARK                         _______ _______ _______ _____ _____    ______ ____
ROOT
ATOM      1  C   UNL     1       0.760   6.768   2.170  0.00  0.00    +0.064 C 
ATOM      2  C   UNL     1       1.985   7.536   1.743  0.00  0.00    +0.025 C 
ATOM      3  C   UNL     1       3.054   6.865   1.230  0.00  0.00    +0.058 C 
ATOM      4  C   UNL     1       4.257   7.649   0.764  0.00  0.00    +0.142 C 
ATOM      5  N   UNL     1       4.310   8.913   1.524  0.00  0.00    -0.300 N 
ATOM      6  C   UNL     1       5.613   9.406   1.946  0.00  0.00    +0.109 C 
ATOM      7  C   UNL     1       5.745  10.912   1.766  0.00  0.00    +0.030 C 
ATOM      8  C   UNL     1       4.707  11.617   2.646  0.00  0.00    +0.078 C 
ATOM      9  S   UNL     1       3.064  11.307   1.952  0.00  0.00    -0.092 S 
ATOM     10  C   UNL     1       3.134   9.553   1.776  0.00  0.00    +0.135 C 
ATOM     11  N   UNL     1       2.008   8.860   1.873  0.00  0.00    -0.341 N 
ATOM     12  H   UNL     1       1.057   9.380   2.065  0.00  0.00    +0.167 HD
ENDROOT
BRANCH   4  13
ATOM     13  C   UNL     1       4.129   7.952  -0.707  0.00  0.00    -0.022 A 
ATOM     14  C   UNL     1       3.325   8.995  -1.129  0.00  0.00    +0.007 A 
ATOM     15  C   UNL     1       3.209   9.277  -2.476  0.00  0.00    +0.023 A 
ATOM     16  C   UNL     1       3.893   8.506  -3.408  0.00  0.00    +0.033 A 
ATOM     17  C   UNL     1       4.694   7.456  -2.980  0.00  0.00    +0.023 A 
ATOM     18  C   UNL     1       4.811   7.182  -1.632  0.00  0.00    +0.007 A 
BRANCH  16  19
ATOM     19  N   UNL     1       3.773   8.786  -4.773  0.00  0.00    -0.285 N 
ATOM     20  C   UNL     1       3.801   7.782  -5.672  0.00  0.00    +0.217 C 
ATOM     21  O   UNL     1       3.840   6.630  -5.294  0.00  0.00    -0.275 OA
ATOM     22  H   UNL     1       3.655   9.826  -5.113  0.00  0.00    +0.155 HD
BRANCH  20  23
ATOM     23  C   UNL     1       3.784   8.091  -7.147  0.00  0.00    +0.099 C 
BRANCH  23  24
ATOM     24  C   UNL     1       3.823   6.784  -7.942  0.00  0.00    -0.005 C 
ATOM     25  C   UNL     1       2.542   5.990  -7.680  0.00  0.00    +0.008 C 
BRANCH  24  26
ATOM     26  C   UNL     1       3.932   7.098  -9.435  0.00  0.00    +0.010 C 
BRANCH  26  27
ATOM     27  C   UNL     1       4.143   5.800 -10.216  0.00  0.00    -0.037 C 
ATOM     28  C   UNL     1       2.796   5.101 -10.417  0.00  0.00    +0.010 C 
ATOM     29  C   UNL     1       4.760   6.118 -11.579  0.00  0.00    +0.010 C 
ATOM     30  C   UNL     1       5.082   4.880  -9.432  0.00  0.00    +0.010 C 
ENDBRANCH  26  27
ENDBRANCH  24  26
ENDBRANCH  23  24
ENDBRANCH  20  23
ENDBRANCH  16  19
ENDBRANCH   4  13
BRANCH   3  31
ATOM     31  C   UNL     1       3.039   5.462   1.140  0.00  0.00    +0.248 C 
ATOM     32  O   UNL     1       2.048   4.840   1.481  0.00  0.00    -0.270 OA
ATOM     33  N   UNL     1       4.122   4.804   0.678  0.00  0.00    -0.282 N 
ATOM     34  H   UNL     1       5.043   5.358   0.443  0.00  0.00    +0.155 HD
BRANCH  33  35
ATOM     35  C   UNL     1       4.074   3.419   0.497  0.00  0.00    +0.034 A 
ATOM     36  C   UNL     1       5.232   2.661   0.614  0.00  0.00    +0.023 A 
ATOM     37  C   UNL     1       5.182   1.293   0.434  0.00  0.00    +0.002 A 
ATOM     38  C   UNL     1       3.979   0.677   0.139  0.00  0.00    +0.000 A 
ATOM     39  C   UNL     1       2.825   1.429   0.017  0.00  0.00    +0.002 A 
ATOM     40  C   UNL     1       2.868   2.797   0.201  0.00  0.00    +0.023 A 
ENDBRANCH  33  35
ENDBRANCH   3  31
TORSDOF 8
