REMARK  Name = ZINC35494156
REMARK  11 active torsions:
REMARK  status: ('A' for Active; 'I' for Inactive)
REMARK    1  A    between atoms: C_1  and  C_2
REMARK    2  A    between atoms: C_2  and  C_4
REMARK    3  A    between atoms: C_8  and  C_41
REMARK    4  A    between atoms: C_17  and  C_40
REMARK    5  A    between atoms: C_18  and  C_21
REMARK    6  A    between atoms: C_26  and  C_39
REMARK    7  A    between atoms: C_29  and  N_30
REMARK    8  A    between atoms: C_36  and  C_37
REMARK    9  A    between atoms: C_36  and  C_38
REMARK   10  A    between atoms: C_41  and  O_43
REMARK   11  A    between atoms: O_43  and  C_44
REMARK                            x       y       z     vdW  Elec       q    Type
REMARK                         _______ _______ _______ _____ _____    ______ ____
ROOT
ATOM      1  C   UNL     1      -2.623  -2.134   0.296  0.00  0.00    +0.019 C 
ATOM      2  C   UNL     1      -3.749  -1.989   1.340  0.00  0.00    +0.009 C 
ATOM      3  C   UNL     1      -4.458  -0.669   0.974  0.00  0.00    +0.019 C 
ATOM      4  C   UNL     1      -4.377  -0.608  -0.584  0.00  0.00    +0.071 C 
ATOM      5  C   UNL     1      -3.065  -1.311  -0.914  0.00  0.00    +0.017 C 
ATOM      6  C   UNL     1      -3.013  -2.062  -2.225  0.00  0.00    +0.000 C 
ATOM      7  C   UNL     1      -2.806  -1.041  -3.352  0.00  0.00    +0.005 C 
ATOM      8  C   UNL     1      -2.701  -1.740  -4.699  0.00  0.00    +0.005 C 
ATOM      9  C   UNL     1      -3.960  -2.571  -4.994  0.00  0.00    +0.002 C 
ATOM     10  C   UNL     1      -4.167  -3.580  -3.877  0.00  0.00    -0.023 C 
ATOM     11  C   UNL     1      -4.266  -2.872  -2.514  0.00  0.00    -0.023 C 
ATOM     12  C   UNL     1      -5.455  -1.908  -2.493  0.00  0.00    +0.008 C 
ATOM     13  C   UNL     1      -5.618  -1.331  -1.093  0.00  0.00    +0.019 C 
ATOM     14  C   UNL     1      -4.482  -3.950  -1.446  0.00  0.00    +0.012 C 
ATOM     15  C   UNL     1      -3.002  -4.573  -3.866  0.00  0.00    +0.008 C 
ATOM     16  C   UNL     1      -2.924  -5.283  -5.224  0.00  0.00    +0.005 C 
ATOM     17  C   UNL     1      -2.656  -4.257  -6.319  0.00  0.00    +0.009 C 
ATOM     18  C   UNL     1      -3.754  -3.203  -6.377  0.00  0.00    -0.021 C 
ATOM     19  C   UNL     1      -3.244  -2.085  -7.319  0.00  0.00    +0.047 C 
ATOM     20  C   UNL     1      -3.036  -2.688  -8.681  0.00  0.00    +0.010 C 
ATOM     21  C   UNL     1      -3.203  -1.918  -9.775  0.00  0.00    +0.083 C 
ATOM     22  C   UNL     1      -2.672  -4.026  -8.826  0.00  0.00    +0.166 C 
ATOM     23  O   UNL     1      -2.587  -4.489  -9.946  0.00  0.00    -0.292 OA
ATOM     24  C   UNL     1      -2.370  -4.919  -7.657  0.00  0.00    +0.031 C 
ATOM     25  C   UNL     1      -0.864  -5.250  -7.718  0.00  0.00    +0.019 C 
ATOM     26  C   UNL     1      -3.135  -6.233  -7.825  0.00  0.00    +0.019 C 
ATOM     27  C   UNL     1      -5.060  -3.725  -6.963  0.00  0.00    +0.012 C 
ATOM     28  C   UNL     1      -5.474  -4.371  -4.041  0.00  0.00    +0.012 C 
ENDROOT
BRANCH  21  29
ATOM     29  N   UNL     1      -2.757  -2.355 -10.995  0.00  0.00    -0.276 N 
ATOM     30  C   UNL     1      -3.046  -1.653 -12.108  0.00  0.00    +0.301 C 
ATOM     31  O   UNL     1      -3.701  -0.632 -12.031  0.00  0.00    -0.253 OA
ATOM     32  N   UNL     1      -2.607  -2.083 -13.308  0.00  0.00    -0.313 N 
ATOM     33  H   UNL     1      -2.234  -3.169 -11.056  0.00  0.00    +0.156 HD
ATOM     34  H   UNL     1      -2.084  -2.897 -13.370  0.00  0.00    +0.146 HD
ATOM     35  H   UNL     1      -2.815  -1.578 -14.110  0.00  0.00    +0.146 HD
ENDBRANCH  21  29
BRANCH   1  37
ATOM     36  C   UNL     1      -1.277  -0.137   1.314  0.00  0.00    +0.039 C 
ATOM     37  C   UNL     1      -1.336  -1.572   0.857  0.00  0.00    -0.076 C 
ATOM     38  C   UNL     1      -0.273  -2.332   0.945  0.00  0.00    +0.007 C 
ENDBRANCH   1  37
BRANCH   4  39
ATOM     39  C   UNL     1      -4.371   0.841  -1.043  0.00  0.00    +0.313 C 
ATOM     40  O   UNL     1      -3.424   1.278  -1.653  0.00  0.00    -0.250 OA
BRANCH  39  41
ATOM     41  O   UNL     1      -5.418   1.635  -0.771  0.00  0.00    -0.468 OA
ATOM     42  C   UNL     1      -5.345   2.986  -1.232  0.00  0.00    +0.280 C 
ENDBRANCH  39  41
ENDBRANCH   4  39
TORSDOF 4
