REMARK  Name = ZINC40940475
REMARK  5 active torsions:
REMARK  status: ('A' for Active; 'I' for Inactive)
REMARK    1  A    between atoms: C_6  and  C_7
REMARK    2  A    between atoms: N_9  and  N_10
REMARK    3  A    between atoms: C_14  and  C_15
REMARK    4  A    between atoms: C_18  and  O_24
REMARK    5  A    between atoms: C_19  and  N_21
REMARK                            x       y       z     vdW  Elec       q    Type
REMARK                         _______ _______ _______ _____ _____    ______ ____
ROOT
ATOM      1  N   UNL     1      -2.001  -3.793  -0.157  0.00  0.00    -0.169 N 
ATOM      2  C   UNL     1      -2.543  -4.067   1.017  0.00  0.00    +0.275 C 
ATOM      3  O   UNL     1      -1.913  -3.957   2.053  0.00  0.00    -0.267 OA
ATOM      4  C   UNL     1      -3.951  -4.511   1.009  0.00  0.00    +0.079 C 
ATOM      5  C   UNL     1      -4.756  -4.856   2.046  0.00  0.00    +0.028 C 
ATOM      6  S   UNL     1      -4.304  -4.471  -0.743  0.00  0.00    -0.059 S 
ATOM      7  C   UNL     1      -2.704  -3.910  -1.302  0.00  0.00    +0.138 C 
ATOM      8  S   UNL     1      -2.186  -3.599  -2.904  0.00  0.00    -0.026 S 
ENDROOT
BRANCH   5   9
ATOM      9  C   UNL     1      -6.082  -5.430   1.786  0.00  0.00    -0.021 A 
ATOM     10  C   UNL     1      -6.393  -5.937   0.518  0.00  0.00    +0.011 A 
ATOM     11  C   UNL     1      -7.638  -6.474   0.281  0.00  0.00    +0.048 A 
ATOM     12  C   UNL     1      -8.586  -6.514   1.297  0.00  0.00    +0.147 A 
ATOM     13  C   UNL     1      -8.283  -6.012   2.557  0.00  0.00    +0.168 A 
ATOM     14  C   UNL     1      -7.039  -5.479   2.808  0.00  0.00    +0.044 A 
BRANCH  13  15
ATOM     15  N   UNL     1      -9.298  -6.058   3.634  0.00  0.00    +0.060 N 
ATOM     16  O   UNL     1      -9.036  -5.621   4.730  0.00  0.00    -0.126 OA
ATOM     17  O   UNL     1     -10.389  -6.530   3.416  0.00  0.00    -0.126 OA
ENDBRANCH  13  15
BRANCH  12  18
ATOM     18  O   UNL     1      -9.813  -7.045   1.057  0.00  0.00    -0.504 OA
ATOM     19  H   UNL     1      -9.872  -7.994   1.232  0.00  0.00    +0.292 HD
ENDBRANCH  12  18
ENDBRANCH   5   9
BRANCH   1  22
ATOM     20  C   UNL     1      -0.385  -2.068  -0.443  0.00  0.00    +0.261 C 
ATOM     21  O   UNL     1      -1.286  -1.268  -0.602  0.00  0.00    -0.269 OA
ATOM     22  N   UNL     1      -0.668  -3.366  -0.213  0.00  0.00    -0.222 N 
ATOM     23  H   UNL     1       0.052  -4.004  -0.086  0.00  0.00    +0.174 HD
BRANCH  20  29
ATOM     24  C   UNL     1       1.318  -0.274  -0.740  0.00  0.00    +0.014 A 
ATOM     25  C   UNL     1       2.632   0.140  -0.793  0.00  0.00    +0.016 A 
ATOM     26  C   UNL     1       3.657  -0.773  -0.612  0.00  0.00    +0.018 A 
ATOM     27  C   UNL     1       3.369  -2.107  -0.375  0.00  0.00    +0.016 A 
ATOM     28  C   UNL     1       2.059  -2.534  -0.319  0.00  0.00    +0.014 A 
ATOM     29  C   UNL     1       1.022  -1.618  -0.502  0.00  0.00    +0.038 A 
ATOM     30 BR   UNL     1       5.456  -0.197  -0.688  0.00  0.00    -0.050 Br
ENDBRANCH  20  29
ENDBRANCH   1  22
TORSDOF 5
