REMARK  Name = ZINC20641381
REMARK  8 active torsions:
REMARK  status: ('A' for Active; 'I' for Inactive)
REMARK    1  A    between atoms: C_1  and  C_2
REMARK    2  A    between atoms: C_3  and  C_26
REMARK    3  A    between atoms: C_11  and  O_14
REMARK    4  A    between atoms: O_14  and  C_15
REMARK    5  A    between atoms: N_19  and  C_20
REMARK    6  A    between atoms: N_28  and  C_29
REMARK    7  A    between atoms: C_32  and  O_35
REMARK    8  A    between atoms: O_35  and  C_36
REMARK                            x       y       z     vdW  Elec       q    Type
REMARK                         _______ _______ _______ _____ _____    ______ ____
ROOT
ATOM      1  C   UNL     1      -0.428   1.437  -0.558  0.00  0.00    +0.079 C 
ATOM      2  C   UNL     1      -0.908   1.630   0.882  0.00  0.00    +0.194 C 
ATOM      3  C   UNL     1      -2.413   1.337   0.961  0.00  0.00    +0.163 C 
ATOM      4  C   UNL     1      -2.857   1.675   2.394  0.00  0.00    +0.123 C 
ATOM      5  C   UNL     1      -1.974   0.913   3.356  0.00  0.00    +0.019 A 
ATOM      6  C   UNL     1      -2.445   0.649   4.631  0.00  0.00    +0.009 A 
ATOM      7  C   UNL     1      -1.657  -0.036   5.536  0.00  0.00    +0.004 A 
ATOM      8  C   UNL     1      -0.394  -0.461   5.169  0.00  0.00    +0.049 A 
ATOM      9  C   UNL     1       0.081  -0.203   3.896  0.00  0.00    +0.162 A 
ATOM     10  C   UNL     1      -0.715   0.488   2.979  0.00  0.00    +0.170 A 
ATOM     11  O   UNL     1      -0.220   0.720   1.735  0.00  0.00    -0.463 OA
ATOM     12  N   UNL     1      -2.606   3.110   2.609  0.00  0.00    -0.318 N 
ATOM     13  C   UNL     1      -1.514   3.683   2.076  0.00  0.00    +0.141 C 
ATOM     14  S   UNL     1      -1.198   5.331   2.416  0.00  0.00    -0.018 S 
ATOM     15  N   UNL     1      -0.668   3.011   1.292  0.00  0.00    -0.243 N 
ATOM     16  H   UNL     1      -3.312   3.708   3.205  0.00  0.00    +0.148 HD
ENDROOT
BRANCH  15  17
ATOM     17  C   UNL     1       0.487   3.660   0.845  0.00  0.00    +0.039 A 
ATOM     18  C   UNL     1       1.724   3.331   1.385  0.00  0.00    +0.023 A 
ATOM     19  C   UNL     1       2.863   3.970   0.938  0.00  0.00    +0.002 A 
ATOM     20  C   UNL     1       2.773   4.945  -0.039  0.00  0.00    +0.000 A 
ATOM     21  C   UNL     1       1.543   5.279  -0.575  0.00  0.00    +0.002 A 
ATOM     22  C   UNL     1       0.400   4.639  -0.136  0.00  0.00    +0.023 A 
ENDBRANCH  15  17
BRANCH   3  23
ATOM     23  C   UNL     1      -2.669  -0.120   0.673  0.00  0.00    +0.228 C 
ATOM     24  O   UNL     1      -1.742  -0.862   0.426  0.00  0.00    -0.275 OA
ATOM     25  N   UNL     1      -3.929  -0.599   0.690  0.00  0.00    -0.285 N 
ATOM     26  H   UNL     1      -4.777   0.089   0.830  0.00  0.00    +0.155 HD
BRANCH  25  27
ATOM     27  C   UNL     1      -4.160  -1.971   0.529  0.00  0.00    +0.034 A 
ATOM     28  C   UNL     1      -3.350  -2.717  -0.318  0.00  0.00    +0.027 A 
ATOM     29  C   UNL     1      -3.575  -4.071  -0.472  0.00  0.00    +0.047 A 
ATOM     30  C   UNL     1      -4.615  -4.684   0.210  0.00  0.00    +0.120 A 
ATOM     31  C   UNL     1      -5.427  -3.938   1.053  0.00  0.00    +0.047 A 
ATOM     32  C   UNL     1      -5.201  -2.586   1.212  0.00  0.00    +0.027 A 
BRANCH  30  33
ATOM     33  O   UNL     1      -4.839  -6.016   0.054  0.00  0.00    -0.495 OA
ATOM     34  C   UNL     1      -3.964  -6.721  -0.829  0.00  0.00    +0.277 C 
ENDBRANCH  30  33
ENDBRANCH  25  27
ENDBRANCH   3  23
BRANCH   9  35
ATOM     35  O   UNL     1       1.323  -0.621   3.536  0.00  0.00    -0.491 OA
ATOM     36  C   UNL     1       2.083  -1.322   4.523  0.00  0.00    +0.277 C 
ENDBRANCH   9  35
TORSDOF 5
