REMARK  Name = ZINC39666195
REMARK  13 active torsions:
REMARK  status: ('A' for Active; 'I' for Inactive)
REMARK    1  A    between atoms: C_1  and  C_2
REMARK    2  A    between atoms: C_5  and  O_8
REMARK    3  A    between atoms: O_8  and  C_9
REMARK    4  A    between atoms: C_9  and  C_11
REMARK    5  A    between atoms: C_9  and  C_12
REMARK    6  A    between atoms: C_12  and  N_13
REMARK    7  A    between atoms: C_14  and  C_16
REMARK    8  A    between atoms: C_27  and  C_29
REMARK    9  A    between atoms: C_31  and  C_38
REMARK   10  A    between atoms: N_33  and  C_34
REMARK   11  A    between atoms: C_34  and  C_35
REMARK   12  A    between atoms: C_34  and  C_36
REMARK   13  A    between atoms: C_34  and  C_37
REMARK                            x       y       z     vdW  Elec       q    Type
REMARK                         _______ _______ _______ _____ _____    ______ ____
ROOT
ATOM      1  C   UNL     1      -2.779 -10.427  -0.766  0.00  0.00    +0.100 C 
ATOM      2  C   UNL     1      -2.837  -9.006  -1.371  0.00  0.00    +0.121 C 
ATOM      3  N   UNL     1      -3.315  -9.209  -2.759  0.00  0.00    -0.295 N 
ATOM      4  C   UNL     1      -4.345 -10.270  -2.643  0.00  0.00    +0.115 C 
ATOM      5  C   UNL     1      -3.772 -11.252  -1.601  0.00  0.00    -0.004 C 
ATOM      6  C   UNL     1      -3.050 -12.399  -2.301  0.00  0.00    -0.010 C 
ATOM      7  C   UNL     1      -4.067 -13.238  -3.079  0.00  0.00    -0.082 C 
ATOM      8  N   UNL     1      -5.080 -13.763  -2.155  0.00  0.00    +0.379 N 
ATOM      9  C   UNL     1      -5.833 -12.655  -1.556  0.00  0.00    -0.082 C 
ATOM     10  C   UNL     1      -4.890 -11.791  -0.714  0.00  0.00    -0.010 C 
ATOM     11  C   UNL     1      -2.907  -8.573  -3.875  0.00  0.00    +0.265 C 
ATOM     12  O   UNL     1      -3.372  -8.882  -4.955  0.00  0.00    -0.268 OA
ATOM     13  H   UNL     1      -5.713 -14.365  -2.659  0.00  0.00    -0.086 HD
ATOM     14  H   UNL     1      -4.626 -14.292  -1.426  0.00  0.00    -0.086 HD
ENDROOT
BRANCH  11  15
ATOM     15  C   UNL     1      -1.898  -7.505  -3.786  0.00  0.00    +0.124 A 
ATOM     16  C   UNL     1      -1.366  -6.959  -2.631  0.00  0.00    +0.057 A 
ATOM     17  C   UNL     1      -0.459  -5.990  -3.063  0.00  0.00    +0.061 A 
ATOM     18  N   UNL     1      -0.472  -5.983  -4.372  0.00  0.00    -0.175 NA
ATOM     19  N   UNL     1      -1.295  -6.858  -4.827  0.00  0.00    -0.254 N 
ATOM     20  C   UNL     1       0.386  -5.107  -2.180  0.00  0.00    +0.067 C 
BRANCH  19  21
ATOM     21  C   UNL     1      -1.552  -7.119  -6.245  0.00  0.00    +0.056 C 
ATOM     22  C   UNL     1      -3.056  -7.048  -6.513  0.00  0.00    +0.036 C 
ATOM     23  C   UNL     1      -0.832  -6.070  -7.095  0.00  0.00    +0.036 C 
ATOM     24  C   UNL     1      -1.034  -8.512  -6.609  0.00  0.00    +0.036 C 
ENDBRANCH  19  21
ENDBRANCH  11  15
BRANCH   1  26
ATOM     25  N   UNL     1      -0.946 -11.898   0.004  0.00  0.00    -0.312 N 
ATOM     26  C   UNL     1      -1.389 -10.995  -0.892  0.00  0.00    +0.218 C 
ATOM     27  O   UNL     1      -0.669 -10.639  -1.801  0.00  0.00    -0.275 OA
ATOM     28  H   UNL     1      -1.549 -12.246   0.680  0.00  0.00    +0.149 HD
BRANCH  25  29
ATOM     29  C   UNL     1       0.445 -12.354  -0.041  0.00  0.00    +0.148 C 
BRANCH  29  30
ATOM     30  C   UNL     1       0.686 -13.370   1.077  0.00  0.00    +0.187 C 
ATOM     31  C   UNL     1       2.139 -13.846   1.029  0.00  0.00    +0.053 C 
BRANCH  30  32
ATOM     32  O   UNL     1       0.427 -12.757   2.341  0.00  0.00    -0.488 OA
BRANCH  32  37
ATOM     33  C   UNL     1      -0.411 -16.192   6.726  0.00  0.00    +0.044 C 
ATOM     34  C   UNL     1      -0.187 -15.273   5.553  0.00  0.00    -0.050 A 
ATOM     35  C   UNL     1       0.091 -15.801   4.305  0.00  0.00    +0.007 A 
ATOM     36  C   UNL     1       0.297 -14.961   3.228  0.00  0.00    +0.046 A 
ATOM     37  C   UNL     1       0.224 -13.586   3.399  0.00  0.00    +0.121 A 
ATOM     38  C   UNL     1      -0.055 -13.059   4.652  0.00  0.00    +0.046 A 
ATOM     39  C   UNL     1      -0.266 -13.903   5.724  0.00  0.00    +0.007 A 
ENDBRANCH  32  37
ENDBRANCH  30  32
ENDBRANCH  29  30
ENDBRANCH  25  29
ENDBRANCH   1  26
TORSDOF 7
