REMARK  Name = ZINC16568093
REMARK  9 active torsions:
REMARK  status: ('A' for Active; 'I' for Inactive)
REMARK    1  A    between atoms: C_1  and  C_2
REMARK    2  A    between atoms: C_2  and  C_4
REMARK    3  A    between atoms: C_2  and  N_10
REMARK    4  A    between atoms: C_11  and  C_13
REMARK    5  A    between atoms: C_15  and  N_22
REMARK    6  A    between atoms: C_18  and  N_19
REMARK    7  A    between atoms: N_19  and  C_20
REMARK    8  A    between atoms: N_19  and  C_21
REMARK    9  A    between atoms: N_25  and  C_26
REMARK                            x       y       z     vdW  Elec       q    Type
REMARK                         _______ _______ _______ _____ _____    ______ ____
ROOT
ATOM      1  C   UNL     1      -6.176   9.939  -0.074  0.00  0.00    +0.059 A 
ATOM      2  C   UNL     1      -4.959   9.254  -0.085  0.00  0.00    +0.038 A 
ATOM      3  C   UNL     1      -4.947   7.870  -0.090  0.00  0.00    +0.036 A 
ATOM      4  C   UNL     1      -6.144   7.160  -0.089  0.00  0.00    +0.025 A 
ATOM      5  C   UNL     1      -7.350   7.828  -0.073  0.00  0.00    +0.025 A 
ATOM      6  C   UNL     1      -7.379   9.217  -0.068  0.00  0.00    +0.042 A 
ENDROOT
BRANCH   3   7
ATOM      7  N   UNL     1      -3.726   7.182  -0.101  0.00  0.00    -0.269 N 
ATOM      8  C   UNL     1      -3.603   6.017   0.565  0.00  0.00    +0.308 C 
ATOM      9  O   UNL     1      -4.572   5.521   1.106  0.00  0.00    -0.252 OA
ATOM     10  N   UNL     1      -2.406   5.402   0.632  0.00  0.00    -0.269 N 
ATOM     11  H   UNL     1      -2.969   7.544  -0.588  0.00  0.00    +0.156 HD
ATOM     12  H   UNL     1      -1.619   5.829   0.258  0.00  0.00    +0.156 HD
BRANCH  10  13
ATOM     13  C   UNL     1      -2.297   4.149   1.239  0.00  0.00    +0.042 A 
ATOM     14  C   UNL     1      -3.081   3.834   2.329  0.00  0.00    +0.024 A 
ATOM     15  C   UNL     1      -2.981   2.589   2.941  0.00  0.00    +0.002 A 
ATOM     16  C   UNL     1      -2.110   1.648   2.483  0.00  0.00    +0.008 A 
ATOM     17  C   UNL     1      -1.297   1.927   1.371  0.00  0.00    -0.016 A 
ATOM     18  C   UNL     1      -1.385   3.194   0.743  0.00  0.00    +0.003 A 
ATOM     19  C   UNL     1      -0.568   3.473  -0.363  0.00  0.00    +0.010 A 
ATOM     20  C   UNL     1       0.302   2.527  -0.815  0.00  0.00    +0.001 A 
ATOM     21  C   UNL     1       0.394   1.283  -0.194  0.00  0.00    +0.001 A 
ATOM     22  C   UNL     1      -0.383   0.978   0.881  0.00  0.00    +0.008 A 
ENDBRANCH  10  13
ENDBRANCH   3   7
BRANCH   1  24
ATOM     23  N   UNL     1      -5.039  12.104  -0.074  0.00  0.00    -0.305 N 
ATOM     24  C   UNL     1      -6.197  11.413  -0.068  0.00  0.00    +0.246 C 
ATOM     25  O   UNL     1      -7.258  12.007  -0.059  0.00  0.00    -0.270 OA
ATOM     26  H   UNL     1      -4.192  11.630  -0.082  0.00  0.00    +0.150 HD
BRANCH  23  28
ATOM     27  C   UNL     1      -5.182  14.071   1.371  0.00  0.00    +0.033 C 
ATOM     28  C   UNL     1      -5.060  13.568  -0.068  0.00  0.00    +0.100 C 
BRANCH  28  29
ATOM     29  C   UNL     1      -3.783  14.091  -0.676  0.00  0.00    -0.027 A 
ATOM     30  C   UNL     1      -2.579  13.476  -0.389  0.00  0.00    +0.005 A 
ATOM     31  C   UNL     1      -1.409  13.952  -0.950  0.00  0.00    +0.000 A 
ATOM     32  C   UNL     1      -1.442  15.050  -1.790  0.00  0.00    +0.000 A 
ATOM     33  C   UNL     1      -2.645  15.668  -2.073  0.00  0.00    +0.000 A 
ATOM     34  C   UNL     1      -3.816  15.189  -1.515  0.00  0.00    +0.005 A 
ENDBRANCH  28  29
ENDBRANCH  23  28
ENDBRANCH   1  24
BRANCH   6  35
ATOM     35  N   UNL     1      -8.596   9.890  -0.057  0.00  0.00    -0.335 N 
ATOM     36  C   UNL     1      -9.397   9.548  -1.240  0.00  0.00    +0.129 C 
ATOM     37  C   UNL     1      -9.340   9.613   1.179  0.00  0.00    +0.129 C 
ENDBRANCH   6  35
TORSDOF 6
