REMARK  Name = ZINC08670971
REMARK  11 active torsions:
REMARK  status: ('A' for Active; 'I' for Inactive)
REMARK    1  A    between atoms: C_1  and  C_2
REMARK    2  A    between atoms: C_6  and  C_14
REMARK    3  A    between atoms: C_7  and  O_13
REMARK    4  A    between atoms: C_11  and  C_12
REMARK    5  A    between atoms: C_14  and  C_16
REMARK    6  A    between atoms: C_14  and  N_69
REMARK    7  A    between atoms: N_20  and  C_21
REMARK    8  A    between atoms: C_26  and  C_27
REMARK    9  A    between atoms: C_26  and  N_69
REMARK   10  A    between atoms: C_33  and  C_34
REMARK   11  A    between atoms: C_33  and  N_69
REMARK                            x       y       z     vdW  Elec       q    Type
REMARK                         _______ _______ _______ _____ _____    ______ ____
ROOT
ATOM      1  C   UNL     1      -2.723   4.026   0.727  0.00  0.00    +0.040 C 
ENDROOT
BRANCH   1   7
ATOM      2  C   UNL     1       0.721   7.827  -4.634  0.00  0.00    +0.044 C 
ATOM      3  C   UNL     1      -0.221   7.762  -3.459  0.00  0.00    -0.047 A 
ATOM      4  C   UNL     1      -0.438   6.569  -2.837  0.00  0.00    +0.013 A 
ATOM      5  C   UNL     1      -1.315   6.507  -1.743  0.00  0.00    +0.001 A 
ATOM      6  C   UNL     1      -1.564   5.292  -1.073  0.00  0.00    +0.017 A 
ATOM      7  C   UNL     1      -2.427   5.302  -0.018  0.00  0.00    +0.008 A 
ATOM      8  C   UNL     1      -3.043   6.499   0.368  0.00  0.00    +0.215 A 
ATOM      9  N   UNL     1      -2.803   7.631  -0.257  0.00  0.00    -0.213 NA
ATOM     10  C   UNL     1      -1.965   7.684  -1.299  0.00  0.00    +0.075 A 
ATOM     11  C   UNL     1      -1.717   8.895  -1.967  0.00  0.00    +0.032 A 
ATOM     12  C   UNL     1      -0.860   8.920  -3.025  0.00  0.00    -0.045 A 
ATOM     13  C   UNL     1      -0.598  10.223  -3.737  0.00  0.00    +0.044 C 
BRANCH   8  14
ATOM     14  O   UNL     1      -3.904   6.492   1.416  0.00  0.00    -0.492 OA
ATOM     15  H   UNL     1      -3.483   6.657   2.271  0.00  0.00    +0.294 HD
ENDBRANCH   8  14
ENDBRANCH   1   7
BRANCH   1  16
ATOM     16  C   UNL     1      -3.919   3.349   0.109  0.00  0.00    +0.143 A 
ATOM     17  N   UNL     1      -3.927   2.605  -0.970  0.00  0.00    -0.115 NA
ATOM     18  N   UNL     1      -5.136   2.210  -1.173  0.00  0.00    -0.023 NA
ATOM     19  N   UNL     1      -5.901   2.684  -0.251  0.00  0.00    -0.044 NA
ATOM     20  N   UNL     1      -5.186   3.387   0.561  0.00  0.00    -0.227 N 
BRANCH  20  21
ATOM     21  C   UNL     1      -5.665   4.096   1.750  0.00  0.00    +0.111 C 
ATOM     22  C   UNL     1      -6.489   3.141   2.639  0.00  0.00    +0.027 C 
ATOM     23  C   UNL     1      -7.629   4.030   3.196  0.00  0.00    +0.002 C 
ATOM     24  C   UNL     1      -7.976   4.938   1.990  0.00  0.00    +0.002 C 
ATOM     25  C   UNL     1      -6.610   5.239   1.338  0.00  0.00    +0.027 C 
ENDBRANCH  20  21
ENDBRANCH   1  16
BRANCH   1  26
ATOM     26  N   UNL     1      -1.554   3.128   0.621  0.00  0.00    +0.397 N 
ATOM     27  H   UNL     1      -1.342   2.972  -0.372  0.00  0.00    -0.079 HD
BRANCH  26  28
ATOM     28  C   UNL     1      -0.380   3.748   1.270  0.00  0.00    -0.039 C 
BRANCH  28  29
ATOM     29  C   UNL     1       0.865   3.053   0.783  0.00  0.00    -0.046 A 
ATOM     30  C   UNL     1       1.387   1.975   1.482  0.00  0.00    +0.005 A 
ATOM     31  C   UNL     1       2.531   1.363   0.994  0.00  0.00    +0.020 A 
ATOM     32  C   UNL     1       3.116   1.851  -0.159  0.00  0.00    +0.111 A 
ATOM     33  N   UNL     1       2.595   2.881  -0.796  0.00  0.00    -0.263 NA
ATOM     34  C   UNL     1       1.505   3.485  -0.363  0.00  0.00    +0.112 A 
ENDBRANCH  28  29
ENDBRANCH  26  28
BRANCH  26  35
ATOM     35  C   UNL     1      -1.856   1.829   1.258  0.00  0.00    -0.001 C 
BRANCH  35  36
ATOM     36  C   UNL     1      -2.075   2.005   2.739  0.00  0.00    +0.089 A 
ATOM     37  C   UNL     1      -3.264   2.182   3.342  0.00  0.00    +0.042 A 
ATOM     38  C   UNL     1      -3.008   2.296   4.727  0.00  0.00    +0.041 A 
ATOM     39  C   UNL     1      -1.677   2.181   4.888  0.00  0.00    +0.195 A 
ATOM     40  O   UNL     1      -1.118   2.005   3.680  0.00  0.00    -0.470 OA
ENDBRANCH  35  36
ENDBRANCH  26  35
ENDBRANCH   1  26
TORSDOF 9
