REMARK  Name = ZINC39886749
REMARK  5 active torsions:
REMARK  status: ('A' for Active; 'I' for Inactive)
REMARK    1  A    between atoms: C_1  and  C_2
REMARK    2  A    between atoms: C_2  and  C_3
REMARK    3  A    between atoms: C_2  and  C_4
REMARK    4  A    between atoms: C_2  and  C_5
REMARK    5  A    between atoms: C_8  and  C_11
REMARK                            x       y       z     vdW  Elec       q    Type
REMARK                         _______ _______ _______ _____ _____    ______ ____
ROOT
ATOM      1  C   UNL     1       2.707  -1.868  -4.752  0.00  0.00    +0.072 C 
ATOM      2  C   UNL     1       3.072  -0.692  -5.565  0.00  0.00    +0.032 A 
ATOM      3  C   UNL     1       4.203  -0.451  -6.285  0.00  0.00    +0.110 A 
ATOM      4  N   UNL     1       4.207   0.691  -6.973  0.00  0.00    -0.225 NA
ATOM      5  C   UNL     1       3.202   1.538  -6.914  0.00  0.00    +0.147 A 
ATOM      6  S   UNL     1       3.027   3.086  -7.735  0.00  0.00    -0.023 SA
ATOM      7  S   UNL     1       2.124   0.783  -5.863  0.00  0.00    -0.063 S 
ATOM      8  S   UNL     1       5.551  -1.605  -6.233  0.00  0.00    -0.091 S 
ATOM      9  C   UNL     1       4.859  -3.054  -5.450  0.00  0.00    +0.152 C 
ATOM     10  C   UNL     1       3.864  -2.767  -4.319  0.00  0.00    +0.110 C 
ATOM     11  C   UNL     1       3.219  -4.170  -4.261  0.00  0.00    +0.235 C 
ATOM     12  O   UNL     1       2.752  -4.709  -3.285  0.00  0.00    -0.274 OA
ATOM     13  N   UNL     1       3.279  -4.676  -5.510  0.00  0.00    -0.162 N 
ATOM     14  C   UNL     1       4.090  -3.986  -6.337  0.00  0.00    +0.244 C 
ATOM     15  O   UNL     1       4.185  -4.103  -7.536  0.00  0.00    -0.273 OA
ATOM     16  C   UNL     1       2.581  -5.761  -5.899  0.00  0.00    +0.313 C 
ATOM     17  O   UNL     1       1.855  -6.332  -5.109  0.00  0.00    -0.252 OA
ATOM     18  N   UNL     1       2.688  -6.214  -7.164  0.00  0.00    -0.313 N 
ATOM     19  H   UNL     1       3.267  -5.758  -7.795  0.00  0.00    +0.147 HD
ATOM     20  H   UNL     1       2.185  -6.995  -7.444  0.00  0.00    +0.147 HD
ENDROOT
BRANCH   1  24
ATOM     21  C   UNL     1       0.707  -0.490  -1.238  0.00  0.00    -0.042 A 
ATOM     22  C   UNL     1       0.036  -1.284  -2.148  0.00  0.00    +0.004 A 
ATOM     23  C   UNL     1       0.683  -1.730  -3.286  0.00  0.00    +0.004 A 
ATOM     24  C   UNL     1       2.001  -1.381  -3.513  0.00  0.00    -0.039 A 
ATOM     25  C   UNL     1       2.672  -0.586  -2.603  0.00  0.00    +0.004 A 
ATOM     26  C   UNL     1       2.024  -0.137  -1.467  0.00  0.00    +0.004 A 
BRANCH  21  28
ATOM     27  C   UNL     1      -0.019   1.526   0.010  0.00  0.00    +0.015 C 
ATOM     28  C   UNL     1       0.002  -0.004   0.002  0.00  0.00    -0.013 C 
ATOM     29  C   UNL     1       0.742  -0.511   1.242  0.00  0.00    +0.015 C 
ATOM     30  C   UNL     1      -1.433  -0.534   0.013  0.00  0.00    +0.015 C 
ENDBRANCH  21  28
ENDBRANCH   1  24
TORSDOF 2
