REMARK  Name = ZINC24317258
REMARK  10 active torsions:
REMARK  status: ('A' for Active; 'I' for Inactive)
REMARK    1  A    between atoms: C_1  and  C_2
REMARK    2  A    between atoms: C_2  and  O_3
REMARK    3  A    between atoms: O_3  and  C_4
REMARK    4  A    between atoms: C_9  and  C_10
REMARK    5  A    between atoms: C_10  and  N_11
REMARK    6  A    between atoms: C_12  and  C_14
REMARK    7  A    between atoms: C_17  and  N_20
REMARK    8  A    between atoms: N_20  and  S_21
REMARK    9  A    between atoms: S_21  and  C_24
REMARK   10  A    between atoms: C_30  and  C_33
REMARK                            x       y       z     vdW  Elec       q    Type
REMARK                         _______ _______ _______ _____ _____    ______ ____
ROOT
ATOM      1  N   UNL     1      -2.940   7.652  -0.048  0.00  0.00    -0.307 N 
ATOM      2  C   UNL     1      -2.615   7.040  -1.204  0.00  0.00    +0.244 C 
ATOM      3  O   UNL     1      -2.679   7.650  -2.254  0.00  0.00    -0.270 OA
ATOM      4  H   UNL     1      -2.882   7.100   0.902  0.00  0.00    +0.149 HD
ENDROOT
BRANCH   2   5
ATOM      5  C   UNL     1      -2.181   5.630  -1.195  0.00  0.00    +0.037 A 
ATOM      6  C   UNL     1      -1.844   4.994  -2.393  0.00  0.00    +0.015 A 
ATOM      7  C   UNL     1      -1.440   3.678  -2.382  0.00  0.00    +0.027 A 
ATOM      8  C   UNL     1      -1.367   2.981  -1.179  0.00  0.00    +0.074 A 
ATOM      9  C   UNL     1      -1.708   3.610   0.015  0.00  0.00    +0.027 A 
ATOM     10  C   UNL     1      -2.108   4.927   0.011  0.00  0.00    +0.015 A 
BRANCH   8  11
ATOM     11  N   UNL     1      -0.958   1.652  -1.171  0.00  0.00    -0.097 NA
BRANCH  11  12
ATOM     12  S   UNL     1       0.642   1.277  -1.373  0.00  0.00    +0.098 S 
ATOM     13  O   UNL     1       0.745  -0.136  -1.260  0.00  0.00    -0.148 OA
ATOM     14  O   UNL     1       1.082   1.983  -2.525  0.00  0.00    -0.148 OA
BRANCH  12  15
ATOM     15  C   UNL     1       1.514   1.957  -0.001  0.00  0.00    +0.148 A 
ATOM     16  C   UNL     1       1.715   1.427   1.230  0.00  0.00    +0.037 A 
ATOM     17  C   UNL     1       2.440   2.148   2.160  0.00  0.00    +0.010 A 
ATOM     18  C   UNL     1       2.929   3.364   1.813  0.00  0.00    +0.047 A 
ATOM     19  S   UNL     1       2.369   3.519   0.125  0.00  0.00    -0.077 S 
ENDBRANCH  12  15
ENDBRANCH  11  12
ENDBRANCH   8  11
ENDBRANCH   2   5
BRANCH   1  20
ATOM     20  C   UNL     1      -3.371   9.052  -0.057  0.00  0.00    +0.143 C 
BRANCH  20  26
ATOM     21  C   UNL     1      -2.637   9.852   2.201  0.00  0.00    +0.126 A 
ATOM     22  C   UNL     1      -2.921  10.261   3.497  0.00  0.00    +0.053 A 
ATOM     23  C   UNL     1      -4.226  10.309   3.932  0.00  0.00    +0.001 A 
ATOM     24  C   UNL     1      -5.271   9.945   3.092  0.00  0.00    +0.125 A 
ATOM     25  C   UNL     1      -4.981   9.544   1.790  0.00  0.00    +0.054 A 
ATOM     26  C   UNL     1      -3.673   9.494   1.352  0.00  0.00    +0.015 A 
ATOM     27  O   UNL     1      -6.472  10.051   3.725  0.00  0.00    -0.488 OA
ATOM     28  C   UNL     1      -6.330  10.908   4.870  0.00  0.00    +0.175 C 
ATOM     29  C   UNL     1      -4.843  10.721   5.255  0.00  0.00    +0.083 C 
ATOM     30  C   UNL     1      -6.614  12.364   4.497  0.00  0.00    +0.052 C 
BRANCH  21  31
ATOM     31  O   UNL     1      -1.349   9.803   1.766  0.00  0.00    -0.492 OA
BRANCH  31  33
ATOM     32  C   UNL     1       1.038  10.069   2.032  0.00  0.00    +0.048 C 
ATOM     33  C   UNL     1      -0.335  10.188   2.696  0.00  0.00    +0.225 C 
ENDBRANCH  31  33
ENDBRANCH  21  31
ENDBRANCH  20  26
ENDBRANCH   1  20
TORSDOF 8
