REMARK  Name = ZINC40095108
REMARK  13 active torsions:
REMARK  status: ('A' for Active; 'I' for Inactive)
REMARK    1  A    between atoms: C_1  and  C_2
REMARK    2  A    between atoms: C_7  and  C_12
REMARK    3  A    between atoms: C_12  and  C_14
REMARK    4  A    between atoms: N_18  and  C_30
REMARK    5  A    between atoms: C_19  and  C_21
REMARK    6  A    between atoms: C_24  and  C_27
REMARK    7  A    between atoms: C_27  and  C_28
REMARK    8  A    between atoms: C_27  and  C_29
REMARK    9  A    between atoms: C_30  and  C_31
REMARK   10  A    between atoms: C_31  and  O_32
REMARK   11  A    between atoms: O_32  and  C_33
REMARK   12  A    between atoms: C_33  and  C_34
REMARK   13  A    between atoms: C_34  and  O_35
REMARK                            x       y       z     vdW  Elec       q    Type
REMARK                         _______ _______ _______ _____ _____    ______ ____
ROOT
ATOM      1  C   UNL     1      -2.042  -6.240   3.146  0.00  0.00    +0.076 C 
ATOM      2  C   UNL     1      -2.716  -7.393   3.366  0.00  0.00    +0.249 C 
ATOM      3  C   UNL     1      -1.921  -8.256   4.264  0.00  0.00    +0.288 C 
ATOM      4  O   UNL     1      -2.256  -9.359   4.649  0.00  0.00    -0.266 OA
ATOM      5  N   UNL     1      -0.770  -7.641   4.593  0.00  0.00    -0.281 N 
ATOM      6  C   UNL     1      -0.747  -6.337   3.919  0.00  0.00    +0.145 C 
ATOM      7  O   UNL     1      -3.925  -7.705   2.846  0.00  0.00    -0.282 OA
ENDROOT
BRANCH   6   8
ATOM      8  C   UNL     1      -0.669  -5.231   4.939  0.00  0.00    -0.022 A 
ATOM      9  C   UNL     1      -1.300  -5.372   6.161  0.00  0.00    +0.006 A 
ATOM     10  C   UNL     1      -1.228  -4.357   7.097  0.00  0.00    +0.004 A 
ATOM     11  C   UNL     1      -0.524  -3.202   6.811  0.00  0.00    -0.045 A 
ATOM     12  C   UNL     1       0.108  -3.062   5.590  0.00  0.00    +0.004 A 
ATOM     13  C   UNL     1       0.040  -4.078   4.655  0.00  0.00    +0.006 A 
BRANCH  11  14
ATOM     14  C   UNL     1      -0.446  -2.095   7.831  0.00  0.00    +0.013 C 
ATOM     15  C   UNL     1       1.018  -1.843   8.200  0.00  0.00    +0.012 C 
ATOM     16  C   UNL     1      -1.052  -0.818   7.246  0.00  0.00    +0.012 C 
ENDBRANCH  11  14
ENDBRANCH   6   8
BRANCH   1  17
ATOM     17  C   UNL     1      -2.481  -5.116   2.313  0.00  0.00    +0.195 C 
ATOM     18  O   UNL     1      -3.444  -4.451   2.647  0.00  0.00    -0.287 OA
BRANCH  17  24
ATOM     19  C   UNL     1      -0.244  -1.805  -3.922  0.00  0.00    +0.052 C 
ATOM     20  C   UNL     1      -0.864  -2.972  -3.151  0.00  0.00    +0.175 C 
ATOM     21  C   UNL     1      -1.782  -2.455  -2.018  0.00  0.00    +0.083 C 
ATOM     22  C   UNL     1      -1.534  -3.476  -0.924  0.00  0.00    -0.002 A 
ATOM     23  C   UNL     1      -2.216  -3.771   0.230  0.00  0.00    +0.019 A 
ATOM     24  C   UNL     1      -1.755  -4.790   1.070  0.00  0.00    +0.023 A 
ATOM     25  C   UNL     1      -0.600  -5.498   0.723  0.00  0.00    +0.015 A 
ATOM     26  C   UNL     1       0.078  -5.191  -0.433  0.00  0.00    +0.046 A 
ATOM     27  C   UNL     1      -0.379  -4.172  -1.271  0.00  0.00    +0.124 A 
ATOM     28  O   UNL     1       0.147  -3.706  -2.438  0.00  0.00    -0.488 OA
ENDBRANCH  17  24
ENDBRANCH   1  17
BRANCH   5  29
ATOM     29  C   UNL     1       0.277  -8.179   5.465  0.00  0.00    +0.137 C 
BRANCH  29  30
ATOM     30  C   UNL     1       1.288  -8.962   4.624  0.00  0.00    +0.179 C 
BRANCH  30  31
ATOM     31  O   UNL     1       1.959  -8.070   3.733  0.00  0.00    -0.376 OA
BRANCH  31  32
ATOM     32  C   UNL     1       2.930  -8.704   2.898  0.00  0.00    +0.187 C 
BRANCH  32  33
ATOM     33  C   UNL     1       3.583  -7.659   1.991  0.00  0.00    +0.184 C 
BRANCH  33  34
ATOM     34  O   UNL     1       4.319  -6.729   2.788  0.00  0.00    -0.393 OA
ATOM     35  H   UNL     1       4.760  -6.036   2.277  0.00  0.00    +0.209 HD
ENDBRANCH  33  34
ENDBRANCH  32  33
ENDBRANCH  31  32
ENDBRANCH  30  31
ENDBRANCH  29  30
ENDBRANCH   5  29
TORSDOF 10
