REMARK  Name = ZINC13347542
REMARK  6 active torsions:
REMARK  status: ('A' for Active; 'I' for Inactive)
REMARK    1  A    between atoms: C_1  and  C_2
REMARK    2  A    between atoms: C_5  and  S_8
REMARK    3  A    between atoms: S_8  and  N_11
REMARK    4  A    between atoms: C_16  and  N_21
REMARK    5  A    between atoms: N_24  and  C_25
REMARK    6  A    between atoms: C_28  and  C_32
REMARK                            x       y       z     vdW  Elec       q    Type
REMARK                         _______ _______ _______ _____ _____    ______ ____
ROOT
ATOM      1  N   UNL     1     -12.119   3.354  -0.021  0.00  0.00    -0.194 N 
ATOM      2  C   UNL     1     -10.796   2.962  -0.039  0.00  0.00    +0.179 A 
ATOM      3  N   UNL     1      -9.715   3.709  -0.050  0.00  0.00    -0.224 NA
ATOM      4  C   UNL     1      -8.470   3.183  -0.067  0.00  0.00    +0.082 A 
ATOM      5  C   UNL     1      -7.235   3.870  -0.080  0.00  0.00    +0.052 A 
ATOM      6  C   UNL     1      -6.046   3.177  -0.096  0.00  0.00    +0.037 A 
ATOM      7  C   UNL     1      -6.020   1.784  -0.106  0.00  0.00    +0.024 A 
ATOM      8  C   UNL     1      -7.212   1.086  -0.089  0.00  0.00    +0.019 A 
ATOM      9  C   UNL     1      -8.401   1.772  -0.072  0.00  0.00    +0.041 A 
ATOM     10  S   UNL     1     -10.117   1.309  -0.053  0.00  0.00    -0.051 S 
ATOM     11  H   UNL     1     -12.345   4.297  -0.015  0.00  0.00    +0.176 HD
ENDROOT
BRANCH   6  12
ATOM     12  N   UNL     1      -4.837   3.887  -0.109  0.00  0.00    -0.269 N 
ATOM     13  C   UNL     1      -3.775   3.396  -0.777  0.00  0.00    +0.308 C 
ATOM     14  O   UNL     1      -3.890   2.387  -1.446  0.00  0.00    -0.252 OA
ATOM     15  N   UNL     1      -2.584   4.024  -0.704  0.00  0.00    -0.269 N 
ATOM     16  H   UNL     1      -4.766   4.731   0.363  0.00  0.00    +0.156 HD
ATOM     17  H   UNL     1      -2.473   4.784  -0.112  0.00  0.00    +0.156 HD
BRANCH  15  18
ATOM     18  C   UNL     1      -1.510   3.578  -1.481  0.00  0.00    +0.038 A 
ATOM     19  C   UNL     1      -1.740   3.027  -2.736  0.00  0.00    +0.024 A 
ATOM     20  C   UNL     1      -0.678   2.584  -3.500  0.00  0.00    +0.008 A 
ATOM     21  C   UNL     1       0.615   2.696  -3.022  0.00  0.00    -0.015 A 
ATOM     22  C   UNL     1       0.849   3.250  -1.775  0.00  0.00    +0.128 A 
ATOM     23  C   UNL     1      -0.211   3.691  -1.003  0.00  0.00    +0.062 A 
ATOM     24  F   UNL     1       2.113   3.359  -1.311  0.00  0.00    -0.205 F 
ATOM     25  C   UNL     1       1.771   2.217  -3.861  0.00  0.00    +0.047 C 
ENDBRANCH  15  18
ENDBRANCH   6  12
BRANCH   1  26
ATOM     26  S   UNL     1     -13.320   2.214  -0.011  0.00  0.00    +0.074 S 
ATOM     27  O   UNL     1     -14.551   2.922   0.034  0.00  0.00    -0.150 OA
ATOM     28  O   UNL     1     -13.011   1.288  -1.044  0.00  0.00    -0.150 OA
BRANCH  26  33
ATOM     29  C   UNL     1     -12.875  -0.801   5.197  0.00  0.00    +0.044 C 
ATOM     30  C   UNL     1     -12.986  -0.048   3.896  0.00  0.00    -0.050 A 
ATOM     31  C   UNL     1     -13.777   1.083   3.817  0.00  0.00    +0.005 A 
ATOM     32  C   UNL     1     -13.879   1.774   2.624  0.00  0.00    +0.029 A 
ATOM     33  C   UNL     1     -13.190   1.334   1.510  0.00  0.00    +0.109 A 
ATOM     34  C   UNL     1     -12.403   0.200   1.587  0.00  0.00    +0.029 A 
ATOM     35  C   UNL     1     -12.297  -0.488   2.781  0.00  0.00    +0.005 A 
ENDBRANCH  26  33
ENDBRANCH   1  26
TORSDOF 4
