REMARK  Name = ZINC12490620
REMARK  9 active torsions:
REMARK  status: ('A' for Active; 'I' for Inactive)
REMARK    1  A    between atoms: C_1  and  C_2
REMARK    2  A    between atoms: C_7  and  O_8
REMARK    3  A    between atoms: O_8  and  C_9
REMARK    4  A    between atoms: C_9  and  C_10
REMARK    5  A    between atoms: N_12  and  N_13
REMARK    6  A    between atoms: C_14  and  C_16
REMARK    7  A    between atoms: C_17  and  C_18
REMARK    8  A    between atoms: C_21  and  O_24
REMARK    9  A    between atoms: O_24  and  C_25
REMARK                            x       y       z     vdW  Elec       q    Type
REMARK                         _______ _______ _______ _____ _____    ______ ____
ROOT
ATOM      1  C   UNL     1       3.524   1.909  -0.021  0.00  0.00    +0.267 C 
ATOM      2  O   UNL     1       3.508   3.121  -0.015  0.00  0.00    -0.271 OA
ATOM      3  N   UNL     1       2.366   1.219  -0.014  0.00  0.00    -0.231 N 
ATOM      4  H   UNL     1       2.379   0.249  -0.019  0.00  0.00    +0.173 HD
ENDROOT
BRANCH   3   5
ATOM      5  N   UNL     1       1.143   1.903   0.001  0.00  0.00    -0.231 N 
ATOM      6  C   UNL     1      -0.014   1.213   0.009  0.00  0.00    +0.253 C 
ATOM      7  O   UNL     1       0.002  -0.004   0.002  0.00  0.00    -0.269 OA
ATOM      8  H   UNL     1       1.130   2.873   0.007  0.00  0.00    +0.173 HD
BRANCH   6   9
ATOM      9  C   UNL     1      -1.291   1.927   0.019  0.00  0.00    +0.069 C 
ATOM     10  C   UNL     1      -2.450   1.236   0.020  0.00  0.00    +0.013 C 
BRANCH  10  11
ATOM     11  C   UNL     1      -3.733   1.954   0.030  0.00  0.00    -0.025 A 
ATOM     12  C   UNL     1      -3.755   3.353   0.044  0.00  0.00    +0.011 A 
ATOM     13  C   UNL     1      -4.959   4.021   0.048  0.00  0.00    +0.046 A 
ATOM     14  C   UNL     1      -6.152   3.307   0.050  0.00  0.00    +0.120 A 
ATOM     15  C   UNL     1      -6.136   1.917   0.042  0.00  0.00    +0.046 A 
ATOM     16  C   UNL     1      -4.937   1.240   0.032  0.00  0.00    +0.011 A 
BRANCH  14  17
ATOM     17  O   UNL     1      -7.337   3.970   0.059  0.00  0.00    -0.495 OA
ATOM     18  C   UNL     1      -7.281   5.397   0.067  0.00  0.00    +0.277 C 
ENDBRANCH  14  17
ENDBRANCH  10  11
ENDBRANCH   6   9
ENDBRANCH   3   5
BRANCH   1  19
ATOM     19  C   UNL     1       4.839   1.173  -0.038  0.00  0.00    +0.326 C 
BRANCH  19  20
ATOM     20  O   UNL     1       5.913   2.116  -0.043  0.00  0.00    -0.481 OA
BRANCH  20  27
ATOM     21  C   UNL     1       7.098   1.647  -2.563  0.00  0.00    +0.047 C 
ATOM     22  C   UNL     1       7.809   1.363  -1.266  0.00  0.00    -0.007 A 
ATOM     23  C   UNL     1       9.093   0.853  -1.278  0.00  0.00    +0.022 A 
ATOM     24  C   UNL     1       9.747   0.592  -0.088  0.00  0.00    +0.019 A 
ATOM     25  C   UNL     1       9.117   0.841   1.119  0.00  0.00    +0.034 A 
ATOM     26  C   UNL     1       7.835   1.356   1.136  0.00  0.00    +0.061 A 
ATOM     27  C   UNL     1       7.176   1.614  -0.058  0.00  0.00    +0.138 A 
ATOM     28 BR   UNL     1       6.977   1.702   2.785  0.00  0.00    -0.046 Br
ATOM     29 BR   UNL     1      11.504  -0.106  -0.109  0.00  0.00    -0.050 Br
ENDBRANCH  20  27
ENDBRANCH  19  20
ENDBRANCH   1  19
TORSDOF 7
