REMARK  Name = ZINC34923239
REMARK  12 active torsions:
REMARK  status: ('A' for Active; 'I' for Inactive)
REMARK    1  A    between atoms: C_1  and  C_2
REMARK    2  A    between atoms: C_2  and  C_3
REMARK    3  A    between atoms: C_4  and  C_33
REMARK    4  A    between atoms: C_5  and  C_25
REMARK    5  A    between atoms: C_8  and  C_13
REMARK    6  A    between atoms: C_14  and  N_16
REMARK    7  A    between atoms: N_16  and  C_17
REMARK    8  A    between atoms: C_17  and  C_18
REMARK    9  A    between atoms: C_29  and  O_31
REMARK   10  A    between atoms: O_31  and  C_32
REMARK   11  A    between atoms: C_33  and  O_35
REMARK   12  A    between atoms: O_35  and  C_36
REMARK                            x       y       z     vdW  Elec       q    Type
REMARK                         _______ _______ _______ _____ _____    ______ ____
ROOT
ATOM      1  C   UNL     1       1.008  -0.938   1.176  0.00  0.00    +0.056 C 
ATOM      2  C   UNL     1       0.207  -1.088   2.293  0.00  0.00    +0.083 C 
ATOM      3  C   UNL     1       0.885  -1.383   3.612  0.00  0.00    +0.150 C 
ATOM      4  N   UNL     1       2.368  -1.489   3.602  0.00  0.00    -0.267 N 
ATOM      5  C   UNL     1       3.190  -1.751   4.680  0.00  0.00    +0.048 C 
ATOM      6  C   UNL     1       4.521  -1.806   4.454  0.00  0.00    +0.072 C 
ATOM      7  S   UNL     1       4.612  -1.486   2.704  0.00  0.00    -0.060 S 
ATOM      8  C   UNL     1       2.974  -1.307   2.390  0.00  0.00    +0.166 C 
ATOM      9  N   UNL     1       2.322  -1.056   1.273  0.00  0.00    -0.229 NA
ENDROOT
BRANCH   3  10
ATOM     10  C   UNL     1       0.331  -2.683   4.137  0.00  0.00    -0.019 A 
ATOM     11  C   UNL     1       0.773  -3.884   3.613  0.00  0.00    +0.006 A 
ATOM     12  C   UNL     1       0.267  -5.078   4.092  0.00  0.00    +0.004 A 
ATOM     13  C   UNL     1      -0.682  -5.073   5.097  0.00  0.00    +0.045 A 
ATOM     14  C   UNL     1      -1.127  -3.870   5.624  0.00  0.00    +0.120 A 
ATOM     15  C   UNL     1      -0.613  -2.673   5.145  0.00  0.00    +0.051 A 
BRANCH  14  16
ATOM     16  O   UNL     1      -2.060  -3.863   6.612  0.00  0.00    -0.495 OA
ATOM     17  C   UNL     1      -2.539  -5.133   7.060  0.00  0.00    +0.277 C 
ENDBRANCH  14  16
ENDBRANCH   3  10
BRANCH   5  18
ATOM     18  C   UNL     1       2.637  -1.961   6.025  0.00  0.00    +0.091 C 
ATOM     19  C   UNL     1       3.439  -2.368   7.027  0.00  0.00    +0.239 C 
ATOM     20  O   UNL     1       4.776  -2.470   6.826  0.00  0.00    -0.271 OA
BRANCH  19  21
ATOM     21  N   UNL     1       2.899  -2.681   8.263  0.00  0.00    -0.308 N 
ATOM     22  H   UNL     1       1.937  -2.679   8.387  0.00  0.00    +0.149 HD
BRANCH  21  23
ATOM     23  C   UNL     1       3.781  -3.015   9.385  0.00  0.00    +0.142 C 
BRANCH  23  24
ATOM     24  C   UNL     1       2.949  -3.432  10.570  0.00  0.00    +0.005 A 
ATOM     25  C   UNL     1       2.696  -2.531  11.588  0.00  0.00    +0.008 A 
ATOM     26  C   UNL     1       1.933  -2.913  12.676  0.00  0.00    +0.000 A 
ATOM     27  C   UNL     1       1.423  -4.196  12.748  0.00  0.00    +0.003 A 
ATOM     28  C   UNL     1       1.675  -5.098  11.731  0.00  0.00    +0.038 A 
ATOM     29  C   UNL     1       2.434  -4.715  10.639  0.00  0.00    +0.128 A 
ATOM     30  F   UNL     1       2.676  -5.595   9.642  0.00  0.00    -0.205 F 
ENDBRANCH  23  24
ENDBRANCH  21  23
ENDBRANCH  19  21
ENDBRANCH   5  18
BRANCH   1  32
ATOM     31  C   UNL     1       0.143   0.863  -0.293  0.00  0.00    +0.010 C 
ATOM     32  C   UNL     1       0.379  -0.643  -0.161  0.00  0.00    +0.053 C 
ENDBRANCH   1  32
BRANCH   2  33
ATOM     33  C   UNL     1      -1.185  -0.970   2.205  0.00  0.00    +0.339 C 
ATOM     34  O   UNL     1      -1.716  -0.808   1.120  0.00  0.00    -0.245 OA
BRANCH  33  35
ATOM     35  O   UNL     1      -1.940  -1.035   3.324  0.00  0.00    -0.465 OA
ATOM     36  C   UNL     1      -3.354  -0.906   3.161  0.00  0.00    +0.280 C 
ENDBRANCH  33  35
ENDBRANCH   2  33
TORSDOF 9
