REMARK  Name = ZINC52522886
REMARK  10 active torsions:
REMARK  status: ('A' for Active; 'I' for Inactive)
REMARK    1  A    between atoms: C_1  and  C_2
REMARK    2  A    between atoms: C_7  and  C_9
REMARK    3  A    between atoms: C_7  and  N_25
REMARK    4  A    between atoms: C_9  and  N_10
REMARK    5  A    between atoms: N_13  and  C_14
REMARK    6  A    between atoms: C_20  and  C_22
REMARK    7  A    between atoms: C_22  and  C_23
REMARK    8  A    between atoms: C_22  and  C_24
REMARK    9  A    between atoms: N_25  and  C_26
REMARK   10  A    between atoms: N_25  and  C_27
REMARK                            x       y       z     vdW  Elec       q    Type
REMARK                         _______ _______ _______ _____ _____    ______ ____
ROOT
ATOM      1  N   UNL     1       0.656  -4.609   0.312  0.00  0.00    -0.301 N 
ATOM      2  C   UNL     1       1.593  -5.072  -0.538  0.00  0.00    +0.300 C 
ATOM      3  O   UNL     1       2.191  -4.300  -1.263  0.00  0.00    -0.253 OA
ATOM      4  N   UNL     1       1.869  -6.390  -0.585  0.00  0.00    -0.296 N 
ATOM      5  H   UNL     1       0.179  -5.225   0.891  0.00  0.00    +0.150 HD
ATOM      6  H   UNL     1       1.392  -7.006  -0.006  0.00  0.00    +0.151 HD
ENDROOT
BRANCH   4   7
ATOM      7  C   UNL     1       2.888  -6.894  -1.509  0.00  0.00    +0.077 C 
ATOM      8  C   UNL     1       2.259  -7.124  -2.885  0.00  0.00    +0.041 C 
ATOM      9  C   UNL     1       3.335  -7.617  -3.857  0.00  0.00    +0.109 C 
ATOM     10  N   UNL     1       3.983  -8.804  -3.284  0.00  0.00    -0.301 N 
ATOM     11  C   UNL     1       4.542  -8.718  -1.927  0.00  0.00    +0.109 C 
ATOM     12  C   UNL     1       3.452  -8.213  -0.977  0.00  0.00    +0.041 C 
ATOM     13  C   UNL     1       4.063  -9.951  -3.987  0.00  0.00    +0.218 C 
ATOM     14  O   UNL     1       3.544 -10.029  -5.081  0.00  0.00    -0.275 OA
BRANCH  13  15
ATOM     15  C   UNL     1       4.798 -11.136  -3.416  0.00  0.00    +0.069 C 
ATOM     16  C   UNL     1       4.598 -12.348  -4.329  0.00  0.00    +0.017 C 
ATOM     17  C   UNL     1       6.290 -10.812  -3.317  0.00  0.00    +0.017 C 
ENDBRANCH  13  15
ENDBRANCH   4   7
BRANCH   1  18
ATOM     18  C   UNL     1       0.356  -3.176   0.363  0.00  0.00    +0.094 C 
BRANCH  18  24
ATOM     19  C   UNL     1       1.874  -2.708   4.388  0.00  0.00    +0.007 C 
ATOM     20  C   UNL     1       1.235  -2.372   3.039  0.00  0.00    -0.015 C 
ATOM     21  C   UNL     1       0.834  -0.895   3.019  0.00  0.00    +0.003 C 
ATOM     22  C   UNL     1       0.195  -0.559   1.670  0.00  0.00    -0.001 C 
ATOM     23  C   UNL     1      -1.048  -1.427   1.464  0.00  0.00    -0.010 C 
ATOM     24  C   UNL     1      -0.648  -2.904   1.485  0.00  0.00    -0.050 C 
ATOM     25  C   UNL     1      -0.008  -3.240   2.834  0.00  0.00    -0.007 C 
BRANCH  24  26
ATOM     26  N   UNL     1      -1.841  -3.738   1.288  0.00  0.00    +0.381 N 
ATOM     27  C   UNL     1      -2.837  -3.418   2.318  0.00  0.00    -0.096 C 
ATOM     28  C   UNL     1      -2.408  -3.474  -0.041  0.00  0.00    -0.096 C 
ATOM     29  H   UNL     1      -1.586  -4.712   1.357  0.00  0.00    -0.082 HD
ENDBRANCH  24  26
ENDBRANCH  18  24
ENDBRANCH   1  18
TORSDOF 5
