REMARK  Name = ZINC35465703
REMARK  14 active torsions:
REMARK  status: ('A' for Active; 'I' for Inactive)
REMARK    1  A    between atoms: C_1  and  C_2
REMARK    2  A    between atoms: C_5  and  C_34
REMARK    3  A    between atoms: C_7  and  C_28
REMARK    4  A    between atoms: C_7  and  C_29
REMARK    5  A    between atoms: C_13  and  C_27
REMARK    6  A    between atoms: C_19  and  C_22
REMARK    7  A    between atoms: C_19  and  C_23
REMARK    8  A    between atoms: C_23  and  O_25
REMARK    9  A    between atoms: O_25  and  C_26
REMARK   10  A    between atoms: C_29  and  C_30
REMARK   11  A    between atoms: C_30  and  C_31
REMARK   12  A    between atoms: C_34  and  C_35
REMARK   13  A    between atoms: C_34  and  C_36
REMARK   14  A    between atoms: C_34  and  O_37
REMARK                            x       y       z     vdW  Elec       q    Type
REMARK                         _______ _______ _______ _____ _____    ______ ____
ROOT
ATOM      1  C   UNL     1       2.163   1.045  -0.367  0.00  0.00    +0.012 C 
ATOM      2  C   UNL     1       1.740  -0.411  -0.535  0.00  0.00    -0.014 C 
ATOM      3  C   UNL     1       0.217  -0.444  -0.762  0.00  0.00    +0.008 C 
ATOM      4  C   UNL     1      -0.500   0.114   0.461  0.00  0.00    +0.007 C 
ATOM      5  C   UNL     1      -0.223  -0.756   1.680  0.00  0.00    +0.026 C 
ATOM      6  C   UNL     1       1.273  -0.914   1.949  0.00  0.00    -0.023 C 
ATOM      7  C   UNL     1       2.057  -1.251   0.701  0.00  0.00    +0.006 C 
ATOM      8  C   UNL     1       3.565  -1.269   0.948  0.00  0.00    +0.035 C 
ATOM      9  C   UNL     1       4.218  -1.915  -0.275  0.00  0.00    -0.062 C 
ATOM     10  C   UNL     1       4.997  -2.952  -0.101  0.00  0.00    +0.008 C 
ATOM     11  C   UNL     1       3.918  -1.286  -1.607  0.00  0.00    +0.065 C 
ATOM     12  C   UNL     1       2.411  -1.055  -1.730  0.00  0.00    +0.121 C 
ATOM     13  C   UNL     1       2.173  -0.379  -3.054  0.00  0.00    +0.313 C 
ATOM     14  O   UNL     1       1.693   0.720  -3.167  0.00  0.00    -0.250 OA
ATOM     15  O   UNL     1       2.526  -1.101  -4.141  0.00  0.00    -0.439 OA
ATOM     16  C   UNL     1       3.754  -1.810  -4.167  0.00  0.00    +0.264 C 
ATOM     17  C   UNL     1       4.295  -2.150  -2.791  0.00  0.00    +0.198 C 
ATOM     18  O   UNL     1       5.036  -3.106  -2.688  0.00  0.00    -0.292 OA
ATOM     19  C   UNL     1       3.535  -3.132  -4.929  0.00  0.00    +0.077 C 
ATOM     20  C   UNL     1       4.715   0.021  -1.727  0.00  0.00    +0.025 C 
ATOM     21  C   UNL     1       1.804   0.328   2.667  0.00  0.00    +0.012 C 
ENDROOT
BRANCH   5  22
ATOM     22  C   UNL     1      -0.887  -0.127   2.913  0.00  0.00    +0.064 C 
ATOM     23  C   UNL     1      -0.378  -0.823   4.177  0.00  0.00    +0.041 C 
ATOM     24  C   UNL     1      -0.540   1.362   2.975  0.00  0.00    +0.041 C 
BRANCH  22  25
ATOM     25  O   UNL     1      -2.304  -0.283   2.821  0.00  0.00    -0.389 OA
ATOM     26  H   UNL     1      -2.597  -1.204   2.777  0.00  0.00    +0.210 HD
ENDBRANCH  22  25
ENDBRANCH   5  22
BRANCH  16  27
ATOM     27  C   UNL     1       4.785  -1.010  -4.932  0.00  0.00    +0.359 C 
ATOM     28  O   UNL     1       5.944  -1.035  -4.591  0.00  0.00    -0.246 OA
BRANCH  27  29
ATOM     29  O   UNL     1       4.412  -0.273  -5.989  0.00  0.00    -0.465 OA
ATOM     30  C   UNL     1       5.437   0.458  -6.665  0.00  0.00    +0.280 C 
ENDBRANCH  27  29
ENDBRANCH  16  27
BRANCH   6  31
ATOM     31  C   UNL     1       1.413  -2.098   2.938  0.00  0.00    +0.018 C 
BRANCH  31  32
ATOM     32  C   UNL     1       0.532  -3.259   2.472  0.00  0.00    +0.126 C 
BRANCH  32  33
ATOM     33  C   UNL     1       0.794  -4.466   3.335  0.00  0.00    +0.356 C 
ATOM     34  O   UNL     1       1.610  -4.404   4.239  0.00  0.00    -0.246 OA
ATOM     35  O   UNL     1       0.191  -5.506   3.129  0.00  0.00    -0.246 OA
ENDBRANCH  32  33
ENDBRANCH  31  32
ENDBRANCH   6  31
TORSDOF 7
