REMARK  Name = ZINC64136861
REMARK  10 active torsions:
REMARK  status: ('A' for Active; 'I' for Inactive)
REMARK    1  A    between atoms: C_1  and  C_2
REMARK    2  A    between atoms: C_2  and  C_3
REMARK    3  A    between atoms: C_2  and  C_4
REMARK    4  A    between atoms: C_2  and  N_5
REMARK    5  A    between atoms: C_6  and  C_8
REMARK    6  A    between atoms: C_8  and  S_9
REMARK    7  A    between atoms: S_9  and  C_10
REMARK    8  A    between atoms: C_11  and  C_27
REMARK    9  A    between atoms: C_12  and  C_18
REMARK   10  A    between atoms: C_21  and  O_25
REMARK                            x       y       z     vdW  Elec       q    Type
REMARK                         _______ _______ _______ _____ _____    ______ ____
ROOT
ATOM      1  C   UNL     1       5.021  -0.599  -4.084  0.00  0.00    +0.085 C 
ATOM      2  C   UNL     1       6.451  -0.284  -4.434  0.00  0.00    +0.152 C 
ATOM      3  C   UNL     1       6.609  -0.291  -5.959  0.00  0.00    +0.051 C 
ATOM      4  C   UNL     1       6.107  -1.638  -6.490  0.00  0.00    +0.107 C 
ATOM      5  C   UNL     1       4.700  -1.864  -6.003  0.00  0.00    +0.237 C 
ATOM      6  N   UNL     1       4.273  -1.345  -4.856  0.00  0.00    -0.177 NA
ATOM      7  O   UNL     1       3.941  -2.539  -6.670  0.00  0.00    -0.274 OA
ENDROOT
BRANCH   3   8
ATOM      8  C   UNL     1       8.061  -0.110  -6.319  0.00  0.00    -0.040 A 
ATOM      9  C   UNL     1       8.998  -1.032  -5.890  0.00  0.00    +0.023 A 
ATOM     10  C   UNL     1      10.331  -0.868  -6.219  0.00  0.00    +0.061 A 
ATOM     11  C   UNL     1      10.727   0.221  -6.982  0.00  0.00    +0.145 A 
ATOM     12  C   UNL     1       9.784   1.144  -7.412  0.00  0.00    +0.061 A 
ATOM     13  C   UNL     1       8.452   0.973  -7.084  0.00  0.00    +0.023 A 
ATOM     14 BR   UNL     1      10.320   2.630  -8.451  0.00  0.00    -0.046 Br
ATOM     15 BR   UNL     1      11.612  -2.128  -5.630  0.00  0.00    -0.046 Br
BRANCH  11  16
ATOM     16  O   UNL     1      12.037   0.384  -7.306  0.00  0.00    -0.505 OA
ATOM     17  H   UNL     1      12.292  -0.039  -8.137  0.00  0.00    +0.292 HD
ENDBRANCH  11  16
ENDBRANCH   3   8
BRANCH   2  18
ATOM     18  C   UNL     1       7.337  -1.300  -3.843  0.00  0.00    +0.073 C 
ATOM     19  N   UNL     1       8.021  -2.084  -3.388  0.00  0.00    -0.196 NA
ENDBRANCH   2  18
BRANCH   1  20
ATOM     20  S   UNL     1       4.379   0.010  -2.680  0.00  0.00    -0.102 S 
BRANCH  20  21
ATOM     21  C   UNL     1       2.677  -0.618  -2.667  0.00  0.00    +0.171 C 
BRANCH  21  23
ATOM     22  N   UNL     1       0.688  -0.476  -1.203  0.00  0.00    -0.310 N 
ATOM     23  C   UNL     1       1.972  -0.132  -1.427  0.00  0.00    +0.224 C 
ATOM     24  O   UNL     1       2.559   0.569  -0.630  0.00  0.00    -0.275 OA
ATOM     25  H   UNL     1       0.218  -1.037  -1.840  0.00  0.00    +0.149 HD
BRANCH  22  27
ATOM     26  C   UNL     1      -0.019   1.526   0.010  0.00  0.00    +0.031 C 
ATOM     27  C   UNL     1       0.002  -0.004   0.002  0.00  0.00    +0.026 C 
ATOM     28  C   UNL     1       0.742  -0.511   1.242  0.00  0.00    +0.031 C 
ATOM     29  C   UNL     1      -1.433  -0.534   0.013  0.00  0.00    +0.031 C 
ENDBRANCH  22  27
ENDBRANCH  21  23
ENDBRANCH  20  21
ENDBRANCH   1  20
TORSDOF 7
