REMARK  Name = ZINC37462305
REMARK  9 active torsions:
REMARK  status: ('A' for Active; 'I' for Inactive)
REMARK    1  A    between atoms: C_1  and  C_2
REMARK    2  A    between atoms: C_2  and  C_3
REMARK    3  A    between atoms: C_2  and  C_4
REMARK    4  A    between atoms: C_4  and  O_35
REMARK    5  A    between atoms: C_5  and  C_31
REMARK    6  A    between atoms: C_7  and  C_23
REMARK    7  A    between atoms: N_12  and  C_13
REMARK    8  A    between atoms: C_31  and  O_33
REMARK    9  A    between atoms: O_33  and  C_34
REMARK                            x       y       z     vdW  Elec       q    Type
REMARK                         _______ _______ _______ _____ _____    ______ ____
ROOT
ATOM      1  C   UNL     1      -1.410  -0.174  -1.100  0.00  0.00    +0.156 C 
ATOM      2  C   UNL     1      -1.277  -1.413  -0.208  0.00  0.00    +0.173 C 
ATOM      3  C   UNL     1      -0.550  -2.507  -0.998  0.00  0.00    +0.123 C 
ATOM      4  N   UNL     1      -1.269  -2.755  -2.249  0.00  0.00    -0.318 N 
ATOM      5  C   UNL     1      -1.978  -1.787  -2.849  0.00  0.00    +0.140 C 
ATOM      6  S   UNL     1      -2.781  -2.148  -4.317  0.00  0.00    -0.018 S 
ATOM      7  N   UNL     1      -2.082  -0.549  -2.345  0.00  0.00    -0.253 N 
ATOM      8  H   UNL     1      -1.232  -3.636  -2.651  0.00  0.00    +0.148 HD
ENDROOT
BRANCH   7   9
ATOM      9  C   UNL     1      -2.850   0.406  -3.025  0.00  0.00    +0.042 A 
ATOM     10  C   UNL     1      -2.455   0.851  -4.279  0.00  0.00    +0.027 A 
ATOM     11  C   UNL     1      -3.212   1.793  -4.948  0.00  0.00    +0.051 A 
ATOM     12  C   UNL     1      -4.368   2.297  -4.371  0.00  0.00    +0.162 A 
ATOM     13  C   UNL     1      -4.768   1.851  -3.116  0.00  0.00    +0.164 A 
ATOM     14  C   UNL     1      -4.010   0.903  -2.446  0.00  0.00    +0.073 A 
ATOM     15  O   UNL     1      -5.903   2.328  -2.537  0.00  0.00    -0.485 OA
ATOM     16  C   UNL     1      -6.438   3.543  -3.072  0.00  0.00    +0.270 C 
ATOM     17  C   UNL     1      -6.446   3.431  -4.603  0.00  0.00    +0.270 C 
ATOM     18  O   UNL     1      -5.099   3.228  -5.044  0.00  0.00    -0.485 OA
ENDBRANCH   7   9
BRANCH   3  19
ATOM     19  C   UNL     1       0.856  -2.057  -1.304  0.00  0.00    +0.009 A 
ATOM     20  C   UNL     1       1.274  -1.942  -2.616  0.00  0.00    +0.011 A 
ATOM     21  C   UNL     1       2.562  -1.529  -2.898  0.00  0.00    +0.039 A 
ATOM     22  C   UNL     1       3.436  -1.231  -1.866  0.00  0.00    +0.126 A 
ATOM     23  C   UNL     1       3.018  -1.347  -0.551  0.00  0.00    +0.077 A 
ATOM     24  C   UNL     1       1.726  -1.754  -0.270  0.00  0.00    +0.131 A 
ATOM     25  F   UNL     1       1.315  -1.862   1.012  0.00  0.00    -0.205 F 
ATOM     26  F   UNL     1       4.696  -0.829  -2.142  0.00  0.00    -0.205 F 
ENDBRANCH   3  19
BRANCH   1  28
ATOM     27  C   UNL     1      -0.156   1.648  -2.261  0.00  0.00    +0.012 C 
ATOM     28  C   UNL     1      -0.019   0.380  -1.417  0.00  0.00    +0.034 C 
ATOM     29  C   UNL     1       0.706   0.713  -0.111  0.00  0.00    +0.012 C 
ENDBRANCH   1  28
BRANCH   2  30
ATOM     30  C   UNL     1      -2.647  -1.898   0.192  0.00  0.00    +0.317 C 
ATOM     31  O   UNL     1      -3.631  -1.314  -0.196  0.00  0.00    -0.250 OA
BRANCH  30  32
ATOM     32  O   UNL     1      -2.773  -2.978   0.978  0.00  0.00    -0.468 OA
ATOM     33  C   UNL     1      -4.101  -3.382   1.318  0.00  0.00    +0.280 C 
ENDBRANCH  30  32
ENDBRANCH   2  30
BRANCH   1  34
ATOM     34  O   UNL     1      -2.179   0.823  -0.424  0.00  0.00    -0.370 OA
ATOM     35  H   UNL     1      -2.328   1.624  -0.944  0.00  0.00    +0.212 HD
ENDBRANCH   1  34
TORSDOF 6
