REMARK  Name = ZINC35335624
REMARK  9 active torsions:
REMARK  status: ('A' for Active; 'I' for Inactive)
REMARK    1  A    between atoms: C_1  and  C_2
REMARK    2  A    between atoms: C_2  and  C_3
REMARK    3  A    between atoms: C_2  and  C_4
REMARK    4  A    between atoms: C_2  and  C_5
REMARK    5  A    between atoms: C_8  and  C_11
REMARK    6  A    between atoms: N_16  and  C_19
REMARK    7  A    between atoms: C_22  and  N_25
REMARK    8  A    between atoms: C_26  and  C_28
REMARK    9  A    between atoms: C_32  and  N_34
REMARK                            x       y       z     vdW  Elec       q    Type
REMARK                         _______ _______ _______ _____ _____    ______ ____
ROOT
ATOM      1  C   UNL     1       7.974  -1.225  -5.264  0.00  0.00    +0.030 A 
ATOM      2  C   UNL     1       8.678  -0.489  -4.320  0.00  0.00    +0.025 A 
ATOM      3  C   UNL     1       9.959  -0.055  -4.598  0.00  0.00    +0.025 A 
ATOM      4  C   UNL     1      10.543  -0.354  -5.822  0.00  0.00    +0.034 A 
ATOM      5  C   UNL     1       9.838  -1.091  -6.766  0.00  0.00    +0.025 A 
ATOM      6  C   UNL     1       8.560  -1.530  -6.486  0.00  0.00    +0.025 A 
ENDROOT
BRANCH   1  12
ATOM      7  C   UNL     1       2.700  -1.911  -4.781  0.00  0.00    +0.247 C 
ATOM      8  O   UNL     1       2.163  -2.725  -5.506  0.00  0.00    -0.270 OA
ATOM      9  N   UNL     1       3.950  -1.487  -5.053  0.00  0.00    -0.295 N 
ATOM     10  C   UNL     1       4.658  -0.599  -4.120  0.00  0.00    +0.127 C 
ATOM     11  C   UNL     1       5.997  -1.248  -3.747  0.00  0.00    +0.124 C 
ATOM     12  N   UNL     1       6.676  -1.665  -4.981  0.00  0.00    -0.327 N 
ATOM     13  C   UNL     1       5.968  -2.553  -5.914  0.00  0.00    +0.124 C 
ATOM     14  C   UNL     1       4.631  -1.909  -6.284  0.00  0.00    +0.127 C 
BRANCH   7  18
ATOM     15  C   UNL     1       0.637  -0.404  -1.387  0.00  0.00    -0.042 A 
ATOM     16  C   UNL     1       0.427  -1.708  -1.798  0.00  0.00    +0.005 A 
ATOM     17  C   UNL     1       1.093  -2.204  -2.899  0.00  0.00    +0.013 A 
ATOM     18  C   UNL     1       1.982  -1.387  -3.599  0.00  0.00    +0.037 A 
ATOM     19  C   UNL     1       2.190  -0.072  -3.180  0.00  0.00    +0.013 A 
ATOM     20  C   UNL     1       1.513   0.413  -2.080  0.00  0.00    +0.005 A 
BRANCH  15  22
ATOM     21  C   UNL     1      -0.952   1.327  -0.597  0.00  0.00    +0.015 C 
ATOM     22  C   UNL     1      -0.094   0.131  -0.182  0.00  0.00    -0.013 C 
ATOM     23  C   UNL     1       0.919   0.572   0.875  0.00  0.00    +0.015 C 
ATOM     24  C   UNL     1      -0.992  -0.965   0.397  0.00  0.00    +0.015 C 
ENDBRANCH  15  22
ENDBRANCH   7  18
ENDBRANCH   1  12
BRANCH   4  25
ATOM     25  N   UNL     1      11.842   0.087  -6.105  0.00  0.00    -0.282 N 
ATOM     26  C   UNL     1      12.219   0.296  -7.382  0.00  0.00    +0.248 C 
ATOM     27  O   UNL     1      11.407   0.193  -8.281  0.00  0.00    -0.270 OA
ATOM     28  H   UNL     1      12.469   0.242  -5.382  0.00  0.00    +0.155 HD
BRANCH  26  29
ATOM     29  C   UNL     1      13.621   0.650  -7.690  0.00  0.00    +0.039 A 
ATOM     30  C   UNL     1      14.557   0.764  -6.660  0.00  0.00    +0.013 A 
ATOM     31  C   UNL     1      15.864   1.095  -6.954  0.00  0.00    +0.003 A 
ATOM     32  C   UNL     1      16.247   1.314  -8.266  0.00  0.00    +0.033 A 
ATOM     33  C   UNL     1      15.324   1.204  -9.290  0.00  0.00    +0.127 A 
ATOM     34  C   UNL     1      14.015   0.868  -9.011  0.00  0.00    +0.045 A 
BRANCH  33  35
ATOM     35  N   UNL     1      15.742   1.442 -10.690  0.00  0.00    +0.056 N 
ATOM     36  O   UNL     1      16.890   1.732 -10.937  0.00  0.00    -0.126 OA
ATOM     37  O   UNL     1      14.937   1.346 -11.586  0.00  0.00    -0.126 OA
ENDBRANCH  33  35
ENDBRANCH  26  29
ENDBRANCH   4  25
TORSDOF 6
