REMARK  Name = ZINC13033128
REMARK  8 active torsions:
REMARK  status: ('A' for Active; 'I' for Inactive)
REMARK    1  A    between atoms: C_1  and  C_2
REMARK    2  A    between atoms: C_2  and  O_3
REMARK    3  A    between atoms: O_3  and  C_4
REMARK    4  A    between atoms: C_4  and  C_6
REMARK    5  A    between atoms: C_7  and  C_28
REMARK    6  A    between atoms: N_8  and  C_20
REMARK    7  A    between atoms: C_12  and  C_14
REMARK    8  A    between atoms: C_23  and  C_26
REMARK                            x       y       z     vdW  Elec       q    Type
REMARK                         _______ _______ _______ _____ _____    ______ ____
ROOT
ATOM      1  C   UNL     1      -0.193   3.914   0.540  0.00  0.00    +0.079 C 
ATOM      2  C   UNL     1      -1.300   3.168   0.343  0.00  0.00    +0.029 C 
ATOM      3  N   UNL     1      -1.216   1.897  -0.155  0.00  0.00    -0.228 N 
ATOM      4  C   UNL     1      -0.060   1.299  -0.469  0.00  0.00    +0.311 C 
ATOM      5  O   UNL     1      -0.084   0.163  -0.901  0.00  0.00    -0.252 OA
ATOM      6  N   UNL     1       1.129   1.917  -0.328  0.00  0.00    -0.287 N 
ATOM      7  C   UNL     1       1.146   3.293   0.197  0.00  0.00    +0.150 C 
ATOM      8  C   UNL     1      -2.652   3.747   0.672  0.00  0.00    +0.062 C 
ATOM      9  H   UNL     1       1.955   1.466  -0.565  0.00  0.00    +0.151 HD
ENDROOT
BRANCH   7  10
ATOM     10  C   UNL     1       1.996   3.306   1.441  0.00  0.00    +0.016 A 
ATOM     11  C   UNL     1       2.891   4.236   1.854  0.00  0.00    +0.014 A 
ATOM     12  C   UNL     1       3.562   4.039   3.046  0.00  0.00    +0.023 A 
ATOM     13  C   UNL     1       3.312   2.914   3.762  0.00  0.00    +0.055 A 
ATOM     14  S   UNL     1       2.092   2.095   2.749  0.00  0.00    -0.084 S 
ATOM     15 BR   UNL     1       4.062   2.359   5.407  0.00  0.00    -0.043 Br
ENDBRANCH   7  10
BRANCH   3  16
ATOM     16  C   UNL     1      -2.400   1.181  -0.340  0.00  0.00    +0.043 A 
ATOM     17  C   UNL     1      -3.071   1.252  -1.556  0.00  0.00    +0.025 A 
ATOM     18  C   UNL     1      -4.237   0.544  -1.744  0.00  0.00    +0.017 A 
ATOM     19  C   UNL     1      -4.751  -0.239  -0.707  0.00  0.00    +0.063 A 
ATOM     20  C   UNL     1      -4.077  -0.304   0.516  0.00  0.00    +0.017 A 
ATOM     21  C   UNL     1      -2.909   0.403   0.695  0.00  0.00    +0.025 A 
BRANCH  19  22
ATOM     22  C   UNL     1      -6.002  -0.996  -0.902  0.00  0.00    +0.387 C 
ATOM     23  O   UNL     1      -6.448  -1.677   0.000  0.00  0.00    -0.241 OA
ATOM     24  O   UNL     1      -6.651  -0.932  -2.082  0.00  0.00    -0.241 OA
ENDBRANCH  19  22
ENDBRANCH   3  16
BRANCH   1  25
ATOM     25  C   UNL     1      -0.279   5.231   1.050  0.00  0.00    +0.339 C 
ATOM     26  O   UNL     1      -1.351   5.671   1.421  0.00  0.00    -0.245 OA
BRANCH  25  27
ATOM     27  O   UNL     1       0.828   5.999   1.127  0.00  0.00    -0.462 OA
BRANCH  27  29
ATOM     28  C   UNL     1       2.022   8.032   1.661  0.00  0.00    +0.048 C 
ATOM     29  C   UNL     1       0.668   7.318   1.652  0.00  0.00    +0.229 C 
ENDBRANCH  27  29
ENDBRANCH  25  27
ENDBRANCH   1  25
TORSDOF 6
