REMARK  Name = ZINC35982201
REMARK  7 active torsions:
REMARK  status: ('A' for Active; 'I' for Inactive)
REMARK    1  A    between atoms: C_1  and  C_2
REMARK    2  A    between atoms: C_2  and  O_37
REMARK    3  A    between atoms: C_6  and  C_28
REMARK    4  A    between atoms: C_8  and  C_21
REMARK    5  A    between atoms: C_10  and  C_12
REMARK    6  A    between atoms: N_14  and  C_15
REMARK    7  A    between atoms: N_30  and  C_31
REMARK                            x       y       z     vdW  Elec       q    Type
REMARK                         _______ _______ _______ _____ _____    ______ ____
ROOT
ATOM      1  C   UNL     1       0.281   1.985   0.019  0.00  0.00    +0.042 C 
ATOM      2  C   UNL     1       0.015   0.488   0.195  0.00  0.00    +0.082 C 
ATOM      3  C   UNL     1       0.536  -0.271  -1.029  0.00  0.00    +0.110 C 
ATOM      4  C   UNL     1       2.042  -0.132  -1.077  0.00  0.00    +0.148 C 
ATOM      5  O   UNL     1       2.598   0.238  -2.083  0.00  0.00    -0.296 OA
ATOM      6  C   UNL     1       2.832  -0.466   0.169  0.00  0.00    +0.149 C 
ATOM      7  C   UNL     1       2.228   0.300   1.350  0.00  0.00    +0.053 C 
ATOM      8  C   UNL     1       0.734  -0.014   1.448  0.00  0.00    +0.115 C 
ENDROOT
BRANCH   7   9
ATOM      9  C   UNL     1       2.914  -0.117   2.624  0.00  0.00    -0.042 A 
ATOM     10  C   UNL     1       3.606  -1.313   2.677  0.00  0.00    +0.007 A 
ATOM     11  C   UNL     1       4.236  -1.697   3.845  0.00  0.00    +0.038 A 
ATOM     12  C   UNL     1       4.176  -0.883   4.963  0.00  0.00    +0.123 A 
ATOM     13  C   UNL     1       3.483   0.314   4.910  0.00  0.00    +0.038 A 
ATOM     14  C   UNL     1       2.858   0.699   3.739  0.00  0.00    +0.007 A 
ATOM     15  F   UNL     1       4.792  -1.258   6.106  0.00  0.00    -0.205 F 
ENDBRANCH   7   9
BRANCH   8  16
ATOM     16  C   UNL     1       0.542  -1.503   1.573  0.00  0.00    +0.224 C 
ATOM     17  O   UNL     1       1.507  -2.239   1.596  0.00  0.00    -0.275 OA
ATOM     18  N   UNL     1      -0.700  -2.018   1.659  0.00  0.00    -0.285 N 
ATOM     19  H   UNL     1      -1.472  -1.437   1.577  0.00  0.00    +0.155 HD
BRANCH  18  20
ATOM     20  C   UNL     1      -0.876  -3.391   1.867  0.00  0.00    +0.033 A 
ATOM     21  C   UNL     1      -1.937  -3.847   2.639  0.00  0.00    +0.023 A 
ATOM     22  C   UNL     1      -2.107  -5.202   2.842  0.00  0.00    +0.002 A 
ATOM     23  C   UNL     1      -1.223  -6.104   2.279  0.00  0.00    +0.000 A 
ATOM     24  C   UNL     1      -0.166  -5.653   1.511  0.00  0.00    +0.002 A 
ATOM     25  C   UNL     1       0.007  -4.299   1.299  0.00  0.00    +0.023 A 
ENDBRANCH  18  20
ENDBRANCH   8  16
BRANCH   6  26
ATOM     26  C   UNL     1       4.271  -0.059  -0.021  0.00  0.00    +0.228 C 
ATOM     27  O   UNL     1       4.774   0.754   0.726  0.00  0.00    -0.275 OA
ATOM     28  N   UNL     1       4.998  -0.598  -1.020  0.00  0.00    -0.285 N 
ATOM     29  H   UNL     1       4.576  -1.190  -1.661  0.00  0.00    +0.155 HD
BRANCH  28  30
ATOM     30  C   UNL     1       6.361  -0.302  -1.131  0.00  0.00    +0.033 A 
ATOM     31  C   UNL     1       6.949  -0.194  -2.384  0.00  0.00    +0.023 A 
ATOM     32  C   UNL     1       8.295   0.097  -2.491  0.00  0.00    +0.002 A 
ATOM     33  C   UNL     1       9.056   0.282  -1.351  0.00  0.00    +0.000 A 
ATOM     34  C   UNL     1       8.474   0.174  -0.102  0.00  0.00    +0.002 A 
ATOM     35  C   UNL     1       7.127  -0.111   0.011  0.00  0.00    +0.023 A 
ENDBRANCH  28  30
ENDBRANCH   6  26
BRANCH   2  36
ATOM     36  O   UNL     1      -1.390   0.267   0.331  0.00  0.00    -0.388 OA
ATOM     37  H   UNL     1      -1.911   0.561  -0.429  0.00  0.00    +0.210 HD
ENDBRANCH   2  36
TORSDOF 6
