REMARK  Name = ZINC09262189
REMARK  6 active torsions:
REMARK  status: ('A' for Active; 'I' for Inactive)
REMARK    1  A    between atoms: C_2  and  C_10
REMARK    2  A    between atoms: C_3  and  O_9
REMARK    3  A    between atoms: N_11  and  C_12
REMARK    4  A    between atoms: C_12  and  C_13
REMARK    5  A    between atoms: C_13  and  N_14
REMARK    6  A    between atoms: C_15  and  C_16
REMARK                            x       y       z     vdW  Elec       q    Type
REMARK                         _______ _______ _______ _____ _____    ______ ____
ROOT
ATOM      1  C   UNL     1       2.249   5.678   0.217  0.00  0.00    +0.133 C 
ENDROOT
BRANCH   1   3
ATOM      2  C   UNL     1       1.154   3.562   0.015  0.00  0.00    +0.090 C 
ATOM      3  N   UNL     1       2.267   4.218   0.099  0.00  0.00    -0.388 N 
ATOM      4  H   UNL     1       3.112   3.743   0.083  0.00  0.00    +0.159 HD
BRANCH   2   6
ATOM      5  C   UNL     1      -0.035   1.376   0.035  0.00  0.00    +0.033 A 
ATOM      6  C   UNL     1       1.167   2.088   0.009  0.00  0.00    +0.034 A 
ATOM      7  C   UNL     1       2.383   1.394  -0.023  0.00  0.00    +0.139 A 
ATOM      8  C   UNL     1       2.384   0.007  -0.029  0.00  0.00    +0.061 A 
ATOM      9  C   UNL     1       1.189  -0.686  -0.003  0.00  0.00    +0.039 A 
ATOM     10  C   UNL     1      -0.017  -0.003   0.029  0.00  0.00    +0.043 A 
ATOM     11 CL   UNL     1      -1.511  -0.888   0.062  0.00  0.00    -0.083 Cl
ATOM     12 BR   UNL     1       4.022  -0.937  -0.073  0.00  0.00    -0.046 Br
BRANCH   7  13
ATOM     13  O   UNL     1       3.557   2.076  -0.049  0.00  0.00    -0.505 OA
ATOM     14  H   UNL     1       3.918   2.270   0.826  0.00  0.00    +0.292 HD
ENDBRANCH   7  13
ENDBRANCH   2   6
ENDBRANCH   1   3
BRANCH   1  15
ATOM     15  C   UNL     1       2.817   6.087   1.577  0.00  0.00    +0.133 C 
BRANCH  15  16
ATOM     16  N   UNL     1       2.799   7.547   1.695  0.00  0.00    -0.388 N 
ATOM     17  C   UNL     1       2.020   8.136   2.615  0.00  0.00    +0.090 C 
ATOM     18  H   UNL     1       3.350   8.088   1.108  0.00  0.00    +0.159 HD
BRANCH  17  19
ATOM     19  C   UNL     1       1.922   9.529   2.659  0.00  0.00    +0.040 A 
ATOM     20  C   UNL     1       2.748  10.367   1.780  0.00  0.00    +0.201 A 
ATOM     21  C   UNL     1       2.613  11.764   1.862  0.00  0.00    +0.066 A 
ATOM     22  C   UNL     1       1.730  12.312   2.742  0.00  0.00    +0.039 A 
ATOM     23  C   UNL     1       0.946  11.520   3.576  0.00  0.00    +0.043 A 
ATOM     24  C   UNL     1       1.022  10.162   3.544  0.00  0.00    +0.033 A 
ATOM     25 CL   UNL     1      -0.161  12.281   4.676  0.00  0.00    -0.083 Cl
ATOM     26 BR   UNL     1       3.657  12.882   0.750  0.00  0.00    -0.046 Br
ATOM     27  O   UNL     1       3.538   9.861   0.995  0.00  0.00    -0.286 OA
ENDBRANCH  17  19
ENDBRANCH  15  16
ENDBRANCH   1  15
TORSDOF 6
