REMARK  Name = ZINC14470017
REMARK  6 active torsions:
REMARK  status: ('A' for Active; 'I' for Inactive)
REMARK    1  A    between atoms: C_1  and  N_69
REMARK    2  A    between atoms: C_7  and  C_9
REMARK    3  A    between atoms: C_16  and  C_25
REMARK    4  A    between atoms: C_28  and  O_31
REMARK    5  A    between atoms: O_31  and  C_32
REMARK    6  A    between atoms: C_32  and  C_33
REMARK                            x       y       z     vdW  Elec       q    Type
REMARK                         _______ _______ _______ _____ _____    ______ ____
ROOT
ATOM      1  C   UNL     1      -5.856   2.756  -1.348  0.00  0.00    +0.058 A 
ATOM      2  C   UNL     1      -7.221   2.941  -1.134  0.00  0.00    +0.015 A 
ATOM      3  C   UNL     1      -7.657   3.723  -0.087  0.00  0.00    +0.001 A 
ATOM      4  C   UNL     1      -6.735   4.331   0.749  0.00  0.00    +0.006 A 
ATOM      5  C   UNL     1      -5.383   4.163   0.550  0.00  0.00    -0.019 A 
ATOM      6  C   UNL     1      -4.911   3.365  -0.497  0.00  0.00    +0.044 A 
ATOM      7  N   UNL     1      -3.554   3.132  -0.751  0.00  0.00    -0.336 N 
ATOM      8  C   UNL     1      -2.586   3.827   0.112  0.00  0.00    +0.105 C 
ATOM      9  C   UNL     1      -3.166   3.841   1.511  0.00  0.00    +0.029 C 
ATOM     10  C   UNL     1      -4.381   4.816   1.423  0.00  0.00    +0.049 C 
ATOM     11  C   UNL     1      -4.663   5.130   2.845  0.00  0.00    -0.023 C 
ATOM     12  C   UNL     1      -3.531   5.027   3.532  0.00  0.00    -0.030 C 
ATOM     13  C   UNL     1      -2.395   4.590   2.604  0.00  0.00    +0.033 C 
ATOM     14  H   UNL     1      -3.328   3.262  -1.726  0.00  0.00    +0.147 HD
ENDROOT
BRANCH   1  21
ATOM     15  C   UNL     1      -5.404   3.922  -7.514  0.00  0.00    -0.096 C 
ATOM     16  C   UNL     1      -4.905   2.119  -5.978  0.00  0.00    -0.060 C 
ATOM     17  C   UNL     1      -5.487   1.277  -4.837  0.00  0.00    +0.089 C 
ATOM     18  N   UNL     1      -5.830   2.174  -3.723  0.00  0.00    -0.301 N 
ATOM     19  C   UNL     1      -6.661   3.353  -4.008  0.00  0.00    +0.089 C 
ATOM     20  C   UNL     1      -6.027   4.116  -5.183  0.00  0.00    -0.060 C 
ATOM     21  C   UNL     1      -5.398   1.918  -2.472  0.00  0.00    +0.248 C 
ATOM     22  O   UNL     1      -4.630   0.997  -2.269  0.00  0.00    -0.270 OA
ATOM     23  N   UNL     1      -5.870   3.185  -6.321  0.00  0.00    +0.380 N 
ATOM     24  H   UNL     1      -6.780   2.757  -6.529  0.00  0.00    -0.082 HD
ENDBRANCH   1  21
BRANCH   8  25
ATOM     25  C   UNL     1      -1.272   3.088   0.108  0.00  0.00    -0.027 A 
ATOM     26  C   UNL     1      -1.258   1.706   0.080  0.00  0.00    +0.009 A 
ATOM     27  C   UNL     1      -0.055   1.026   0.081  0.00  0.00    +0.046 A 
ATOM     28  C   UNL     1       1.139   1.732   0.101  0.00  0.00    +0.121 A 
ATOM     29  C   UNL     1       1.122   3.119   0.124  0.00  0.00    +0.046 A 
ATOM     30  C   UNL     1      -0.083   3.793   0.128  0.00  0.00    +0.009 A 
BRANCH  28  31
ATOM     31  O   UNL     1       2.324   1.065   0.096  0.00  0.00    -0.487 OA
BRANCH  31  32
ATOM     32  C   UNL     1       3.513   1.857   0.117  0.00  0.00    +0.264 C 
BRANCH  32  33
ATOM     33  C   UNL     1       4.719   0.952   0.108  0.00  0.00    -0.010 A 
ATOM     34  C   UNL     1       5.268   0.521   1.301  0.00  0.00    +0.007 A 
ATOM     35  C   UNL     1       6.371  -0.312   1.293  0.00  0.00    +0.000 A 
ATOM     36  C   UNL     1       6.930  -0.707   0.092  0.00  0.00    +0.000 A 
ATOM     37  C   UNL     1       6.384  -0.272  -1.101  0.00  0.00    +0.000 A 
ATOM     38  C   UNL     1       5.278   0.558  -1.093  0.00  0.00    +0.007 A 
ENDBRANCH  32  33
ENDBRANCH  31  32
ENDBRANCH  28  31
ENDBRANCH   8  25
TORSDOF 5
