REMARK  Name = ZINC17020887
REMARK  4 active torsions:
REMARK  status: ('A' for Active; 'I' for Inactive)
REMARK    1  A    between atoms: C_1  and  C_2
REMARK    2  A    between atoms: C_10  and  O_26
REMARK    3  A    between atoms: N_21  and  O_22
REMARK    4  A    between atoms: C_23  and  O_25
REMARK                            x       y       z     vdW  Elec       q    Type
REMARK                         _______ _______ _______ _____ _____    ______ ____
ROOT
ATOM      1  C   UNL     1      -0.019   1.526   0.010  0.00  0.00    +0.014 C 
ATOM      2  C   UNL     1       0.002  -0.004   0.002  0.00  0.00    +0.003 C 
ATOM      3  C   UNL     1       0.638  -0.497  -1.280  0.00  0.00    +0.010 C 
ATOM      4  C   UNL     1       2.031   0.153  -1.387  0.00  0.00    +0.009 C 
ATOM      5  C   UNL     1       2.873  -0.173  -0.163  0.00  0.00    +0.023 C 
ATOM      6  C   UNL     1       4.225   0.478  -0.226  0.00  0.00    -0.041 A 
ATOM      7  C   UNL     1       4.824   0.630  -1.469  0.00  0.00    +0.008 A 
ATOM      8  C   UNL     1       6.069   1.212  -1.582  0.00  0.00    +0.046 A 
ATOM      9  C   UNL     1       6.729   1.649  -0.442  0.00  0.00    +0.117 A 
ATOM     10  C   UNL     1       6.129   1.501   0.796  0.00  0.00    +0.049 A 
ATOM     11  C   UNL     1       4.873   0.920   0.909  0.00  0.00    -0.040 A 
ATOM     12  C   UNL     1       4.271   0.819   2.286  0.00  0.00    +0.036 C 
ATOM     13  C   UNL     1       3.079  -0.138   2.303  0.00  0.00    +0.009 C 
ATOM     14  C   UNL     1       2.168   0.241   1.135  0.00  0.00    +0.001 C 
ATOM     15  C   UNL     1       0.861  -0.521   1.191  0.00  0.00    +0.007 C 
ATOM     16  C   UNL     1      -0.062  -0.217   2.375  0.00  0.00    +0.061 C 
ATOM     17  C   UNL     1      -1.442  -0.620   1.853  0.00  0.00    +0.087 C 
ATOM     18  N   UNL     1      -2.453  -0.962   2.559  0.00  0.00    -0.094 NA
ATOM     19  C   UNL     1      -1.387  -0.537   0.330  0.00  0.00    +0.168 C 
ENDROOT
BRANCH  18  20
ATOM     20  O   UNL     1      -3.672  -1.310   1.929  0.00  0.00    -0.409 OA
ATOM     21  H   UNL     1      -4.378  -1.553   2.544  0.00  0.00    +0.328 HD
ENDBRANCH  18  20
BRANCH  19  22
ATOM     22  O   UNL     1      -2.388   0.361  -0.152  0.00  0.00    -0.385 OA
ATOM     23  H   UNL     1      -3.294   0.075   0.028  0.00  0.00    +0.210 HD
ENDBRANCH  19  22
BRANCH   9  24
ATOM     24  O   UNL     1       7.959   2.218  -0.541  0.00  0.00    -0.507 OA
ATOM     25  H   UNL     1       7.939   3.178  -0.657  0.00  0.00    +0.292 HD
ENDBRANCH   9  24
TORSDOF 3
