REMARK  Name = ZINC39549111
REMARK  5 active torsions:
REMARK  status: ('A' for Active; 'I' for Inactive)
REMARK    1  A    between atoms: C_3  and  C_12
REMARK    2  A    between atoms: C_6  and  C_7
REMARK    3  A    between atoms: N_14  and  C_15
REMARK    4  A    between atoms: C_17  and  C_27
REMARK    5  A    between atoms: C_20  and  N_21
REMARK                            x       y       z     vdW  Elec       q    Type
REMARK                         _______ _______ _______ _____ _____    ______ ____
ROOT
ATOM      1  C   UNL     1       6.006   2.256  -0.137  0.00  0.00    +0.056 A 
ATOM      2  C   UNL     1       5.944   3.636  -0.116  0.00  0.00    +0.038 A 
ATOM      3  C   UNL     1       7.118   4.387  -0.216  0.00  0.00    +0.038 A 
ATOM      4  C   UNL     1       8.351   3.740  -0.337  0.00  0.00    +0.015 A 
ATOM      5  C   UNL     1       8.409   2.364  -0.358  0.00  0.00    +0.026 A 
ATOM      6  C   UNL     1       7.243   1.615  -0.252  0.00  0.00    +0.051 A 
ENDROOT
BRANCH   6   7
ATOM      7  N   UNL     1       7.306   0.224  -0.268  0.00  0.00    -0.328 N 
ATOM      8  C   UNL     1       7.234  -0.515  -1.536  0.00  0.00    +0.105 C 
ATOM      9  C   UNL     1       8.442  -1.451  -1.631  0.00  0.00    +0.019 C 
ATOM     10  C   UNL     1       8.492  -2.341  -0.387  0.00  0.00    +0.003 C 
ATOM     11  C   UNL     1       8.654  -1.469   0.861  0.00  0.00    +0.019 C 
ATOM     12  C   UNL     1       7.454  -0.533   0.983  0.00  0.00    +0.105 C 
ENDBRANCH   6   7
BRANCH   3  13
ATOM     13  C   UNL     1       7.057   5.861  -0.194  0.00  0.00    +0.242 C 
ATOM     14  O   UNL     1       5.984   6.423  -0.089  0.00  0.00    -0.270 OA
ATOM     15  N   UNL     1       8.190   6.584  -0.291  0.00  0.00    -0.325 N 
ATOM     16  H   UNL     1       9.046   6.136  -0.375  0.00  0.00    +0.145 HD
ATOM     17  H   UNL     1       8.149   7.553  -0.277  0.00  0.00    +0.145 HD
ENDBRANCH   3  13
BRANCH   1  20
ATOM     18  C   UNL     1       3.743   2.021   0.562  0.00  0.00    +0.248 C 
ATOM     19  O   UNL     1       3.809   3.108   1.104  0.00  0.00    -0.270 OA
ATOM     20  N   UNL     1       4.831   1.499  -0.036  0.00  0.00    -0.280 N 
ATOM     21  H   UNL     1       4.801   0.600  -0.398  0.00  0.00    +0.155 HD
BRANCH  18  24
ATOM     22  C   UNL     1       0.151   1.108   1.174  0.00  0.00    +0.006 A 
ATOM     23  C   UNL     1       1.338   1.811   1.180  0.00  0.00    +0.013 A 
ATOM     24  C   UNL     1       2.468   1.273   0.560  0.00  0.00    +0.037 A 
ATOM     25  C   UNL     1       2.388   0.026  -0.061  0.00  0.00    +0.013 A 
ATOM     26  C   UNL     1       1.195  -0.667  -0.059  0.00  0.00    +0.006 A 
ATOM     27  C   UNL     1       0.079  -0.128   0.556  0.00  0.00    -0.025 A 
BRANCH  27  28
ATOM     28  C   UNL     1      -1.221  -0.891   0.554  0.00  0.00    +0.133 C 
ATOM     29  S   UNL     1      -0.979  -2.598   1.192  0.00  0.00    -0.141 S 
ATOM     30  C   UNL     1      -2.048  -3.596   0.084  0.00  0.00    +0.081 C 
ATOM     31  C   UNL     1      -1.813  -3.016  -1.333  0.00  0.00    +0.081 C 
ATOM     32  S   UNL     1      -1.796  -1.196  -1.160  0.00  0.00    -0.141 S 
ENDBRANCH  27  28
ENDBRANCH  18  24
ENDBRANCH   1  20
TORSDOF 5
