REMARK  Name = ZINC22017769
REMARK  6 active torsions:
REMARK  status: ('A' for Active; 'I' for Inactive)
REMARK    1  A    between atoms: C_4  and  C_7
REMARK    2  A    between atoms: C_7  and  C_26
REMARK    3  A    between atoms: C_9  and  C_11
REMARK    4  A    between atoms: N_13  and  N_14
REMARK    5  A    between atoms: C_15  and  C_17
REMARK    6  A    between atoms: C_22  and  C_23
REMARK                            x       y       z     vdW  Elec       q    Type
REMARK                         _______ _______ _______ _____ _____    ______ ____
ROOT
ATOM      1  C   UNL     1      -5.307  -0.106   0.538  0.00  0.00    +0.233 C 
ATOM      2  O   UNL     1      -5.089   0.823   1.287  0.00  0.00    -0.274 OA
ATOM      3  N   UNL     1      -4.371  -0.487  -0.353  0.00  0.00    -0.234 N 
ATOM      4  H   UNL     1      -4.569  -1.329  -1.033  0.00  0.00    +0.173 HD
ENDROOT
BRANCH   3   5
ATOM      5  N   UNL     1      -3.146   0.190  -0.415  0.00  0.00    -0.230 N 
ATOM      6  C   UNL     1      -2.210  -0.191  -1.307  0.00  0.00    +0.261 C 
ATOM      7  O   UNL     1      -2.428  -1.122  -2.058  0.00  0.00    -0.269 OA
ATOM      8  H   UNL     1      -2.948   1.032   0.264  0.00  0.00    +0.173 HD
BRANCH   6   9
ATOM      9  C   UNL     1      -0.916   0.524  -1.372  0.00  0.00    +0.052 A 
ATOM     10  C   UNL     1      -0.136   0.665  -0.229  0.00  0.00    +0.014 A 
ATOM     11  C   UNL     1       1.072   1.334  -0.294  0.00  0.00    +0.001 A 
ATOM     12  C   UNL     1       1.514   1.867  -1.492  0.00  0.00    +0.001 A 
ATOM     13  C   UNL     1       0.752   1.736  -2.639  0.00  0.00    +0.016 A 
ATOM     14  C   UNL     1      -0.467   1.065  -2.591  0.00  0.00    +0.075 A 
BRANCH  14  15
ATOM     15  C   UNL     1      -1.286   0.923  -3.814  0.00  0.00    +0.387 C 
ATOM     16  O   UNL     1      -2.373   0.386  -3.758  0.00  0.00    -0.241 OA
ATOM     17  O   UNL     1      -0.824   1.389  -4.991  0.00  0.00    -0.241 OA
ENDBRANCH  14  15
ENDBRANCH   6   9
ENDBRANCH   3   5
BRANCH   1  20
ATOM     18  C   UNL     1      -7.901   0.007   0.533  0.00  0.00    +0.033 C 
ATOM     19  C   UNL     1      -7.479  -0.635   1.858  0.00  0.00    +0.031 C 
ATOM     20  C   UNL     1      -6.625  -0.834   0.605  0.00  0.00    +0.092 C 
BRANCH  18  24
ATOM     21  C   UNL     1      -7.456   4.239   0.161  0.00  0.00    +0.000 A 
ATOM     22  C   UNL     1      -7.032   3.407  -0.858  0.00  0.00    +0.000 A 
ATOM     23  C   UNL     1      -7.176   2.037  -0.738  0.00  0.00    +0.004 A 
ATOM     24  C   UNL     1      -7.744   1.500   0.402  0.00  0.00    -0.036 A 
ATOM     25  C   UNL     1      -8.173   2.332   1.419  0.00  0.00    +0.004 A 
ATOM     26  C   UNL     1      -8.025   3.701   1.301  0.00  0.00    +0.000 A 
ENDBRANCH  18  24
BRANCH  18  27
ATOM     27  C   UNL     1      -9.087  -0.588  -0.181  0.00  0.00    -0.036 A 
ATOM     28  C   UNL     1      -8.952  -1.776  -0.874  0.00  0.00    +0.004 A 
ATOM     29  C   UNL     1     -10.041  -2.324  -1.525  0.00  0.00    +0.000 A 
ATOM     30  C   UNL     1     -11.263  -1.678  -1.493  0.00  0.00    +0.000 A 
ATOM     31  C   UNL     1     -11.396  -0.487  -0.805  0.00  0.00    +0.000 A 
ATOM     32  C   UNL     1     -10.309   0.059  -0.149  0.00  0.00    +0.004 A 
ENDBRANCH  18  27
ENDBRANCH   1  20
TORSDOF 6
