REMARK  Name = ZINC13031502
REMARK  6 active torsions:
REMARK  status: ('A' for Active; 'I' for Inactive)
REMARK    1  A    between atoms: C_1  and  O_2
REMARK    2  A    between atoms: O_2  and  C_3
REMARK    3  A    between atoms: C_6  and  C_29
REMARK    4  A    between atoms: C_8  and  S_9
REMARK    5  A    between atoms: S_9  and  N_12
REMARK    6  A    between atoms: C_15  and  C_18
REMARK                            x       y       z     vdW  Elec       q    Type
REMARK                         _______ _______ _______ _____ _____    ______ ____
ROOT
ATOM      1  N   UNL     1      -1.057  10.430   1.101  0.00  0.00    -0.194 N 
ATOM      2  C   UNL     1      -0.215   9.498   0.516  0.00  0.00    +0.178 A 
ATOM      3  N   UNL     1      -0.324   8.183   0.473  0.00  0.00    -0.224 NA
ATOM      4  C   UNL     1       0.591   7.436  -0.139  0.00  0.00    +0.080 A 
ATOM      5  C   UNL     1       1.663   8.042  -0.729  0.00  0.00    +0.077 A 
ATOM      6  S   UNL     1       1.309   9.760  -0.381  0.00  0.00    -0.059 S 
ATOM      7  H   UNL     1      -1.895  10.144   1.497  0.00  0.00    +0.176 HD
ENDROOT
BRANCH   4   8
ATOM      8  C   UNL     1       0.451   5.960  -0.176  0.00  0.00    +0.001 A 
ATOM      9  C   UNL     1       1.464   5.176  -0.727  0.00  0.00    +0.012 A 
ATOM     10  C   UNL     1       1.331   3.804  -0.761  0.00  0.00    +0.024 A 
ATOM     11  C   UNL     1       0.189   3.202  -0.246  0.00  0.00    +0.037 A 
ATOM     12  C   UNL     1      -0.821   3.982   0.304  0.00  0.00    -0.025 A 
ATOM     13  C   UNL     1      -0.694   5.354   0.340  0.00  0.00    +0.015 A 
ATOM     14  C   UNL     1      -2.057   3.323   0.862  0.00  0.00    +0.046 C 
ATOM     15  C   UNL     1      -2.391   2.080   0.031  0.00  0.00    +0.101 C 
ATOM     16  C   UNL     1      -1.155   1.238  -0.142  0.00  0.00    +0.218 C 
ATOM     17  O   UNL     1      -1.252   0.029  -0.160  0.00  0.00    -0.275 OA
ATOM     18  N   UNL     1       0.054   1.810  -0.281  0.00  0.00    -0.285 N 
ATOM     19  H   UNL     1       0.839   1.253  -0.406  0.00  0.00    +0.155 HD
ENDBRANCH   4   8
BRANCH   1  20
ATOM     20  S   UNL     1      -0.634  12.030   1.124  0.00  0.00    +0.077 S 
ATOM     21  O   UNL     1      -1.701  12.723   1.756  0.00  0.00    -0.150 OA
ATOM     22  O   UNL     1       0.703  12.090   1.603  0.00  0.00    -0.150 OA
BRANCH  20  28
ATOM     23  C   UNL     1      -1.764  12.602  -1.301  0.00  0.00    +0.147 A 
ATOM     24  C   UNL     1      -1.739  13.038  -2.621  0.00  0.00    +0.048 A 
ATOM     25  C   UNL     1      -0.555  13.452  -3.188  0.00  0.00    +0.019 A 
ATOM     26  C   UNL     1       0.623  13.434  -2.436  0.00  0.00    +0.065 A 
ATOM     27  C   UNL     1       0.592  13.000  -1.107  0.00  0.00    +0.047 A 
ATOM     28  C   UNL     1      -0.595  12.583  -0.549  0.00  0.00    +0.151 A 
BRANCH  26  29
ATOM     29  C   UNL     1       1.894  13.877  -3.040  0.00  0.00    +0.387 C 
ATOM     30  O   UNL     1       2.916  13.860  -2.384  0.00  0.00    -0.241 OA
ATOM     31  O   UNL     1       1.920  14.300  -4.319  0.00  0.00    -0.241 OA
ENDBRANCH  26  29
BRANCH  23  33
ATOM     32  C   UNL     1      -4.115  12.352  -1.532  0.00  0.00    +0.277 C 
ATOM     33  O   UNL     1      -2.933  12.196  -0.745  0.00  0.00    -0.493 OA
ENDBRANCH  23  33
ENDBRANCH  20  28
ENDBRANCH   1  20
TORSDOF 5
