REMARK  Name = ZINC59438420
REMARK  8 active torsions:
REMARK  status: ('A' for Active; 'I' for Inactive)
REMARK    1  A    between atoms: C_1  and  C_2
REMARK    2  A    between atoms: C_3  and  C_23
REMARK    3  A    between atoms: C_7  and  N_8
REMARK    4  A    between atoms: N_8  and  C_9
REMARK    5  A    between atoms: C_9  and  N_11
REMARK    6  A    between atoms: C_12  and  C_14
REMARK    7  A    between atoms: C_17  and  O_21
REMARK    8  A    between atoms: O_21  and  C_22
REMARK                            x       y       z     vdW  Elec       q    Type
REMARK                         _______ _______ _______ _____ _____    ______ ____
ROOT
ATOM      1  N   UNL     1       0.025  -0.015   2.414  0.00  0.00    -0.296 N 
ATOM      2  H   UNL     1       0.490   0.832   2.490  0.00  0.00    +0.154 HD
ENDROOT
BRANCH   1   9
ATOM      3  C   UNL     1      -0.561   1.424   0.033  0.00  0.00    +0.046 C 
ATOM      4  C   UNL     1      -0.245  -0.049   0.017  0.00  0.00    -0.020 A 
ATOM      5  C   UNL     1      -0.228  -0.748  -1.189  0.00  0.00    +0.012 A 
ATOM      6  C   UNL     1       0.066  -2.112  -1.196  0.00  0.00    +0.011 A 
ATOM      7  C   UNL     1       0.338  -2.765  -0.011  0.00  0.00    +0.002 A 
ATOM      8  C   UNL     1       0.322  -2.073   1.185  0.00  0.00    +0.023 A 
ATOM      9  C   UNL     1       0.035  -0.713   1.201  0.00  0.00    +0.036 A 
BRANCH   5  10
ATOM     10  C   UNL     1      -0.521  -0.045  -2.458  0.00  0.00    +0.110 A 
ATOM     11  N   UNL     1      -0.810   1.223  -2.651  0.00  0.00    -0.239 NA
ATOM     12  C   UNL     1      -1.057   1.732  -3.873  0.00  0.00    +0.079 A 
ATOM     13  C   UNL     1      -1.378   3.067  -4.216  0.00  0.00    +0.029 A 
ATOM     14  C   UNL     1      -1.600   3.420  -5.510  0.00  0.00    +0.002 A 
ATOM     15  C   UNL     1      -1.522   2.494  -6.542  0.00  0.00    +0.001 A 
ATOM     16  C   UNL     1      -1.211   1.179  -6.250  0.00  0.00    +0.017 A 
ATOM     17  C   UNL     1      -0.985   0.812  -4.946  0.00  0.00    +0.040 A 
ATOM     18  S   UNL     1      -0.563  -0.702  -4.119  0.00  0.00    -0.067 S 
ENDBRANCH   5  10
ENDBRANCH   1   9
BRANCH   1  19
ATOM     19  C   UNL     1      -0.631  -0.521   3.477  0.00  0.00    +0.141 C 
ATOM     20  S   UNL     1      -1.359  -2.067   3.377  0.00  0.00    -0.018 S 
BRANCH  19  21
ATOM     21  N   UNL     1      -0.715   0.191   4.618  0.00  0.00    -0.264 N 
ATOM     22  C   UNL     1      -1.371  -0.315   5.681  0.00  0.00    +0.250 C 
ATOM     23  O   UNL     1      -1.888  -1.413   5.611  0.00  0.00    -0.270 OA
ATOM     24  H   UNL     1      -0.302   1.067   4.675  0.00  0.00    +0.157 HD
BRANCH  22  25
ATOM     25  C   UNL     1      -1.462   0.464   6.931  0.00  0.00    +0.038 A 
ATOM     26  C   UNL     1      -0.873   1.729   7.013  0.00  0.00    +0.017 A 
ATOM     27  C   UNL     1      -0.961   2.454   8.180  0.00  0.00    +0.047 A 
ATOM     28  C   UNL     1      -1.632   1.928   9.278  0.00  0.00    +0.134 A 
ATOM     29  C   UNL     1      -2.220   0.670   9.201  0.00  0.00    +0.060 A 
ATOM     30  C   UNL     1      -2.143  -0.058   8.034  0.00  0.00    +0.032 A 
ATOM     31 BR   UNL     1      -3.132  -0.039  10.698  0.00  0.00    -0.046 Br
BRANCH  28  32
ATOM     32  O   UNL     1      -1.716   2.645  10.427  0.00  0.00    -0.494 OA
ATOM     33  C   UNL     1      -1.090   3.930  10.437  0.00  0.00    +0.277 C 
ENDBRANCH  28  32
ENDBRANCH  22  25
ENDBRANCH  19  21
ENDBRANCH   1  19
TORSDOF 6
