REMARK  Name = ZINC14474960
REMARK  9 active torsions:
REMARK  status: ('A' for Active; 'I' for Inactive)
REMARK    1  A    between atoms: C_1  and  C_2
REMARK    2  A    between atoms: C_2  and  C_3
REMARK    3  A    between atoms: C_2  and  C_4
REMARK    4  A    between atoms: C_7  and  S_10
REMARK    5  A    between atoms: S_10  and  N_13
REMARK    6  A    between atoms: C_16  and  C_19
REMARK    7  A    between atoms: N_21  and  C_22
REMARK    8  A    between atoms: C_26  and  N_28
REMARK    9  A    between atoms: C_29  and  C_31
REMARK                            x       y       z     vdW  Elec       q    Type
REMARK                         _______ _______ _______ _____ _____    ______ ____
ROOT
ATOM      1  N   UNL     1       0.162   4.617   1.191  0.00  0.00    -0.177 NA
ATOM      2  C   UNL     1      -0.993   4.862   2.065  0.00  0.00    +0.110 C 
ATOM      3  C   UNL     1      -0.818   6.214   2.753  0.00  0.00    +0.030 C 
ATOM      4  C   UNL     1       0.533   6.247   3.472  0.00  0.00    +0.078 C 
ATOM      5  C   UNL     1       1.660   6.073   2.452  0.00  0.00    +0.030 C 
ATOM      6  C   UNL     1       1.512   4.713   1.761  0.00  0.00    +0.110 C 
ENDROOT
BRANCH   4   7
ATOM      7  C   UNL     1       0.694   7.569   4.178  0.00  0.00    +0.220 C 
ATOM      8  O   UNL     1       1.619   8.300   3.892  0.00  0.00    -0.275 OA
ATOM      9  N   UNL     1      -0.189   7.939   5.126  0.00  0.00    -0.285 N 
ATOM     10  H   UNL     1      -0.966   7.387   5.307  0.00  0.00    +0.155 HD
BRANCH   9  11
ATOM     11  C   UNL     1       0.013   9.121   5.848  0.00  0.00    +0.035 A 
ATOM     12  C   UNL     1      -0.351   9.188   7.187  0.00  0.00    +0.023 A 
ATOM     13  C   UNL     1      -0.147  10.352   7.902  0.00  0.00    +0.004 A 
ATOM     14  C   UNL     1       0.410  11.457   7.285  0.00  0.00    +0.023 A 
ATOM     15  C   UNL     1       0.771  11.397   5.945  0.00  0.00    +0.035 A 
ATOM     16  C   UNL     1       0.572  10.227   5.226  0.00  0.00    +0.046 A 
BRANCH  15  17
ATOM     17  N   UNL     1       1.335  12.516   5.322  0.00  0.00    -0.286 N 
ATOM     18  C   UNL     1       0.953  13.755   5.688  0.00  0.00    +0.214 C 
ATOM     19  O   UNL     1       0.056  13.901   6.491  0.00  0.00    -0.276 OA
ATOM     20  C   UNL     1       1.641  14.960   5.099  0.00  0.00    +0.109 C 
ATOM     21  H   UNL     1       2.000  12.399   4.626  0.00  0.00    +0.155 HD
ENDBRANCH  15  17
ENDBRANCH   9  11
ENDBRANCH   4   7
BRANCH   1  22
ATOM     22  S   UNL     1      -0.054   4.245  -0.408  0.00  0.00    +0.061 S 
ATOM     23  O   UNL     1       1.142   4.619  -1.077  0.00  0.00    -0.153 OA
ATOM     24  O   UNL     1      -1.326   4.760  -0.777  0.00  0.00    -0.153 OA
BRANCH  22  28
ATOM     25  C   UNL     1      -0.347  -0.262  -0.708  0.00  0.00    -0.045 A 
ATOM     26  C   UNL     1      -1.489   0.493  -0.517  0.00  0.00    +0.006 A 
ATOM     27  C   UNL     1      -1.399   1.870  -0.425  0.00  0.00    +0.029 A 
ATOM     28  C   UNL     1      -0.168   2.490  -0.524  0.00  0.00    +0.105 A 
ATOM     29  C   UNL     1       0.974   1.735  -0.717  0.00  0.00    +0.029 A 
ATOM     30  C   UNL     1       0.884   0.358  -0.807  0.00  0.00    +0.006 A 
BRANCH  25  32
ATOM     31  C   UNL     1       0.091  -2.220  -2.165  0.00  0.00    +0.012 C 
ATOM     32  C   UNL     1      -0.444  -1.763  -0.806  0.00  0.00    +0.013 C 
ATOM     33  C   UNL     1       0.384  -2.402   0.310  0.00  0.00    +0.012 C 
ENDBRANCH  25  32
ENDBRANCH  22  28
ENDBRANCH   1  22
TORSDOF 6
