REMARK  Name = ZINC34923980
REMARK  11 active torsions:
REMARK  status: ('A' for Active; 'I' for Inactive)
REMARK    1  A    between atoms: C_1  and  C_2
REMARK    2  A    between atoms: C_2  and  O_3
REMARK    3  A    between atoms: O_3  and  C_4
REMARK    4  A    between atoms: C_4  and  C_6
REMARK    5  A    between atoms: C_7  and  C_35
REMARK    6  A    between atoms: C_11  and  C_13
REMARK    7  A    between atoms: C_20  and  C_23
REMARK    8  A    between atoms: C_24  and  N_26
REMARK    9  A    between atoms: N_26  and  C_27
REMARK   10  A    between atoms: C_27  and  C_28
REMARK   11  A    between atoms: C_28  and  C_29
REMARK                            x       y       z     vdW  Elec       q    Type
REMARK                         _______ _______ _______ _____ _____    ______ ____
ROOT
ATOM      1  C   UNL     1      -2.652  -2.099   0.139  0.00  0.00    +0.083 C 
ATOM      2  C   UNL     1      -2.668  -3.440  -0.196  0.00  0.00    +0.053 C 
ATOM      3  N   UNL     1      -3.816  -4.079  -0.352  0.00  0.00    -0.230 NA
ATOM      4  C   UNL     1      -5.006  -3.531  -0.211  0.00  0.00    +0.166 C 
ATOM      5  N   UNL     1      -5.208  -2.220   0.118  0.00  0.00    -0.267 N 
ATOM      6  C   UNL     1      -3.982  -1.403   0.324  0.00  0.00    +0.152 C 
ATOM      7  C   UNL     1      -6.517  -1.797   0.229  0.00  0.00    +0.048 C 
ATOM      8  C   UNL     1      -7.492  -2.706   0.005  0.00  0.00    +0.072 C 
ATOM      9  S   UNL     1      -6.549  -4.172  -0.366  0.00  0.00    -0.060 S 
ATOM     10  C   UNL     1      -1.368  -4.179  -0.386  0.00  0.00    +0.066 C 
ENDROOT
BRANCH   6  11
ATOM     11  C   UNL     1      -4.022  -0.843   1.722  0.00  0.00    +0.013 A 
ATOM     12  C   UNL     1      -3.843   0.512   1.929  0.00  0.00    +0.008 A 
ATOM     13  C   UNL     1      -3.880   1.026   3.212  0.00  0.00    +0.001 A 
ATOM     14  C   UNL     1      -4.096   0.186   4.289  0.00  0.00    +0.003 A 
ATOM     15  C   UNL     1      -4.276  -1.169   4.084  0.00  0.00    +0.039 A 
ATOM     16  C   UNL     1      -4.245  -1.684   2.799  0.00  0.00    +0.129 A 
ATOM     17  F   UNL     1      -4.425  -3.008   2.597  0.00  0.00    -0.205 F 
ENDBRANCH   6  11
BRANCH   7  18
ATOM     18  C   UNL     1      -6.840  -0.406   0.578  0.00  0.00    +0.091 C 
ATOM     19  C   UNL     1      -8.120   0.014   0.559  0.00  0.00    +0.239 C 
ATOM     20  O   UNL     1      -9.120  -0.871   0.327  0.00  0.00    -0.271 OA
BRANCH  19  21
ATOM     21  N   UNL     1      -8.414   1.349   0.775  0.00  0.00    -0.311 N 
ATOM     22  H   UNL     1      -7.699   1.983   0.942  0.00  0.00    +0.149 HD
BRANCH  21  23
ATOM     23  C   UNL     1      -9.806   1.806   0.754  0.00  0.00    +0.109 C 
BRANCH  23  24
ATOM     24  C   UNL     1      -9.853   3.312   1.020  0.00  0.00    +0.054 C 
BRANCH  24  25
ATOM     25  C   UNL     1     -11.285   3.781   0.998  0.00  0.00    -0.046 A 
ATOM     26  C   UNL     1     -11.857   4.201  -0.189  0.00  0.00    +0.004 A 
ATOM     27  C   UNL     1     -13.170   4.632  -0.209  0.00  0.00    +0.000 A 
ATOM     28  C   UNL     1     -13.912   4.642   0.958  0.00  0.00    +0.000 A 
ATOM     29  C   UNL     1     -13.341   4.221   2.144  0.00  0.00    +0.000 A 
ATOM     30  C   UNL     1     -12.028   3.787   2.163  0.00  0.00    +0.004 A 
ENDBRANCH  24  25
ENDBRANCH  23  24
ENDBRANCH  21  23
ENDBRANCH  19  21
ENDBRANCH   7  18
BRANCH   1  31
ATOM     31  C   UNL     1      -1.446  -1.410   0.307  0.00  0.00    +0.339 C 
ATOM     32  O   UNL     1      -0.388  -2.014   0.271  0.00  0.00    -0.245 OA
BRANCH  31  33
ATOM     33  O   UNL     1      -1.453  -0.074   0.510  0.00  0.00    -0.462 OA
BRANCH  33  35
ATOM     34  C   UNL     1      -0.395   2.065   0.892  0.00  0.00    +0.048 C 
ATOM     35  C   UNL     1      -0.186   0.565   0.674  0.00  0.00    +0.229 C 
ENDBRANCH  33  35
ENDBRANCH  31  33
ENDBRANCH   1  31
TORSDOF 9
