REMARK  Name = ZINC37934297
REMARK  6 active torsions:
REMARK  status: ('A' for Active; 'I' for Inactive)
REMARK    1  A    between atoms: C_1  and  N_2
REMARK    2  A    between atoms: N_2  and  C_3
REMARK    3  A    between atoms: N_2  and  C_14
REMARK    4  A    between atoms: C_5  and  N_13
REMARK    5  A    between atoms: C_7  and  S_9
REMARK    6  A    between atoms: S_9  and  N_12
REMARK                            x       y       z     vdW  Elec       q    Type
REMARK                         _______ _______ _______ _____ _____    ______ ____
ROOT
ATOM      1  C   UNL     1       0.006  -0.805   1.146  0.00  0.00    +0.033 A 
ATOM      2  C   UNL     1      -0.088  -2.184   1.029  0.00  0.00    +0.046 A 
ATOM      3  C   UNL     1      -0.084  -2.976   2.169  0.00  0.00    +0.028 A 
ATOM      4  C   UNL     1       0.016  -2.386   3.423  0.00  0.00    +0.051 A 
ATOM      5  C   UNL     1       0.110  -1.012   3.536  0.00  0.00    +0.108 A 
ATOM      6  C   UNL     1       0.112  -0.221   2.403  0.00  0.00    +0.051 A 
ENDROOT
BRANCH   5   7
ATOM      7  S   UNL     1       0.237  -0.268   5.128  0.00  0.00    +0.056 S 
ATOM      8  O   UNL     1      -0.236   1.065   4.992  0.00  0.00    -0.153 OA
ATOM      9  O   UNL     1      -0.330  -1.187   6.052  0.00  0.00    -0.153 OA
BRANCH   7  10
ATOM     10  N   UNL     1       1.849  -0.163   5.493  0.00  0.00    -0.204 NA
ATOM     11  H   UNL     1       2.172   0.555   6.059  0.00  0.00    +0.144 HD
ATOM     12  H   UNL     1       2.470  -0.820   5.140  0.00  0.00    +0.144 HD
ENDBRANCH   7  10
ENDBRANCH   5   7
BRANCH   3  13
ATOM     13  N   UNL     1      -0.180  -4.365   2.055  0.00  0.00    -0.358 N 
ATOM     14  H   UNL     1      -0.250  -4.777   1.180  0.00  0.00    +0.142 HD
ATOM     15  H   UNL     1      -0.176  -4.918   2.852  0.00  0.00    +0.142 HD
ENDBRANCH   3  13
BRANCH   1  17
ATOM     16  C   UNL     1      -0.019   1.455   0.129  0.00  0.00    +0.129 C 
ATOM     17  N   UNL     1       0.002  -0.004   0.002  0.00  0.00    -0.330 N 
BRANCH  17  18
ATOM     18  C   UNL     1       0.019  -0.624  -1.325  0.00  0.00    +0.073 C 
ATOM     19  C   UNL     1       1.367  -0.309  -2.006  0.00  0.00    +0.022 C 
ATOM     20  C   UNL     1       1.600  -1.322  -3.094  0.00  0.00    +0.002 C 
ATOM     21  C   UNL     1       1.116  -0.829  -4.472  0.00  0.00    +0.000 C 
ATOM     22  C   UNL     1      -0.239  -0.100  -4.402  0.00  0.00    +0.000 C 
ATOM     23  C   UNL     1      -1.215  -0.784  -3.484  0.00  0.00    +0.002 C 
ATOM     24  C   UNL     1      -1.117  -0.131  -2.090  0.00  0.00    +0.022 C 
ENDBRANCH  17  18
ENDBRANCH   1  17
TORSDOF 5
