REMARK  Name = ZINC38893362
REMARK  11 active torsions:
REMARK  status: ('A' for Active; 'I' for Inactive)
REMARK    1  A    between atoms: C_1  and  O_2
REMARK    2  A    between atoms: O_2  and  C_3
REMARK    3  A    between atoms: C_6  and  C_11
REMARK    4  A    between atoms: C_8  and  O_9
REMARK    5  A    between atoms: O_9  and  C_10
REMARK    6  A    between atoms: C_13  and  C_16
REMARK    7  A    between atoms: C_16  and  N_17
REMARK    8  A    between atoms: C_21  and  C_24
REMARK    9  A    between atoms: N_29  and  C_32
REMARK   10  A    between atoms: C_32  and  C_33
REMARK   11  A    between atoms: C_34  and  C_35
REMARK                            x       y       z     vdW  Elec       q    Type
REMARK                         _______ _______ _______ _____ _____    ______ ____
ROOT
ATOM      1  N   UNL     1      -9.079  -2.522  -1.339  0.00  0.00    +0.386 N 
ATOM      2  C   UNL     1      -8.934  -3.830  -1.989  0.00  0.00    -0.078 C 
ATOM      3  C   UNL     1      -9.373  -3.729  -3.451  0.00  0.00    -0.018 C 
ATOM      4  C   UNL     1     -10.839  -3.289  -3.509  0.00  0.00    +0.009 C 
ATOM      5  C   UNL     1     -10.992  -1.959  -2.764  0.00  0.00    +0.059 C 
ATOM      6  C   UNL     1     -10.493  -2.126  -1.327  0.00  0.00    -0.065 C 
ATOM      7  H   UNL     1      -8.543  -1.835  -1.847  0.00  0.00    -0.081 HD
ENDROOT
BRANCH   5   8
ATOM      8  C   UNL     1     -12.443  -1.555  -2.750  0.00  0.00    +0.217 C 
ATOM      9  O   UNL     1     -13.309  -2.398  -2.856  0.00  0.00    -0.275 OA
ATOM     10  N   UNL     1     -12.780  -0.256  -2.620  0.00  0.00    -0.299 N 
ATOM     11  C   UNL     1     -11.749   0.792  -2.602  0.00  0.00    +0.123 C 
ATOM     12  C   UNL     1     -11.980   1.680  -1.374  0.00  0.00    +0.103 C 
ATOM     13  N   UNL     1     -13.364   2.171  -1.382  0.00  0.00    -0.296 NA
ATOM     14  C   UNL     1     -14.323   1.063  -1.270  0.00  0.00    +0.103 C 
ATOM     15  C   UNL     1     -14.188   0.150  -2.499  0.00  0.00    +0.123 C 
BRANCH  13  16
ATOM     16  C   UNL     1     -13.578   3.161  -0.318  0.00  0.00    +0.111 C 
BRANCH  16  17
ATOM     17  C   UNL     1     -14.921   3.819  -0.507  0.00  0.00    -0.011 C 
ATOM     18  C   UNL     1     -15.805   3.816   0.481  0.00  0.00    +0.005 C 
BRANCH  18  19
ATOM     19  C   UNL     1     -17.122   4.460   0.297  0.00  0.00    -0.025 A 
ATOM     20  C   UNL     1     -17.440   5.068  -0.918  0.00  0.00    +0.008 A 
ATOM     21  C   UNL     1     -18.672   5.669  -1.084  0.00  0.00    +0.001 A 
ATOM     22  C   UNL     1     -19.589   5.669  -0.049  0.00  0.00    +0.000 A 
ATOM     23  C   UNL     1     -19.280   5.068   1.158  0.00  0.00    +0.001 A 
ATOM     24  C   UNL     1     -18.055   4.459   1.335  0.00  0.00    +0.008 A 
ENDBRANCH  18  19
ENDBRANCH  16  17
ENDBRANCH  13  16
ENDBRANCH   5   8
BRANCH   1  25
ATOM     25  C   UNL     1      -8.584  -2.604   0.041  0.00  0.00    +0.022 C 
BRANCH  25  28
ATOM     26  C   UNL     1      -4.955  -2.600   0.003  0.00  0.00    +0.202 A 
ATOM     27  N   UNL     1      -6.157  -1.997   0.011  0.00  0.00    -0.193 NA
ATOM     28  C   UNL     1      -7.104  -2.890   0.028  0.00  0.00    +0.211 A 
ATOM     29  O   UNL     1      -6.542  -4.106   0.031  0.00  0.00    -0.340 OA
ATOM     30  N   UNL     1      -5.138  -3.898   0.010  0.00  0.00    -0.056 NA
BRANCH  26  34
ATOM     31  C   UNL     1      -1.187  -0.619  -0.051  0.00  0.00    +0.162 A 
ATOM     32  C   UNL     1      -2.360   0.121  -0.039  0.00  0.00    +0.050 A 
ATOM     33  C   UNL     1      -3.582  -0.519  -0.022  0.00  0.00    +0.015 A 
ATOM     34  C   UNL     1      -3.641  -1.912  -0.016  0.00  0.00    +0.026 A 
ATOM     35  C   UNL     1      -2.463  -2.657  -0.028  0.00  0.00    +0.061 A 
ATOM     36  C   UNL     1      -1.240  -2.011  -0.050  0.00  0.00    +0.162 A 
BRANCH  31  38
ATOM     37  C   UNL     1      -0.005   1.443  -0.067  0.00  0.00    +0.277 C 
ATOM     38  O   UNL     1       0.015   0.015  -0.068  0.00  0.00    -0.491 OA
ENDBRANCH  31  38
BRANCH  36  39
ATOM     39  O   UNL     1      -0.088  -2.735  -0.067  0.00  0.00    -0.491 OA
ATOM     40  C   UNL     1      -0.217  -4.158  -0.066  0.00  0.00    +0.277 C 
ENDBRANCH  36  39
ENDBRANCH  26  34
ENDBRANCH  25  28
ENDBRANCH   1  25
TORSDOF 9
