REMARK  Name = ZINC16606640
REMARK  6 active torsions:
REMARK  status: ('A' for Active; 'I' for Inactive)
REMARK    1  A    between atoms: C_1  and  C_2
REMARK    2  A    between atoms: C_3  and  C_17
REMARK    3  A    between atoms: C_4  and  C_12
REMARK    4  A    between atoms: C_6  and  C_10
REMARK    5  A    between atoms: C_7  and  N_9
REMARK    6  A    between atoms: N_19  and  C_20
REMARK                            x       y       z     vdW  Elec       q    Type
REMARK                         _______ _______ _______ _____ _____    ______ ____
ROOT
ATOM      1  C   UNL     1      -3.522   8.022   0.248  0.00  0.00    +0.087 C 
ATOM      2  C   UNL     1      -2.196   8.736   0.202  0.00  0.00    +0.113 C 
ATOM      3  C   UNL     1      -1.072   8.015   0.124  0.00  0.00    +0.065 C 
ATOM      4  C   UNL     1       0.278   8.677   0.081  0.00  0.00    +0.109 C 
ATOM      5  C   UNL     1       0.122  10.134  -0.269  0.00  0.00    +0.099 C 
ATOM      6  C   UNL     1      -1.083  10.746  -0.168  0.00  0.00    +0.198 C 
ATOM      7  O   UNL     1      -2.177  10.078   0.241  0.00  0.00    -0.445 OA
ENDROOT
BRANCH   4   8
ATOM      8  C   UNL     1       0.941   8.550   1.429  0.00  0.00    +0.003 A 
ATOM      9  C   UNL     1       2.114   7.952   1.750  0.00  0.00    +0.012 A 
ATOM     10  C   UNL     1       2.530   7.958   3.068  0.00  0.00    +0.008 A 
ATOM     11  C   UNL     1       1.754   8.562   4.000  0.00  0.00    +0.045 A 
ATOM     12  S   UNL     1       0.388   9.155   3.015  0.00  0.00    -0.101 S 
ENDBRANCH   4   8
BRANCH   3  13
ATOM     13  C   UNL     1      -1.156   6.556   0.085  0.00  0.00    +0.248 C 
ATOM     14  O   UNL     1      -0.905   5.959  -0.945  0.00  0.00    -0.270 OA
ATOM     15  N   UNL     1      -1.513   5.873   1.191  0.00  0.00    -0.282 N 
ATOM     16  H   UNL     1      -1.770   6.351   1.995  0.00  0.00    +0.155 HD
BRANCH  15  17
ATOM     17  C   UNL     1      -1.513   4.474   1.178  0.00  0.00    +0.034 A 
ATOM     18  C   UNL     1      -1.152   3.768   2.319  0.00  0.00    +0.025 A 
ATOM     19  C   UNL     1      -1.153   2.387   2.304  0.00  0.00    +0.022 A 
ATOM     20  C   UNL     1      -1.512   1.707   1.154  0.00  0.00    +0.041 A 
ATOM     21  C   UNL     1      -1.866   2.407   0.015  0.00  0.00    +0.022 A 
ATOM     22  C   UNL     1      -1.873   3.788   0.025  0.00  0.00    +0.025 A 
ATOM     23 CL   UNL     1      -1.512  -0.029   1.139  0.00  0.00    -0.084 Cl
ENDBRANCH  15  17
ENDBRANCH   3  13
BRANCH   6  24
ATOM     24  N   UNL     1      -1.189  12.076  -0.490  0.00  0.00    -0.328 N 
ATOM     25  H   UNL     1      -2.046  12.525  -0.421  0.00  0.00    +0.145 HD
ATOM     26  H   UNL     1      -0.407  12.568  -0.786  0.00  0.00    +0.145 HD
ENDBRANCH   6  24
BRANCH   5  27
ATOM     27  C   UNL     1       1.261  10.882  -0.709  0.00  0.00    +0.101 C 
ATOM     28  N   UNL     1       2.165  11.476  -1.058  0.00  0.00    -0.191 NA
ENDBRANCH   5  27
TORSDOF 5
