REMARK  Name = ZINC43259645
REMARK  7 active torsions:
REMARK  status: ('A' for Active; 'I' for Inactive)
REMARK    1  A    between atoms: C_1  and  C_2
REMARK    2  A    between atoms: C_5  and  N_8
REMARK    3  A    between atoms: N_14  and  S_28
REMARK    4  A    between atoms: C_15  and  C_18
REMARK    5  A    between atoms: N_20  and  C_21
REMARK    6  A    between atoms: C_21  and  C_22
REMARK    7  A    between atoms: S_28  and  C_31
REMARK                            x       y       z     vdW  Elec       q    Type
REMARK                         _______ _______ _______ _____ _____    ______ ____
ROOT
ATOM      1  N   UNL     1      -0.127  -3.830  -1.064  0.00  0.00    -0.269 N 
ATOM      2  C   UNL     1      -0.259  -4.305   0.191  0.00  0.00    +0.307 C 
ATOM      3  O   UNL     1      -0.887  -3.672   1.017  0.00  0.00    -0.252 OA
ATOM      4  N   UNL     1       0.306  -5.481   0.529  0.00  0.00    -0.282 N 
ATOM      5  C   UNL     1       1.148  -6.210  -0.430  0.00  0.00    +0.126 C 
ATOM      6  C   UNL     1       0.589  -7.629  -0.592  0.00  0.00    +0.129 C 
ATOM      7  N   UNL     1       0.375  -8.205   0.743  0.00  0.00    -0.162 NA
ATOM      8  C   UNL     1      -0.467  -7.476   1.702  0.00  0.00    +0.183 C 
ATOM      9  C   UNL     1       0.097  -6.054   1.866  0.00  0.00    +0.139 C 
ATOM     10  H   UNL     1       0.336  -4.356  -1.735  0.00  0.00    +0.156 HD
ENDROOT
BRANCH   1  15
ATOM     11  C   UNL     1      -2.283   1.239  -2.422  0.00  0.00    +0.044 C 
ATOM     12  C   UNL     1      -1.710  -0.108  -2.061  0.00  0.00    -0.050 A 
ATOM     13  C   UNL     1      -0.551  -0.550  -2.671  0.00  0.00    +0.005 A 
ATOM     14  C   UNL     1      -0.023  -1.783  -2.342  0.00  0.00    +0.023 A 
ATOM     15  C   UNL     1      -0.659  -2.580  -1.399  0.00  0.00    +0.035 A 
ATOM     16  C   UNL     1      -1.823  -2.133  -0.788  0.00  0.00    +0.023 A 
ATOM     17  C   UNL     1      -2.343  -0.896  -1.117  0.00  0.00    +0.005 A 
ENDBRANCH   1  15
BRANCH   8  18
ATOM     18  C   UNL     1      -0.449  -8.185   3.031  0.00  0.00    +0.234 C 
ATOM     19  O   UNL     1       0.607  -8.420   3.579  0.00  0.00    -0.274 OA
ATOM     20  N   UNL     1      -1.607  -8.557   3.612  0.00  0.00    -0.310 N 
ATOM     21  H   UNL     1      -2.451  -8.369   3.174  0.00  0.00    +0.149 HD
BRANCH  20  22
ATOM     22  C   UNL     1      -1.590  -9.247   4.904  0.00  0.00    +0.139 C 
BRANCH  22  23
ATOM     23  C   UNL     1      -3.003  -9.551   5.330  0.00  0.00    -0.030 A 
ATOM     24  C   UNL     1      -3.710  -8.633   6.084  0.00  0.00    +0.005 A 
ATOM     25  C   UNL     1      -5.007  -8.912   6.475  0.00  0.00    +0.000 A 
ATOM     26  C   UNL     1      -5.596 -10.108   6.111  0.00  0.00    +0.000 A 
ATOM     27  C   UNL     1      -4.889 -11.026   5.356  0.00  0.00    +0.000 A 
ATOM     28  C   UNL     1      -3.594 -10.745   4.962  0.00  0.00    +0.005 A 
ENDBRANCH  22  23
ENDBRANCH  20  22
ENDBRANCH   8  18
BRANCH   7  29
ATOM     29  S   UNL     1       1.069  -9.650   1.159  0.00  0.00    +0.062 S 
ATOM     30  O   UNL     1       0.218 -10.245   2.128  0.00  0.00    -0.153 OA
ATOM     31  O   UNL     1       1.411 -10.301  -0.057  0.00  0.00    -0.153 OA
BRANCH  29  32
ATOM     32  C   UNL     1       2.585  -9.283   1.978  0.00  0.00    +0.106 A 
ATOM     33  C   UNL     1       3.632  -8.719   1.272  0.00  0.00    +0.031 A 
ATOM     34  C   UNL     1       4.822  -8.430   1.914  0.00  0.00    +0.040 A 
ATOM     35  C   UNL     1       4.965  -8.706   3.263  0.00  0.00    +0.124 A 
ATOM     36  C   UNL     1       3.916  -9.270   3.969  0.00  0.00    +0.040 A 
ATOM     37  C   UNL     1       2.725  -9.553   3.326  0.00  0.00    +0.031 A 
ATOM     38  F   UNL     1       6.128  -8.424   3.891  0.00  0.00    -0.205 F 
ENDBRANCH  29  32
ENDBRANCH   7  29
TORSDOF 6
