REMARK  Name = ZINC12250161
REMARK  11 active torsions:
REMARK  status: ('A' for Active; 'I' for Inactive)
REMARK    1  A    between atoms: C_1  and  C_2
REMARK    2  A    between atoms: C_6  and  C_37
REMARK    3  A    between atoms: C_7  and  N_8
REMARK    4  A    between atoms: C_9  and  C_11
REMARK    5  A    between atoms: C_12  and  C_36
REMARK    6  A    between atoms: C_14  and  S_25
REMARK    7  A    between atoms: C_15  and  C_23
REMARK    8  A    between atoms: C_16  and  C_18
REMARK    9  A    between atoms: S_25  and  C_26
REMARK   10  A    between atoms: C_26  and  C_27
REMARK   11  A    between atoms: N_29  and  C_30
REMARK                            x       y       z     vdW  Elec       q    Type
REMARK                         _______ _______ _______ _____ _____    ______ ____
ROOT
ATOM      1  C   UNL     1       1.460  -0.743   0.112  0.00  0.00    +0.047 C 
ATOM      2  C   UNL     1       2.244  -0.148   1.025  0.00  0.00    +0.015 C 
ATOM      3  N   UNL     1       2.130   1.190   1.288  0.00  0.00    -0.312 N 
ATOM      4  C   UNL     1       1.486   2.018   0.396  0.00  0.00    +0.080 C 
ATOM      5  C   UNL     1       0.660   1.501  -0.553  0.00  0.00    +0.072 C 
ATOM      6  C   UNL     1       0.418   0.022  -0.653  0.00  0.00    +0.134 C 
ATOM      7  C   UNL     1       3.267  -0.967   1.771  0.00  0.00    +0.061 C 
ATOM      8  H   UNL     1       2.554   1.606   2.214  0.00  0.00    +0.152 HD
ENDROOT
BRANCH   6   9
ATOM      9  C   UNL     1      -0.943  -0.297  -0.091  0.00  0.00    +0.118 A 
ATOM     10  C   UNL     1      -1.958  -0.867  -0.764  0.00  0.00    +0.045 A 
ATOM     11  C   UNL     1      -3.037  -0.983   0.142  0.00  0.00    +0.041 A 
ATOM     12  C   UNL     1      -2.619  -0.470   1.313  0.00  0.00    +0.195 A 
ATOM     13  O   UNL     1      -1.350  -0.056   1.166  0.00  0.00    -0.467 OA
ENDBRANCH   6   9
BRANCH   1  15
ATOM     14  N   UNL     1       0.765  -2.767  -0.960  0.00  0.00    -0.281 N 
ATOM     15  C   UNL     1       1.618  -2.128  -0.135  0.00  0.00    +0.247 C 
ATOM     16  O   UNL     1       2.524  -2.742   0.398  0.00  0.00    -0.270 OA
ATOM     17  H   UNL     1      -0.028  -2.205  -1.475  0.00  0.00    +0.155 HD
BRANCH  14  24
ATOM     18  C   UNL     1       3.247  -3.767  -1.928  0.00  0.00    +0.045 C 
ATOM     19  C   UNL     1       2.082  -4.676  -1.633  0.00  0.00    -0.029 A 
ATOM     20  C   UNL     1       2.202  -6.038  -1.826  0.00  0.00    +0.005 A 
ATOM     21  C   UNL     1       1.131  -6.872  -1.562  0.00  0.00    +0.001 A 
ATOM     22  C   UNL     1      -0.061  -6.347  -1.097  0.00  0.00    +0.005 A 
ATOM     23  C   UNL     1      -0.185  -4.986  -0.897  0.00  0.00    -0.029 A 
ATOM     24  C   UNL     1       0.888  -4.146  -1.162  0.00  0.00    +0.040 A 
ATOM     25  C   UNL     1      -1.484  -4.414  -0.390  0.00  0.00    +0.045 C 
ENDBRANCH  14  24
ENDBRANCH   1  15
BRANCH   5  26
ATOM     26  C   UNL     1       0.013   2.383  -1.477  0.00  0.00    +0.098 C 
ATOM     27  N   UNL     1      -0.500   3.083  -2.210  0.00  0.00    -0.191 NA
ENDBRANCH   5  26
BRANCH   4  28
ATOM     28  S   UNL     1       1.734   3.760   0.485  0.00  0.00    -0.100 S 
BRANCH  28  29
ATOM     29  C   UNL     1       2.882   3.844   1.881  0.00  0.00    +0.171 C 
BRANCH  29  30
ATOM     30  C   UNL     1       3.244   5.282   2.148  0.00  0.00    +0.227 C 
ATOM     31  O   UNL     1       2.773   6.164   1.462  0.00  0.00    -0.275 OA
ATOM     32  N   UNL     1       4.092   5.589   3.150  0.00  0.00    -0.285 N 
ATOM     33  H   UNL     1       4.590   4.786   3.714  0.00  0.00    +0.155 HD
BRANCH  32  34
ATOM     34  C   UNL     1       4.339   6.928   3.473  0.00  0.00    +0.033 A 
ATOM     35  C   UNL     1       5.558   7.296   4.028  0.00  0.00    +0.023 A 
ATOM     36  C   UNL     1       5.801   8.620   4.340  0.00  0.00    +0.002 A 
ATOM     37  C   UNL     1       4.828   9.575   4.111  0.00  0.00    +0.000 A 
ATOM     38  C   UNL     1       3.612   9.211   3.563  0.00  0.00    +0.002 A 
ATOM     39  C   UNL     1       3.365   7.890   3.243  0.00  0.00    +0.023 A 
ENDBRANCH  32  34
ENDBRANCH  29  30
ENDBRANCH  28  29
ENDBRANCH   4  28
TORSDOF 8
