REMARK  Name = ZINC16517861
REMARK  7 active torsions:
REMARK  status: ('A' for Active; 'I' for Inactive)
REMARK    1  A    between atoms: C_1  and  C_2
REMARK    2  A    between atoms: C_5  and  N_9
REMARK    3  A    between atoms: C_6  and  C_8
REMARK    4  A    between atoms: C_13  and  C_15
REMARK    5  A    between atoms: C_15  and  N_16
REMARK    6  A    between atoms: N_19  and  S_22
REMARK    7  A    between atoms: S_22  and  C_25
REMARK                            x       y       z     vdW  Elec       q    Type
REMARK                         _______ _______ _______ _____ _____    ______ ____
ROOT
ATOM      1  N   UNL     1      -0.415  -8.841  -3.737  0.00  0.00    -0.291 NA
ATOM      2  C   UNL     1      -1.672  -8.405  -4.359  0.00  0.00    +0.102 C 
ATOM      3  C   UNL     1      -1.656  -8.773  -5.846  0.00  0.00    +0.125 C 
ATOM      4  N   UNL     1      -1.366 -10.209  -5.970  0.00  0.00    -0.174 NA
ATOM      5  C   UNL     1      -0.196 -10.747  -5.259  0.00  0.00    +0.125 C 
ATOM      6  C   UNL     1      -0.270 -10.302  -3.795  0.00  0.00    +0.102 C 
ENDROOT
BRANCH   4   7
ATOM      7  S   UNL     1      -2.331 -11.195  -6.886  0.00  0.00    +0.061 S 
ATOM      8  O   UNL     1      -2.162 -12.512  -6.380  0.00  0.00    -0.153 OA
ATOM      9  O   UNL     1      -3.602 -10.565  -6.960  0.00  0.00    -0.153 OA
BRANCH   7  10
ATOM     10  C   UNL     1      -1.674 -11.196  -8.520  0.00  0.00    +0.106 A 
ATOM     11  C   UNL     1      -2.115 -10.244  -9.438  0.00  0.00    +0.029 A 
ATOM     12  C   UNL     1      -1.627 -10.217 -10.708  0.00  0.00    +0.010 A 
ATOM     13  C   UNL     1      -0.665 -11.161 -11.104  0.00  0.00    -0.018 A 
ATOM     14  C   UNL     1      -0.138 -11.165 -12.407  0.00  0.00    +0.008 A 
ATOM     15  C   UNL     1       0.793 -12.094 -12.755  0.00  0.00    +0.001 A 
ATOM     16  C   UNL     1       1.234 -13.046 -11.837  0.00  0.00    +0.001 A 
ATOM     17  C   UNL     1       0.747 -13.073 -10.567  0.00  0.00    +0.008 A 
ATOM     18  C   UNL     1      -0.216 -12.129 -10.171  0.00  0.00    -0.016 A 
ATOM     19  C   UNL     1      -0.739 -12.122  -8.866  0.00  0.00    +0.037 A 
ENDBRANCH   7  10
ENDBRANCH   4   7
BRANCH   1  20
ATOM     20  C   UNL     1      -0.317  -8.357  -2.353  0.00  0.00    +0.181 C 
BRANCH  20  25
ATOM     21  N   UNL     1       0.059  -4.170  -0.021  0.00  0.00    -0.269 N 
ATOM     22  C   UNL     1      -0.040  -4.839  -1.187  0.00  0.00    +0.310 C 
ATOM     23  O   UNL     1      -0.054  -4.229  -2.238  0.00  0.00    -0.252 OA
ATOM     24  N   UNL     1      -0.124  -6.184  -1.187  0.00  0.00    -0.239 N 
ATOM     25  C   UNL     1      -0.223  -6.853  -2.353  0.00  0.00    +0.234 C 
ATOM     26  O   UNL     1      -0.237  -6.244  -3.401  0.00  0.00    -0.274 OA
ATOM     27  H   UNL     1       0.135  -4.658   0.814  0.00  0.00    +0.156 HD
ATOM     28  H   UNL     1      -0.113  -6.671  -0.348  0.00  0.00    +0.159 HD
BRANCH  21  33
ATOM     29  C   UNL     1       0.025   1.503   0.005  0.00  0.00    +0.044 C 
ATOM     30  C   UNL     1       0.034  -0.004  -0.002  0.00  0.00    -0.050 A 
ATOM     31  C   UNL     1       0.632  -0.685  -1.046  0.00  0.00    +0.005 A 
ATOM     32  C   UNL     1       0.641  -2.066  -1.055  0.00  0.00    +0.024 A 
ATOM     33  C   UNL     1       0.051  -2.771  -0.014  0.00  0.00    +0.038 A 
ATOM     34  C   UNL     1      -0.548  -2.083   1.033  0.00  0.00    -0.029 A 
ATOM     35  C   UNL     1      -0.551  -0.702   1.039  0.00  0.00    +0.008 A 
ATOM     36  C   UNL     1      -1.191  -2.843   2.165  0.00  0.00    +0.045 C 
ENDBRANCH  21  33
ENDBRANCH  20  25
ENDBRANCH   1  20
TORSDOF 5
