REMARK  Name = ZINC06131406
REMARK  9 active torsions:
REMARK  status: ('A' for Active; 'I' for Inactive)
REMARK    1  A    between atoms: C_1  and  O_2
REMARK    2  A    between atoms: O_2  and  C_3
REMARK    3  A    between atoms: C_5  and  C_11
REMARK    4  A    between atoms: C_8  and  O_9
REMARK    5  A    between atoms: N_12  and  N_13
REMARK    6  A    between atoms: C_14  and  C_16
REMARK    7  A    between atoms: C_21  and  N_22
REMARK    8  A    between atoms: N_22  and  S_23
REMARK    9  A    between atoms: S_23  and  C_26
REMARK                            x       y       z     vdW  Elec       q    Type
REMARK                         _______ _______ _______ _____ _____    ______ ____
ROOT
ATOM      1  N   UNL     1      -1.655   3.436   0.319  0.00  0.00    -0.203 N 
ATOM      2  C   UNL     1      -1.532   2.098   0.215  0.00  0.00    +0.265 C 
ATOM      3  O   UNL     1      -2.521   1.405   0.067  0.00  0.00    -0.268 OA
ATOM      4  H   UNL     1      -0.867   3.988   0.437  0.00  0.00    +0.178 HD
ENDROOT
BRANCH   2   5
ATOM      5  C   UNL     1      -0.198   1.473   0.281  0.00  0.00    +0.061 A 
ATOM      6  C   UNL     1       0.942   2.265   0.446  0.00  0.00    +0.015 A 
ATOM      7  C   UNL     1       2.185   1.676   0.501  0.00  0.00    +0.001 A 
ATOM      8  C   UNL     1       2.314   0.300   0.394  0.00  0.00    +0.002 A 
ATOM      9  C   UNL     1       1.199  -0.495   0.232  0.00  0.00    +0.025 A 
ATOM     10  C   UNL     1      -0.065   0.080   0.173  0.00  0.00    +0.060 A 
BRANCH  10  11
ATOM     11  N   UNL     1      -1.189  -0.719   0.010  0.00  0.00    -0.215 N 
ATOM     12  H   UNL     1      -1.937  -0.401  -0.520  0.00  0.00    +0.174 HD
BRANCH  11  13
ATOM     13  S   UNL     1      -1.253  -2.213   0.720  0.00  0.00    +0.079 S 
ATOM     14  O   UNL     1      -2.561  -2.717   0.487  0.00  0.00    -0.149 OA
ATOM     15  O   UNL     1      -0.084  -2.909   0.309  0.00  0.00    -0.149 OA
BRANCH  13  16
ATOM     16  C   UNL     1      -1.110  -1.970   2.459  0.00  0.00    +0.146 A 
ATOM     17  C   UNL     1      -2.087  -1.772   3.377  0.00  0.00    +0.036 A 
ATOM     18  C   UNL     1      -1.737  -1.603   4.704  0.00  0.00    +0.010 A 
ATOM     19  C   UNL     1      -0.427  -1.641   5.048  0.00  0.00    +0.047 A 
ATOM     20  S   UNL     1       0.360  -1.929   3.471  0.00  0.00    -0.077 S 
ENDBRANCH  13  16
ENDBRANCH  11  13
ENDBRANCH  10  11
ENDBRANCH   2   5
BRANCH   1  22
ATOM     21  C   UNL     1      -3.042   5.318   0.356  0.00  0.00    +0.138 C 
ATOM     22  N   UNL     1      -2.923   4.029   0.256  0.00  0.00    -0.187 NA
BRANCH  21  25
ATOM     23  C   UNL     1      -5.759   7.910   0.333  0.00  0.00    +0.163 A 
ATOM     24  C   UNL     1      -4.506   7.329   0.403  0.00  0.00    +0.059 A 
ATOM     25  C   UNL     1      -4.376   5.942   0.290  0.00  0.00    -0.001 A 
ATOM     26  C   UNL     1      -5.513   5.149   0.119  0.00  0.00    +0.028 A 
ATOM     27  C   UNL     1      -6.760   5.735   0.057  0.00  0.00    +0.063 A 
ATOM     28  C   UNL     1      -6.888   7.113   0.164  0.00  0.00    +0.173 A 
ATOM     29 BR   UNL     1      -8.298   4.660  -0.173  0.00  0.00    -0.046 Br
BRANCH  23  31
ATOM     30  C   UNL     1      -4.688  10.016   0.610  0.00  0.00    +0.277 C 
ATOM     31  O   UNL     1      -5.888   9.260   0.437  0.00  0.00    -0.491 OA
ENDBRANCH  23  31
BRANCH  28  32
ATOM     32  O   UNL     1      -8.119   7.687   0.102  0.00  0.00    -0.503 OA
ATOM     33  H   UNL     1      -8.555   7.777   0.961  0.00  0.00    +0.292 HD
ENDBRANCH  28  32
ENDBRANCH  21  25
ENDBRANCH   1  22
TORSDOF 8
