REMARK  Name = ZINC14240891
REMARK  9 active torsions:
REMARK  status: ('A' for Active; 'I' for Inactive)
REMARK    1  A    between atoms: C_1  and  C_2
REMARK    2  A    between atoms: C_2  and  C_3
REMARK    3  A    between atoms: C_3  and  C_4
REMARK    4  A    between atoms: C_3  and  C_5
REMARK    5  A    between atoms: C_3  and  C_6
REMARK    6  A    between atoms: C_13  and  N_17
REMARK    7  A    between atoms: C_14  and  C_15
REMARK    8  A    between atoms: C_18  and  C_20
REMARK    9  A    between atoms: C_20  and  N_21
REMARK                            x       y       z     vdW  Elec       q    Type
REMARK                         _______ _______ _______ _____ _____    ______ ____
ROOT
ATOM      1  N   UNL     1      -1.580  -7.934  -2.045  0.00  0.00    -0.278 N 
ATOM      2  C   UNL     1      -2.837  -8.226  -1.657  0.00  0.00    +0.236 C 
ATOM      3  O   UNL     1      -3.558  -7.352  -1.225  0.00  0.00    -0.274 OA
ATOM      4  H   UNL     1      -1.004  -8.633  -2.391  0.00  0.00    +0.155 HD
ENDROOT
BRANCH   1  11
ATOM      5  C   UNL     1       0.739  -2.027  -1.265  0.00  0.00    -0.000 C 
ATOM      6  C   UNL     1       1.455  -2.524  -2.524  0.00  0.00    +0.009 C 
ATOM      7  C   UNL     1       1.700  -4.031  -2.424  0.00  0.00    +0.037 C 
ATOM      8  C   UNL     1       0.382  -4.721  -2.095  0.00  0.00    -0.018 A 
ATOM      9  C   UNL     1      -0.659  -4.026  -1.584  0.00  0.00    -0.004 A 
ATOM     10  S   UNL     1      -1.942  -5.226  -1.371  0.00  0.00    -0.077 S 
ATOM     11  C   UNL     1      -1.110  -6.631  -1.950  0.00  0.00    +0.090 A 
ATOM     12  C   UNL     1       0.140  -6.139  -2.295  0.00  0.00    +0.084 A 
ATOM     13  C   UNL     1      -0.701  -2.562  -1.272  0.00  0.00    +0.047 C 
BRANCH   5  14
ATOM     14  C   UNL     1       0.718  -0.497  -1.257  0.00  0.00    -0.032 C 
ATOM     15  C   UNL     1      -0.022   0.009  -2.496  0.00  0.00    +0.011 C 
ATOM     16  C   UNL     1       2.154   0.032  -1.268  0.00  0.00    +0.011 C 
BRANCH  14  18
ATOM     17  C   UNL     1      -0.019   1.526   0.010  0.00  0.00    +0.004 C 
ATOM     18  C   UNL     1       0.002  -0.004   0.002  0.00  0.00    +0.003 C 
ENDBRANCH  14  18
ENDBRANCH   5  14
BRANCH  12  19
ATOM     19  C   UNL     1       1.154  -6.997  -2.828  0.00  0.00    +0.102 C 
ATOM     20  N   UNL     1       1.959  -7.678  -3.252  0.00  0.00    -0.191 NA
ENDBRANCH  12  19
ENDBRANCH   1  11
BRANCH   2  21
ATOM     21  C   UNL     1      -3.348  -9.641  -1.760  0.00  0.00    +0.214 C 
BRANCH  21  22
ATOM     22  N   UNL     1      -4.730  -9.697  -1.280  0.00  0.00    -0.215 N 
ATOM     23  C   UNL     1      -5.815  -9.518  -2.065  0.00  0.00    +0.251 C 
ATOM     24  O   UNL     1      -5.832  -9.290  -3.255  0.00  0.00    -0.272 OA
ATOM     25  C   UNL     1      -6.999  -9.665  -1.144  0.00  0.00    +0.138 C 
ATOM     26  C   UNL     1      -7.913 -10.811  -1.594  0.00  0.00    +0.045 C 
ATOM     27  C   UNL     1      -8.988 -10.066  -2.418  0.00  0.00    +0.038 C 
ATOM     28  C   UNL     1      -9.004  -8.655  -1.868  0.00  0.00    -0.042 A 
ATOM     29  C   UNL     1      -7.851  -8.425  -1.136  0.00  0.00    -0.012 A 
ATOM     30  C   UNL     1      -7.651  -7.189  -0.542  0.00  0.00    +0.006 A 
ATOM     31  C   UNL     1      -8.595  -6.190  -0.677  0.00  0.00    +0.000 A 
ATOM     32  C   UNL     1      -9.745  -6.421  -1.407  0.00  0.00    +0.000 A 
ATOM     33  C   UNL     1      -9.948  -7.652  -2.000  0.00  0.00    +0.004 A 
ATOM     34  N   UNL     1      -6.413  -9.932   0.170  0.00  0.00    -0.281 N 
ATOM     35  C   UNL     1      -5.077  -9.938  -0.009  0.00  0.00    +0.310 C 
ATOM     36  O   UNL     1      -4.277 -10.136   0.884  0.00  0.00    -0.252 OA
ATOM     37  H   UNL     1      -6.891 -10.080   1.001  0.00  0.00    +0.152 HD
ENDBRANCH  21  22
ENDBRANCH   2  21
TORSDOF 6
