REMARK  Name = ZINC35242796
REMARK  10 active torsions:
REMARK  status: ('A' for Active; 'I' for Inactive)
REMARK    1  A    between atoms: C_1  and  C_2
REMARK    2  A    between atoms: C_7  and  N_12
REMARK    3  A    between atoms: C_9  and  C_11
REMARK    4  A    between atoms: C_13  and  C_15
REMARK    5  A    between atoms: C_23  and  C_33
REMARK    6  A    between atoms: N_29  and  C_30
REMARK    7  A    between atoms: N_35  and  C_36
REMARK    8  A    between atoms: C_39  and  C_42
REMARK    9  A    between atoms: C_42  and  C_43
REMARK   10  A    between atoms: C_42  and  C_44
REMARK                            x       y       z     vdW  Elec       q    Type
REMARK                         _______ _______ _______ _____ _____    ______ ____
ROOT
ATOM      1  C   UNL     1       2.878  -3.839   3.189  0.00  0.00    +0.199 C 
ATOM      2  C   UNL     1       4.293  -3.405   3.413  0.00  0.00    +0.127 C 
ATOM      3  C   UNL     1       5.132  -3.454   2.149  0.00  0.00    +0.009 C 
ATOM      4  C   UNL     1       6.339  -3.038   2.502  0.00  0.00    +0.004 C 
ATOM      5  C   UNL     1       6.249  -2.792   4.013  0.00  0.00    +0.155 C 
ATOM      6  O   UNL     1       4.838  -2.336   4.150  0.00  0.00    -0.358 OA
ATOM      7  C   UNL     1       6.199  -4.262   4.586  0.00  0.00    +0.123 C 
ATOM      8  C   UNL     1       4.727  -4.601   4.353  0.00  0.00    +0.128 C 
ATOM      9  C   UNL     1       4.193  -5.742   3.588  0.00  0.00    +0.224 C 
ATOM     10  O   UNL     1       4.681  -6.850   3.509  0.00  0.00    -0.275 OA
ATOM     11  N   UNL     1       3.035  -5.313   2.983  0.00  0.00    -0.283 N 
ENDROOT
BRANCH   1  13
ATOM     12  N   UNL     1       1.792  -1.937   2.041  0.00  0.00    -0.311 N 
ATOM     13  C   UNL     1       2.301  -3.183   1.962  0.00  0.00    +0.237 C 
ATOM     14  O   UNL     1       2.294  -3.775   0.904  0.00  0.00    -0.274 OA
ATOM     15  H   UNL     1       1.797  -1.464   2.887  0.00  0.00    +0.149 HD
BRANCH  12  21
ATOM     16  C   UNL     1       0.786   2.409  -0.091  0.00  0.00    +0.008 C 
ATOM     17  C   UNL     1       0.715   0.889  -0.245  0.00  0.00    -0.009 C 
ATOM     18  C   UNL     1      -0.744   0.461  -0.413  0.00  0.00    +0.003 C 
ATOM     19  C   UNL     1      -0.815  -1.060  -0.568  0.00  0.00    +0.002 C 
ATOM     20  C   UNL     1      -0.229  -1.726   0.679  0.00  0.00    +0.022 C 
ATOM     21  C   UNL     1       1.230  -1.299   0.847  0.00  0.00    +0.076 C 
ATOM     22  C   UNL     1       1.301   0.222   1.001  0.00  0.00    +0.009 C 
ATOM     23  C   UNL     1       0.499   0.648   2.233  0.00  0.00    +0.009 C 
ENDBRANCH  12  21
ENDBRANCH   1  13
BRANCH   7  24
ATOM     24  C   UNL     1       7.113  -5.176   3.812  0.00  0.00    +0.224 C 
ATOM     25  O   UNL     1       6.656  -6.129   3.217  0.00  0.00    -0.275 OA
ATOM     26  N   UNL     1       8.439  -4.934   3.780  0.00  0.00    -0.285 N 
ATOM     27  H   UNL     1       8.795  -4.130   4.191  0.00  0.00    +0.155 HD
BRANCH  26  28
ATOM     28  C   UNL     1       9.301  -5.841   3.155  0.00  0.00    +0.033 A 
ATOM     29  C   UNL     1      10.443  -5.385   2.511  0.00  0.00    +0.023 A 
ATOM     30  C   UNL     1      11.292  -6.284   1.894  0.00  0.00    +0.006 A 
ATOM     31  C   UNL     1      11.005  -7.636   1.919  0.00  0.00    -0.045 A 
ATOM     32  C   UNL     1       9.868  -8.094   2.559  0.00  0.00    +0.006 A 
ATOM     33  C   UNL     1       9.019  -7.201   3.182  0.00  0.00    +0.023 A 
BRANCH  31  34
ATOM     34  C   UNL     1      11.934  -8.614   1.245  0.00  0.00    +0.013 C 
ATOM     35  C   UNL     1      12.466  -9.607   2.280  0.00  0.00    +0.012 C 
ATOM     36  C   UNL     1      11.173  -9.371   0.155  0.00  0.00    +0.012 C 
ENDBRANCH  31  34
ENDBRANCH  26  28
ENDBRANCH   7  24
BRANCH  11  37
ATOM     37  C   UNL     1       2.099  -6.168   2.249  0.00  0.00    +0.077 C 
ATOM     38  C   UNL     1       2.322  -7.680   2.315  0.00  0.00    +0.024 C 
ATOM     39  C   UNL     1       2.635  -6.916   1.027  0.00  0.00    +0.024 C 
ENDBRANCH  11  37
TORSDOF 6
