REMARK  Name = ZINC34900368
REMARK  7 active torsions:
REMARK  status: ('A' for Active; 'I' for Inactive)
REMARK    1  A    between atoms: C_4  and  C_7
REMARK    2  A    between atoms: C_7  and  S_8
REMARK    3  A    between atoms: S_8  and  N_11
REMARK    4  A    between atoms: C_15  and  C_17
REMARK    5  A    between atoms: N_19  and  C_20
REMARK    6  A    between atoms: C_26  and  N_28
REMARK    7  A    between atoms: C_29  and  C_31
REMARK                            x       y       z     vdW  Elec       q    Type
REMARK                         _______ _______ _______ _____ _____    ______ ____
ROOT
ATOM      1  C   UNL     1       7.303  -0.419   2.699  0.00  0.00    +0.232 C 
ATOM      2  O   UNL     1       6.477  -0.390   3.587  0.00  0.00    -0.274 OA
ATOM      3  N   UNL     1       8.471   0.238   2.844  0.00  0.00    -0.309 N 
ATOM      4  H   UNL     1       9.132   0.215   2.134  0.00  0.00    +0.149 HD
ENDROOT
BRANCH   3   5
ATOM      5  C   UNL     1       8.742   0.988   4.073  0.00  0.00    +0.093 C 
ATOM      6  C   UNL     1       9.313   0.042   5.131  0.00  0.00    +0.024 C 
ATOM      7  C   UNL     1       9.596   0.825   6.415  0.00  0.00    +0.002 C 
ATOM      8  C   UNL     1      10.609   1.934   6.123  0.00  0.00    +0.002 C 
ATOM      9  C   UNL     1      10.039   2.880   5.064  0.00  0.00    +0.024 C 
ATOM     10  C   UNL     1       9.755   2.097   3.781  0.00  0.00    +0.093 C 
BRANCH  10  11
ATOM     11  N   UNL     1      11.000   1.503   3.286  0.00  0.00    -0.307 N 
ATOM     12  C   UNL     1      11.829   2.227   2.508  0.00  0.00    +0.244 C 
ATOM     13  O   UNL     1      11.544   3.372   2.217  0.00  0.00    -0.270 OA
ATOM     14  H   UNL     1      11.227   0.589   3.518  0.00  0.00    +0.149 HD
BRANCH  12  15
ATOM     15  C   UNL     1      13.084   1.628   2.009  0.00  0.00    +0.037 A 
ATOM     16  C   UNL     1      13.411   0.311   2.337  0.00  0.00    +0.016 A 
ATOM     17  C   UNL     1      14.583  -0.243   1.868  0.00  0.00    +0.039 A 
ATOM     18  C   UNL     1      15.437   0.506   1.073  0.00  0.00    +0.123 A 
ATOM     19  C   UNL     1      15.117   1.815   0.744  0.00  0.00    +0.039 A 
ATOM     20  C   UNL     1      13.945   2.376   1.202  0.00  0.00    +0.016 A 
ATOM     21  F   UNL     1      16.585  -0.041   0.617  0.00  0.00    -0.205 F 
ENDBRANCH  12  15
ENDBRANCH  10  11
ENDBRANCH   3   5
BRANCH   1  26
ATOM     22  N   UNL     1       5.696  -1.816   1.514  0.00  0.00    -0.169 NA
ATOM     23  C   UNL     1       5.857  -3.279   1.430  0.00  0.00    +0.110 C 
ATOM     24  C   UNL     1       7.207  -3.488   0.699  0.00  0.00    +0.019 C 
ATOM     25  C   UNL     1       8.057  -2.325   1.277  0.00  0.00    +0.031 C 
ATOM     26  C   UNL     1       7.024  -1.190   1.435  0.00  0.00    +0.165 C 
BRANCH  22  27
ATOM     27  S   UNL     1       4.257  -1.011   1.666  0.00  0.00    +0.037 S 
ATOM     28  O   UNL     1       4.593   0.216   2.298  0.00  0.00    -0.158 OA
ATOM     29  O   UNL     1       3.387  -1.939   2.300  0.00  0.00    -0.158 OA
BRANCH  27  30
ATOM     30  C   UNL     1       3.711  -0.707  -0.038  0.00  0.00    +0.220 C 
BRANCH  30  34
ATOM     31  C   UNL     1      -0.017   1.378   0.010  0.00  0.00    +0.000 A 
ATOM     32  C   UNL     1       1.171   2.086   0.002  0.00  0.00    +0.000 A 
ATOM     33  C   UNL     1       2.377   1.411  -0.013  0.00  0.00    +0.005 A 
ATOM     34  C   UNL     1       2.396   0.029  -0.020  0.00  0.00    -0.025 A 
ATOM     35  C   UNL     1       1.208  -0.679  -0.012  0.00  0.00    +0.005 A 
ATOM     36  C   UNL     1       0.002  -0.004   0.002  0.00  0.00    +0.000 A 
ENDBRANCH  30  34
ENDBRANCH  27  30
ENDBRANCH  22  27
ENDBRANCH   1  26
TORSDOF 7
