REMARK  Name = ZINC25369725
REMARK  8 active torsions:
REMARK  status: ('A' for Active; 'I' for Inactive)
REMARK    1  A    between atoms: C_1  and  O_2
REMARK    2  A    between atoms: O_2  and  C_3
REMARK    3  A    between atoms: C_6  and  S_21
REMARK    4  A    between atoms: C_8  and  N_9
REMARK    5  A    between atoms: N_9  and  S_10
REMARK    6  A    between atoms: S_10  and  C_13
REMARK    7  A    between atoms: S_21  and  N_24
REMARK    8  A    between atoms: N_24  and  C_25
REMARK                            x       y       z     vdW  Elec       q    Type
REMARK                         _______ _______ _______ _____ _____    ______ ____
ROOT
ATOM      1  C   UNL     1      -3.958   2.712   2.443  0.00  0.00    +0.145 A 
ATOM      2  C   UNL     1      -4.289   4.017   2.766  0.00  0.00    +0.049 A 
ATOM      3  C   UNL     1      -4.861   4.842   1.815  0.00  0.00    +0.032 A 
ATOM      4  C   UNL     1      -5.104   4.367   0.540  0.00  0.00    +0.107 A 
ATOM      5  C   UNL     1      -4.773   3.067   0.207  0.00  0.00    +0.059 A 
ATOM      6  C   UNL     1      -4.204   2.232   1.158  0.00  0.00    +0.118 A 
ENDROOT
BRANCH   4   7
ATOM      7  S   UNL     1      -5.833   5.424  -0.667  0.00  0.00    +0.059 S 
ATOM      8  O   UNL     1      -6.345   4.580  -1.690  0.00  0.00    -0.153 OA
ATOM      9  O   UNL     1      -6.650   6.346   0.041  0.00  0.00    -0.153 OA
BRANCH   7  10
ATOM     10  N   UNL     1      -4.608   6.304  -1.350  0.00  0.00    -0.187 NA
ATOM     11  H   UNL     1      -4.487   7.362  -1.073  0.00  0.00    +0.148 HD
BRANCH  10  12
ATOM     12  C   UNL     1      -3.572   5.631  -2.138  0.00  0.00    +0.077 C 
ATOM     13  C   UNL     1      -2.155   6.204  -2.078  0.00  0.00    +0.022 C 
ATOM     14  C   UNL     1      -2.999   6.382  -3.341  0.00  0.00    +0.022 C 
ENDBRANCH  10  12
ENDBRANCH   7  10
ENDBRANCH   4   7
BRANCH   1  16
ATOM     15  C   UNL     1      -3.172   2.459   4.673  0.00  0.00    +0.277 C 
ATOM     16  O   UNL     1      -3.394   1.899   3.377  0.00  0.00    -0.493 OA
ENDBRANCH   1  16
BRANCH   6  17
ATOM     17  N   UNL     1      -3.871   0.914   0.826  0.00  0.00    -0.094 NA
BRANCH  17  18
ATOM     18  S   UNL     1      -3.450   0.533  -0.730  0.00  0.00    +0.093 S 
ATOM     19  O   UNL     1      -3.128  -0.851  -0.736  0.00  0.00    -0.148 OA
ATOM     20  O   UNL     1      -2.532   1.530  -1.158  0.00  0.00    -0.148 OA
BRANCH  18  21
ATOM     21  C   UNL     1      -4.894   0.719  -1.721  0.00  0.00    +0.129 A 
ATOM     22  C   UNL     1      -4.923   1.664  -2.731  0.00  0.00    +0.031 A 
ATOM     23  C   UNL     1      -6.054   1.806  -3.513  0.00  0.00    +0.017 A 
ATOM     24  C   UNL     1      -7.160   1.007  -3.282  0.00  0.00    +0.019 A 
ATOM     25  C   UNL     1      -7.134   0.066  -2.269  0.00  0.00    +0.037 A 
ATOM     26  C   UNL     1      -6.002  -0.076  -1.486  0.00  0.00    +0.069 A 
ATOM     27 CL   UNL     1      -5.969  -1.257  -0.214  0.00  0.00    -0.081 Cl
ATOM     28 BR   UNL     1      -8.707   1.203  -4.352  0.00  0.00    -0.050 Br
ENDBRANCH  18  21
ENDBRANCH  17  18
ENDBRANCH   6  17
TORSDOF 7
