REMARK  Name = ZINC39440542
REMARK  8 active torsions:
REMARK  status: ('A' for Active; 'I' for Inactive)
REMARK    1  A    between atoms: C_1  and  C_2
REMARK    2  A    between atoms: N_4  and  C_5
REMARK    3  A    between atoms: C_5  and  C_7
REMARK    4  A    between atoms: C_5  and  C_17
REMARK    5  A    between atoms: C_7  and  C_8
REMARK    6  A    between atoms: N_19  and  C_20
REMARK    7  A    between atoms: C_27  and  S_30
REMARK    8  A    between atoms: S_30  and  C_31
REMARK                            x       y       z     vdW  Elec       q    Type
REMARK                         _______ _______ _______ _____ _____    ______ ____
ROOT
ATOM      1  C   UNL     1      -1.142  -2.156   0.006  0.00  0.00    +0.163 C 
ENDROOT
BRANCH   1   5
ATOM      2  C   UNL     1      -0.018   1.503   0.012  0.00  0.00    +0.109 C 
ATOM      3  C   UNL     1       0.000  -0.004   0.002  0.00  0.00    +0.211 C 
ATOM      4  O   UNL     1       1.057  -0.598  -0.017  0.00  0.00    -0.276 OA
ATOM      5  N   UNL     1      -1.159  -0.691   0.015  0.00  0.00    -0.304 N 
ATOM      6  H   UNL     1      -2.005  -0.216   0.031  0.00  0.00    +0.149 HD
ENDBRANCH   1   5
BRANCH   1   7
ATOM      7  C   UNL     1      -0.407  -2.658   1.222  0.00  0.00    +0.238 C 
ATOM      8  O   UNL     1       0.355  -1.924   1.816  0.00  0.00    -0.273 OA
ATOM      9  N   UNL     1      -0.597  -3.922   1.651  0.00  0.00    -0.284 N 
ATOM     10  H   UNL     1      -1.256  -4.487   1.218  0.00  0.00    +0.155 HD
BRANCH   9  11
ATOM     11  C   UNL     1       0.158  -4.419   2.721  0.00  0.00    +0.035 A 
ATOM     12  C   UNL     1       0.519  -3.591   3.776  0.00  0.00    +0.025 A 
ATOM     13  C   UNL     1       1.259  -4.071   4.831  0.00  0.00    +0.026 A 
ATOM     14  C   UNL     1       1.676  -5.413   4.881  0.00  0.00    +0.042 A 
ATOM     15  C   UNL     1       1.298  -6.223   3.806  0.00  0.00    +0.033 A 
ATOM     16  C   UNL     1       0.553  -5.752   2.749  0.00  0.00    +0.040 A 
ATOM     17  S   UNL     1       1.972  -7.827   4.174  0.00  0.00    -0.090 S 
ATOM     18  C   UNL     1       2.767  -7.415   5.778  0.00  0.00    +0.192 C 
ATOM     19  N   UNL     1       2.427  -5.991   5.906  0.00  0.00    -0.323 N 
ATOM     20  H   UNL     1       2.715  -5.473   6.674  0.00  0.00    +0.148 HD
BRANCH  18  21
ATOM     21  S   UNL     1       4.564  -7.654   5.697  0.00  0.00    -0.131 S 
ATOM     22  C   UNL     1       5.092  -6.557   4.353  0.00  0.00    +0.087 C 
ENDBRANCH  18  21
ENDBRANCH   9  11
ENDBRANCH   1   7
BRANCH   1  23
ATOM     23  C   UNL     1      -0.433  -2.650  -1.257  0.00  0.00    +0.069 C 
BRANCH  23  24
ATOM     24  C   UNL     1      -1.234  -2.253  -2.470  0.00  0.00    -0.020 A 
ATOM     25  C   UNL     1      -1.174  -0.969  -3.173  0.00  0.00    +0.003 A 
ATOM     26  C   UNL     1      -0.439   0.204  -2.989  0.00  0.00    +0.010 A 
ATOM     27  C   UNL     1      -0.616   1.257  -3.842  0.00  0.00    +0.001 A 
ATOM     28  C   UNL     1      -1.523   1.170  -4.890  0.00  0.00    +0.002 A 
ATOM     29  C   UNL     1      -2.259   0.022  -5.089  0.00  0.00    +0.026 A 
ATOM     30  C   UNL     1      -2.093  -1.062  -4.233  0.00  0.00    +0.047 A 
ATOM     31  N   UNL     1      -2.663  -2.314  -4.168  0.00  0.00    -0.360 N 
ATOM     32  C   UNL     1      -2.135  -3.011  -3.116  0.00  0.00    +0.087 A 
ATOM     33  H   UNL     1      -3.335  -2.653  -4.780  0.00  0.00    +0.165 HD
ENDBRANCH  23  24
ENDBRANCH   1  23
TORSDOF 6
