REMARK  Name = ZINC40316850
REMARK  3 active torsions:
REMARK  status: ('A' for Active; 'I' for Inactive)
REMARK    1  A    between atoms: C_6  and  N_11
REMARK    2  A    between atoms: N_11  and  S_12
REMARK    3  A    between atoms: S_12  and  C_15
REMARK                            x       y       z     vdW  Elec       q    Type
REMARK                         _______ _______ _______ _____ _____    ______ ____
ROOT
ATOM      1  N   UNL     1       4.783  -2.698  -0.053  0.00  0.00    -0.216 N 
ATOM      2  H   UNL     1       5.429  -2.397  -0.711  0.00  0.00    +0.174 HD
ENDROOT
BRANCH   1   8
ATOM      3  C   UNL     1      -0.486   0.860   0.010  0.00  0.00    +0.001 A 
ATOM      4  C   UNL     1       0.625   1.696  -0.092  0.00  0.00    +0.001 A 
ATOM      5  C   UNL     1       1.885   1.185  -0.127  0.00  0.00    +0.008 A 
ATOM      6  C   UNL     1       2.074  -0.206  -0.059  0.00  0.00    -0.016 A 
ATOM      7  C   UNL     1       3.361  -0.768  -0.091  0.00  0.00    +0.033 A 
ATOM      8  C   UNL     1       3.506  -2.136  -0.021  0.00  0.00    +0.049 A 
ATOM      9  C   UNL     1       2.384  -2.969   0.081  0.00  0.00    +0.025 A 
ATOM     10  C   UNL     1       1.129  -2.449   0.114  0.00  0.00    +0.010 A 
ATOM     11  C   UNL     1       0.945  -1.057   0.045  0.00  0.00    -0.018 A 
ATOM     12  C   UNL     1      -0.341  -0.492   0.078  0.00  0.00    +0.008 A 
ENDBRANCH   1   8
BRANCH   1  13
ATOM     13  S   UNL     1       5.196  -3.879   1.032  0.00  0.00    +0.077 S 
ATOM     14  O   UNL     1       4.189  -4.879   0.947  0.00  0.00    -0.150 OA
ATOM     15  O   UNL     1       6.572  -4.163   0.820  0.00  0.00    -0.150 OA
BRANCH  13  16
ATOM     16  C   UNL     1       5.070  -3.174   2.642  0.00  0.00    +0.167 A 
ATOM     17  C   UNL     1       4.204  -3.550   3.611  0.00  0.00    +0.135 A 
ATOM     18  N   UNL     1       4.425  -2.769   4.689  0.00  0.00    -0.281 N 
ATOM     19  H   UNL     1       3.948  -2.815   5.533  0.00  0.00    +0.188 HD
ATOM     20  N   UNL     1       5.461  -1.880   4.377  0.00  0.00    -0.157 NA
ATOM     21  C   UNL     1       5.854  -2.125   3.149  0.00  0.00    +0.165 A 
ATOM     22  N   UNL     1       6.875  -1.456   2.464  0.00  0.00    -0.340 N 
ATOM     23  H   UNL     1       7.143  -1.755   1.581  0.00  0.00    +0.144 HD
ATOM     24  H   UNL     1       7.315  -0.694   2.872  0.00  0.00    +0.144 HD
ENDBRANCH  13  16
ENDBRANCH   1  13
TORSDOF 3
