REMARK  Name = ZINC48289567
REMARK  6 active torsions:
REMARK  status: ('A' for Active; 'I' for Inactive)
REMARK    1  A    between atoms: C_3  and  C_7
REMARK    2  A    between atoms: N_9  and  C_16
REMARK    3  A    between atoms: N_12  and  C_13
REMARK    4  A    between atoms: C_16  and  N_17
REMARK    5  A    between atoms: N_17  and  C_18
REMARK    6  A    between atoms: C_18  and  C_24
REMARK                            x       y       z     vdW  Elec       q    Type
REMARK                         _______ _______ _______ _____ _____    ______ ____
ROOT
ATOM      1  C   UNL     1       6.615   5.205  -0.022  0.00  0.00    +0.069 C 
ENDROOT
BRANCH   1   4
ATOM      2  C   UNL     1       5.667   1.726  -0.033  0.00  0.00    +0.164 A 
ATOM      3  N   UNL     1       5.386   2.977  -0.273  0.00  0.00    -0.152 NA
ATOM      4  N   UNL     1       6.500   3.748   0.084  0.00  0.00    -0.258 N 
ATOM      5  C   UNL     1       7.447   2.905   0.543  0.00  0.00    +0.177 A 
ATOM      6  S   UNL     1       9.003   3.343   1.108  0.00  0.00    -0.011 S 
ATOM      7  N   UNL     1       6.946   1.655   0.482  0.00  0.00    -0.300 N 
BRANCH   2  10
ATOM      8  C   UNL     1       2.765  -0.363  -1.176  0.00  0.00    +0.020 A 
ATOM      9  C   UNL     1       3.574   0.743  -0.984  0.00  0.00    +0.014 A 
ATOM     10  C   UNL     1       4.764   0.578  -0.268  0.00  0.00    +0.037 A 
ATOM     11  C   UNL     1       5.086  -0.689   0.221  0.00  0.00    +0.122 A 
ATOM     12  N   UNL     1       4.284  -1.712   0.012  0.00  0.00    -0.263 NA
ATOM     13  C   UNL     1       3.155  -1.585  -0.660  0.00  0.00    +0.111 A 
ENDBRANCH   2  10
BRANCH   7  14
ATOM     14  C   UNL     1       7.640   0.431   0.890  0.00  0.00    +0.091 C 
ATOM     15  C   UNL     1       9.090   0.256   0.434  0.00  0.00    +0.027 C 
ATOM     16  C   UNL     1       7.981  -0.585  -0.202  0.00  0.00    +0.027 C 
ENDBRANCH   7  14
ENDBRANCH   1   4
BRANCH   1  17
ATOM     17  N   UNL     1       5.835   5.837   1.050  0.00  0.00    +0.398 N 
ATOM     18  H   UNL     1       4.860   5.603   0.939  0.00  0.00    -0.082 HD
ATOM     19  H   UNL     1       6.161   5.503   1.944  0.00  0.00    -0.082 HD
BRANCH  17  20
ATOM     20  C   UNL     1       6.000   7.295   0.981  0.00  0.00    -0.036 C 
ATOM     21  C   UNL     1       5.255   7.951   2.147  0.00  0.00    +0.020 C 
ATOM     22  C   UNL     1       5.878   7.486   3.466  0.00  0.00    +0.159 C 
ATOM     23  O   UNL     1       7.268   7.817   3.478  0.00  0.00    -0.380 OA
ATOM     24  C   UNL     1       8.024   7.194   2.438  0.00  0.00    +0.159 C 
ATOM     25  C   UNL     1       7.488   7.647   1.077  0.00  0.00    +0.020 C 
BRANCH  20  26
ATOM     26  C   UNL     1       5.445   7.804  -0.324  0.00  0.00    -0.058 A 
ATOM     27  C   UNL     1       4.540   7.039  -1.036  0.00  0.00    +0.003 A 
ATOM     28  C   UNL     1       4.030   7.505  -2.232  0.00  0.00    +0.015 A 
ATOM     29  C   UNL     1       4.425   8.738  -2.719  0.00  0.00    +0.018 A 
ATOM     30  C   UNL     1       5.331   9.504  -2.007  0.00  0.00    +0.015 A 
ATOM     31  C   UNL     1       5.837   9.039  -0.807  0.00  0.00    +0.003 A 
ATOM     32 BR   UNL     1       3.728   9.377  -4.356  0.00  0.00    -0.050 Br
ENDBRANCH  20  26
ENDBRANCH  17  20
ENDBRANCH   1  17
TORSDOF 6
