REMARK  Name = ZINC13564737
REMARK  9 active torsions:
REMARK  status: ('A' for Active; 'I' for Inactive)
REMARK    1  A    between atoms: C_1  and  O_2
REMARK    2  A    between atoms: O_2  and  C_3
REMARK    3  A    between atoms: C_6  and  C_11
REMARK    4  A    between atoms: C_8  and  O_9
REMARK    5  A    between atoms: O_9  and  C_10
REMARK    6  A    between atoms: C_14  and  C_28
REMARK    7  A    between atoms: N_20  and  C_22
REMARK    8  A    between atoms: C_28  and  N_29
REMARK    9  A    between atoms: N_29  and  C_30
REMARK                            x       y       z     vdW  Elec       q    Type
REMARK                         _______ _______ _______ _____ _____    ______ ____
ROOT
ATOM      1  C   UNL     1       2.496  -2.491  -4.371  0.00  0.00    +0.102 A 
ATOM      2  C   UNL     1       2.506  -2.008  -5.755  0.00  0.00    +0.045 A 
ATOM      3  C   UNL     1       1.954  -0.881  -6.397  0.00  0.00    +0.024 A 
ATOM      4  C   UNL     1       2.150  -0.719  -7.733  0.00  0.00    +0.035 A 
ATOM      5  C   UNL     1       2.895  -1.670  -8.453  0.00  0.00    +0.255 A 
ATOM      6  O   UNL     1       3.067  -1.518  -9.651  0.00  0.00    -0.268 OA
ATOM      7  N   UNL     1       3.420  -2.746  -7.838  0.00  0.00    -0.307 N 
ATOM      8  H   UNL     1       3.931  -3.391  -8.351  0.00  0.00    +0.170 HD
ATOM      9  C   UNL     1       3.240  -2.937  -6.494  0.00  0.00    +0.145 A 
ATOM     10  N   UNL     1       3.646  -3.905  -5.632  0.00  0.00    -0.215 N 
ATOM     11  N   UNL     1       3.185  -3.609  -4.345  0.00  0.00    -0.164 NA
ENDROOT
BRANCH   1  15
ATOM     12  C   UNL     1       0.606  -0.607  -1.056  0.00  0.00    +0.162 A 
ATOM     13  C   UNL     1       1.172   0.162  -2.061  0.00  0.00    +0.050 A 
ATOM     14  C   UNL     1       1.786  -0.446  -3.137  0.00  0.00    +0.014 A 
ATOM     15  C   UNL     1       1.838  -1.837  -3.216  0.00  0.00    +0.006 A 
ATOM     16  C   UNL     1       1.269  -2.612  -2.205  0.00  0.00    +0.059 A 
ATOM     17  C   UNL     1       0.660  -1.997  -1.126  0.00  0.00    +0.162 A 
BRANCH  12  19
ATOM     18  C   UNL     1      -0.017   1.425   0.010  0.00  0.00    +0.277 C 
ATOM     19  O   UNL     1       0.002  -0.004   0.002  0.00  0.00    -0.491 OA
ENDBRANCH  12  19
BRANCH  17  20
ATOM     20  O   UNL     1       0.109  -2.750  -0.136  0.00  0.00    -0.491 OA
ATOM     21  C   UNL     1       0.202  -4.169  -0.273  0.00  0.00    +0.277 C 
ENDBRANCH  17  20
ENDBRANCH   1  15
BRANCH  10  22
ATOM     22  C   UNL     1       4.412  -5.026  -5.977  0.00  0.00    +0.068 A 
ATOM     23  C   UNL     1       4.240  -5.631  -7.215  0.00  0.00    +0.028 A 
ATOM     24  C   UNL     1       4.997  -6.736  -7.553  0.00  0.00    +0.002 A 
ATOM     25  C   UNL     1       5.925  -7.239  -6.660  0.00  0.00    +0.000 A 
ATOM     26  C   UNL     1       6.098  -6.639  -5.427  0.00  0.00    +0.002 A 
ATOM     27  C   UNL     1       5.348  -5.531  -5.085  0.00  0.00    +0.028 A 
ENDBRANCH  10  22
BRANCH   4  28
ATOM     28  C   UNL     1       1.569   0.478  -8.441  0.00  0.00    +0.142 C 
BRANCH  28  29
ATOM     29  N   UNL     1       2.580   1.536  -8.520  0.00  0.00    -0.340 N 
ATOM     30  H   UNL     1       3.462   1.393  -8.143  0.00  0.00    +0.146 HD
BRANCH  29  31
ATOM     31  C   UNL     1       2.272   2.751  -9.137  0.00  0.00    +0.028 A 
ATOM     32  C   UNL     1       1.007   2.960  -9.673  0.00  0.00    +0.023 A 
ATOM     33  C   UNL     1       0.709   4.162 -10.281  0.00  0.00    +0.006 A 
ATOM     34  C   UNL     1       1.666   5.161 -10.361  0.00  0.00    -0.044 A 
ATOM     35  C   UNL     1       2.925   4.956  -9.829  0.00  0.00    -0.042 A 
ATOM     36  C   UNL     1       3.227   3.755  -9.213  0.00  0.00    +0.026 A 
ATOM     37  C   UNL     1       3.778   6.189 -10.044  0.00  0.00    +0.036 C 
ATOM     38  C   UNL     1       3.053   6.996 -11.141  0.00  0.00    +0.009 C 
ATOM     39  C   UNL     1       1.586   6.546 -10.969  0.00  0.00    +0.036 C 
ENDBRANCH  29  31
ENDBRANCH  28  29
ENDBRANCH   4  28
TORSDOF 7
