REMARK  Name = ZINC20213473
REMARK  7 active torsions:
REMARK  status: ('A' for Active; 'I' for Inactive)
REMARK    1  A    between atoms: C_1  and  C_2
REMARK    2  A    between atoms: C_6  and  C_34
REMARK    3  A    between atoms: C_7  and  N_8
REMARK    4  A    between atoms: N_8  and  C_9
REMARK    5  A    between atoms: C_9  and  N_11
REMARK    6  A    between atoms: C_14  and  C_17
REMARK    7  A    between atoms: C_24  and  C_26
REMARK                            x       y       z     vdW  Elec       q    Type
REMARK                         _______ _______ _______ _____ _____    ______ ____
ROOT
ATOM      1  N   UNL     1      -0.401   0.033   4.862  0.00  0.00    -0.312 N 
ATOM      2  C   UNL     1      -0.270   1.492   4.988  0.00  0.00    +0.107 C 
ATOM      3  C   UNL     1       0.792   1.802   6.046  0.00  0.00    +0.028 C 
ATOM      4  C   UNL     1       0.430   1.089   7.351  0.00  0.00    +0.039 C 
ATOM      5  C   UNL     1       0.408  -0.424   7.119  0.00  0.00    +0.028 C 
ATOM      6  C   UNL     1      -0.665  -0.759   6.071  0.00  0.00    +0.107 C 
ENDROOT
BRANCH   4   7
ATOM      7  C   UNL     1       1.456   1.419   8.405  0.00  0.00    +0.026 A 
ATOM      8  C   UNL     1       1.075   2.030   9.551  0.00  0.00    +0.093 A 
ATOM      9  C   UNL     1       2.037   2.338  10.534  0.00  0.00    +0.275 A 
ATOM     10  N   UNL     1       3.331   2.022  10.329  0.00  0.00    -0.180 N 
ATOM     11  C   UNL     1       3.708   1.406   9.170  0.00  0.00    +0.139 A 
ATOM     12  N   UNL     1       2.765   1.099   8.207  0.00  0.00    -0.343 N 
ATOM     13  C   UNL     1       5.053   1.208   9.228  0.00  0.00    +0.076 A 
ATOM     14  C   UNL     1       5.510   1.718  10.456  0.00  0.00    +0.095 A 
ATOM     15  N   UNL     1       4.477   2.204  11.113  0.00  0.00    -0.162 NA
ATOM     16  O   UNL     1       1.698   2.888  11.568  0.00  0.00    -0.266 OA
ATOM     17  H   UNL     1       3.036   0.657   7.387  0.00  0.00    +0.167 HD
BRANCH  14  18
ATOM     18  C   UNL     1       6.916   1.708  10.931  0.00  0.00    +0.002 A 
ATOM     19  C   UNL     1       7.920   1.165  10.132  0.00  0.00    +0.011 A 
ATOM     20  C   UNL     1       9.226   1.158  10.579  0.00  0.00    +0.020 A 
ATOM     21  C   UNL     1       9.539   1.691  11.818  0.00  0.00    +0.041 A 
ATOM     22  C   UNL     1       8.545   2.232  12.615  0.00  0.00    +0.020 A 
ATOM     23  C   UNL     1       7.237   2.248  12.175  0.00  0.00    +0.011 A 
ATOM     24 CL   UNL     1      11.184   1.679  12.374  0.00  0.00    -0.084 Cl
ENDBRANCH  14  18
ENDBRANCH   4   7
BRANCH   1  25
ATOM     25  C   UNL     1      -0.286  -0.565   3.660  0.00  0.00    +0.137 C 
ATOM     26  S   UNL     1      -0.573  -2.247   3.510  0.00  0.00    -0.018 S 
BRANCH  25  27
ATOM     27  N   UNL     1       0.054   0.159   2.576  0.00  0.00    -0.296 N 
ATOM     28  H   UNL     1       0.952   0.099   2.215  0.00  0.00    +0.154 HD
BRANCH  27  35
ATOM     29  C   UNL     1      -2.704  -0.344   3.065  0.00  0.00    +0.045 C 
ATOM     30  C   UNL     1      -2.245   0.789   2.184  0.00  0.00    -0.029 A 
ATOM     31  C   UNL     1      -3.172   1.623   1.591  0.00  0.00    +0.005 A 
ATOM     32  C   UNL     1      -2.752   2.662   0.782  0.00  0.00    +0.001 A 
ATOM     33  C   UNL     1      -1.402   2.871   0.564  0.00  0.00    +0.005 A 
ATOM     34  C   UNL     1      -0.469   2.040   1.154  0.00  0.00    -0.029 A 
ATOM     35  C   UNL     1      -0.888   0.999   1.972  0.00  0.00    +0.038 A 
ATOM     36  C   UNL     1       1.001   2.268   0.916  0.00  0.00    +0.045 C 
ENDBRANCH  27  35
ENDBRANCH  25  27
ENDBRANCH   1  25
TORSDOF 5
