REMARK  Name = ZINC37309192
REMARK  6 active torsions:
REMARK  status: ('A' for Active; 'I' for Inactive)
REMARK    1  A    between atoms: C_1  and  C_2
REMARK    2  A    between atoms: C_5  and  O_8
REMARK    3  A    between atoms: O_8  and  C_9
REMARK    4  A    between atoms: C_12  and  S_18
REMARK    5  A    between atoms: C_14  and  C_15
REMARK    6  A    between atoms: S_18  and  N_21
REMARK                            x       y       z     vdW  Elec       q    Type
REMARK                         _______ _______ _______ _____ _____    ______ ____
ROOT
ATOM      1  C   UNL     1       2.606  -4.566   0.463  0.00  0.00    +0.135 A 
ATOM      2  C   UNL     1       3.612  -3.808   1.044  0.00  0.00    +0.048 A 
ATOM      3  C   UNL     1       4.739  -4.423   1.550  0.00  0.00    +0.032 A 
ATOM      4  C   UNL     1       4.877  -5.801   1.482  0.00  0.00    +0.106 A 
ATOM      5  C   UNL     1       3.889  -6.571   0.909  0.00  0.00    +0.047 A 
ATOM      6  C   UNL     1       2.739  -5.962   0.398  0.00  0.00    +0.106 A 
ENDROOT
BRANCH   6   7
ATOM      7  C   UNL     1       1.677  -6.778  -0.211  0.00  0.00    +0.390 C 
ATOM      8  O   UNL     1       1.796  -7.995  -0.267  0.00  0.00    -0.240 OA
ATOM      9  O   UNL     1       0.674  -6.241  -0.662  0.00  0.00    -0.240 OA
ENDBRANCH   6   7
BRANCH   4  10
ATOM     10  S   UNL     1       6.323  -6.570   2.131  0.00  0.00    +0.056 S 
ATOM     11  O   UNL     1       6.459  -7.814   1.457  0.00  0.00    -0.153 OA
ATOM     12  O   UNL     1       7.346  -5.584   2.124  0.00  0.00    -0.153 OA
BRANCH  10  13
ATOM     13  N   UNL     1       6.018  -6.924   3.720  0.00  0.00    -0.204 NA
ATOM     14  H   UNL     1       5.159  -6.700   4.111  0.00  0.00    +0.144 HD
ATOM     15  H   UNL     1       6.698  -7.356   4.260  0.00  0.00    +0.144 HD
ENDBRANCH  10  13
ENDBRANCH   4  10
BRANCH   1  16
ATOM     16  O   UNL     1       1.498  -3.963  -0.034  0.00  0.00    -0.488 OA
BRANCH  16  21
ATOM     17  C   UNL     1       0.022   1.530   0.236  0.00  0.00    +0.007 C 
ATOM     18  C   UNL     1       0.038   0.001   0.237  0.00  0.00    -0.014 C 
ATOM     19  C   UNL     1       0.517  -0.505  -1.126  0.00  0.00    +0.007 C 
ATOM     20  C   UNL     1       0.534  -2.035  -1.125  0.00  0.00    +0.045 C 
ATOM     21  C   UNL     1       1.483  -2.534  -0.034  0.00  0.00    +0.174 C 
ATOM     22  C   UNL     1       1.004  -2.029   1.328  0.00  0.00    +0.045 C 
ATOM     23  C   UNL     1       0.988  -0.499   1.328  0.00  0.00    +0.007 C 
ENDBRANCH  16  21
ENDBRANCH   1  16
TORSDOF 5
