REMARK  Name = ZINC38682321
REMARK  14 active torsions:
REMARK  status: ('A' for Active; 'I' for Inactive)
REMARK    1  A    between atoms: C_1  and  O_2
REMARK    2  A    between atoms: O_2  and  C_3
REMARK    3  A    between atoms: C_5  and  C_13
REMARK    4  A    between atoms: C_7  and  O_11
REMARK    5  A    between atoms: C_8  and  O_9
REMARK    6  A    between atoms: O_9  and  C_10
REMARK    7  A    between atoms: O_11  and  C_12
REMARK    8  A    between atoms: C_13  and  O_15
REMARK    9  A    between atoms: O_15  and  C_16
REMARK   10  A    between atoms: C_23  and  N_37
REMARK   11  A    between atoms: C_24  and  C_35
REMARK   12  A    between atoms: C_25  and  C_27
REMARK   13  A    between atoms: C_30  and  S_33
REMARK   14  A    between atoms: S_33  and  C_34
REMARK                            x       y       z     vdW  Elec       q    Type
REMARK                         _______ _______ _______ _____ _____    ______ ____
ROOT
ATOM      1  C   UNL     1       3.534   0.622  -6.159  0.00  0.00    +0.135 A 
ATOM      2  C   UNL     1       3.480   1.989  -5.920  0.00  0.00    +0.047 A 
ATOM      3  C   UNL     1       4.030   2.870  -6.830  0.00  0.00    +0.012 A 
ATOM      4  C   UNL     1       4.637   2.397  -7.980  0.00  0.00    +0.008 A 
ATOM      5  C   UNL     1       4.694   1.034  -8.223  0.00  0.00    +0.138 A 
ATOM      6  C   UNL     1       4.146   0.145  -7.306  0.00  0.00    +0.093 A 
ATOM      7  O   UNL     1       5.284   0.551  -9.344  0.00  0.00    -0.441 OA
ATOM      8  C   UNL     1       6.144   1.320 -10.033  0.00  0.00    +0.199 C 
ATOM      9  C   UNL     1       6.169   2.667  -9.896  0.00  0.00    +0.098 C 
ATOM     10  C   UNL     1       5.230   3.375  -8.959  0.00  0.00    +0.098 C 
ENDROOT
BRANCH  10  11
ATOM     11  C   UNL     1       4.124   4.019  -9.754  0.00  0.00    -0.035 A 
ATOM     12  C   UNL     1       3.280   3.236 -10.521  0.00  0.00    +0.005 A 
ATOM     13  C   UNL     1       2.265   3.823 -11.251  0.00  0.00    +0.015 A 
ATOM     14  C   UNL     1       2.092   5.202 -11.214  0.00  0.00    +0.008 A 
ATOM     15  C   UNL     1       2.942   5.984 -10.442  0.00  0.00    +0.015 A 
ATOM     16  C   UNL     1       3.951   5.390  -9.710  0.00  0.00    +0.005 A 
BRANCH  14  17
ATOM     17  S   UNL     1       0.799   5.955 -12.144  0.00  0.00    -0.129 S 
ATOM     18  C   UNL     1       0.972   7.724 -11.784  0.00  0.00    +0.090 C 
ENDBRANCH  14  17
ENDBRANCH  10  11
BRANCH   8  19
ATOM     19  N   UNL     1       7.022   0.723 -10.902  0.00  0.00    -0.328 N 
ATOM     20  H   UNL     1       7.016  -0.241 -11.012  0.00  0.00    +0.145 HD
ATOM     21  H   UNL     1       7.649   1.265 -11.407  0.00  0.00    +0.145 HD
ENDBRANCH   8  19
BRANCH   9  22
ATOM     22  C   UNL     1       7.109   3.433 -10.658  0.00  0.00    +0.101 C 
ATOM     23  N   UNL     1       7.855   4.040 -11.262  0.00  0.00    -0.191 NA
ENDBRANCH   9  22
BRANCH   1  24
ATOM     24  O   UNL     1       2.993  -0.246  -5.264  0.00  0.00    -0.422 OA
BRANCH  24  25
ATOM     25  C   UNL     1       3.829  -0.910  -4.441  0.00  0.00    +0.345 C 
ATOM     26  O   UNL     1       5.032  -0.791  -4.572  0.00  0.00    -0.245 OA
BRANCH  25  29
ATOM     27  C   UNL     1       3.638  -3.284  -1.537  0.00  0.00    +0.166 A 
ATOM     28  C   UNL     1       4.151  -2.469  -2.529  0.00  0.00    +0.064 A 
ATOM     29  C   UNL     1       3.285  -1.780  -3.383  0.00  0.00    +0.067 A 
ATOM     30  C   UNL     1       1.903  -1.918  -3.231  0.00  0.00    +0.064 A 
ATOM     31  C   UNL     1       1.395  -2.734  -2.238  0.00  0.00    +0.166 A 
ATOM     32  C   UNL     1       2.260  -3.423  -1.392  0.00  0.00    +0.204 A 
BRANCH  27  34
ATOM     33  C   UNL     1       5.882  -3.765  -0.911  0.00  0.00    +0.277 C 
ATOM     34  O   UNL     1       4.480  -3.955  -0.706  0.00  0.00    -0.491 OA
ENDBRANCH  27  34
BRANCH  32  35
ATOM     35  O   UNL     1       1.759  -4.229  -0.420  0.00  0.00    -0.488 OA
ATOM     36  C   UNL     1       1.506  -3.630   0.853  0.00  0.00    +0.277 C 
ENDBRANCH  32  35
BRANCH  31  37
ATOM     37  O   UNL     1       0.050  -2.868  -2.090  0.00  0.00    -0.491 OA
ATOM     38  C   UNL     1      -0.778  -2.136  -2.995  0.00  0.00    +0.277 C 
ENDBRANCH  31  37
ENDBRANCH  25  29
ENDBRANCH  24  25
ENDBRANCH   1  24
TORSDOF 10
