REMARK  Name = ZINC32117804
REMARK  6 active torsions:
REMARK  status: ('A' for Active; 'I' for Inactive)
REMARK    1  A    between atoms: C_1  and  C_2
REMARK    2  A    between atoms: C_5  and  N_8
REMARK    3  A    between atoms: C_9  and  C_11
REMARK    4  A    between atoms: C_12  and  N_25
REMARK    5  A    between atoms: C_14  and  C_24
REMARK    6  A    between atoms: C_16  and  C_20
REMARK                            x       y       z     vdW  Elec       q    Type
REMARK                         _______ _______ _______ _____ _____    ______ ____
ROOT
ATOM      1  C   UNL     1       0.920   2.406   0.581  0.00  0.00    +0.097 A 
ATOM      2  C   UNL     1       2.142   1.769   0.591  0.00  0.00    +0.054 A 
ATOM      3  C   UNL     1       3.342   2.581   0.718  0.00  0.00    +0.032 A 
ATOM      4  C   UNL     1       4.695   2.161   0.749  0.00  0.00    -0.037 A 
ATOM      5  C   UNL     1       5.684   3.107   0.882  0.00  0.00    +0.036 A 
ATOM      6  C   UNL     1       5.360   4.451   0.984  0.00  0.00    +0.145 A 
ATOM      7  N   UNL     1       4.099   4.838   0.955  0.00  0.00    -0.235 NA
ATOM      8  C   UNL     1       3.118   3.972   0.829  0.00  0.00    +0.112 A 
ATOM      9  S   UNL     1       1.350   4.127   0.754  0.00  0.00    -0.062 S 
ATOM     10  C   UNL     1       5.045   0.699   0.638  0.00  0.00    +0.044 C 
ENDROOT
BRANCH   1  12
ATOM     11  N   UNL     1      -1.463   2.619   0.475  0.00  0.00    -0.281 N 
ATOM     12  C   UNL     1      -0.369   1.830   0.466  0.00  0.00    +0.257 C 
ATOM     13  O   UNL     1      -0.490   0.624   0.354  0.00  0.00    -0.269 OA
ATOM     14  H   UNL     1      -1.360   3.698   0.659  0.00  0.00    +0.155 HD
BRANCH  11  19
ATOM     15  C   UNL     1      -6.590   0.369  -0.435  0.00  0.00    +0.044 C 
ATOM     16  C   UNL     1      -5.228   0.967  -0.193  0.00  0.00    -0.050 A 
ATOM     17  C   UNL     1      -4.283   0.261   0.530  0.00  0.00    +0.005 A 
ATOM     18  C   UNL     1      -3.034   0.806   0.753  0.00  0.00    +0.023 A 
ATOM     19  C   UNL     1      -2.727   2.064   0.251  0.00  0.00    +0.034 A 
ATOM     20  C   UNL     1      -3.679   2.772  -0.470  0.00  0.00    +0.023 A 
ATOM     21  C   UNL     1      -4.925   2.219  -0.695  0.00  0.00    +0.005 A 
ENDBRANCH  11  19
ENDBRANCH   1  12
BRANCH   6  22
ATOM     22  C   UNL     1       6.455   5.476   1.129  0.00  0.00    +0.434 C 
ATOM     23  F   UNL     1       6.859   5.909  -0.138  0.00  0.00    -0.164 F 
ATOM     24  F   UNL     1       5.978   6.567   1.864  0.00  0.00    -0.164 F 
ATOM     25  F   UNL     1       7.543   4.905   1.796  0.00  0.00    -0.164 F 
ENDBRANCH   6  22
BRANCH   2  26
ATOM     26  N   UNL     1       2.225   0.388   0.480  0.00  0.00    -0.356 N 
ATOM     27  H   UNL     1       3.208  -0.106   0.490  0.00  0.00    +0.142 HD
ATOM     28  H   UNL     1       1.308  -0.212   0.382  0.00  0.00    +0.142 HD
ENDBRANCH   2  26
TORSDOF 4
