REMARK  Name = ZINC44785803
REMARK  5 active torsions:
REMARK  status: ('A' for Active; 'I' for Inactive)
REMARK    1  A    between atoms: C_1  and  C_2
REMARK    2  A    between atoms: C_2  and  C_20
REMARK    3  A    between atoms: C_8  and  C_10
REMARK    4  A    between atoms: C_10  and  C_16
REMARK    5  A    between atoms: N_17  and  O_18
REMARK                            x       y       z     vdW  Elec       q    Type
REMARK                         _______ _______ _______ _____ _____    ______ ____
ROOT
ATOM      1  C   UNL     1       2.551  -1.164   2.263  0.00  0.00    +0.105 C 
ATOM      2  C   UNL     1       1.754  -2.224   3.026  0.00  0.00    +0.024 C 
ATOM      3  C   UNL     1       1.618  -3.480   2.163  0.00  0.00    +0.001 C 
ATOM      4  C   UNL     1       3.009  -4.026   1.834  0.00  0.00    +0.000 C 
ATOM      5  C   UNL     1       3.805  -2.966   1.071  0.00  0.00    +0.001 C 
ATOM      6  C   UNL     1       3.942  -1.711   1.934  0.00  0.00    +0.024 C 
ENDROOT
BRANCH   1  14
ATOM      7  C   UNL     1       2.313   0.141  -2.275  0.00  0.00    +0.034 C 
ATOM      8  C   UNL     1       1.569   0.583  -1.013  0.00  0.00    +0.055 C 
ATOM      9  C   UNL     1       1.463   2.112  -0.985  0.00  0.00    +0.185 C 
ATOM     10  O   UNL     1       2.767   2.672  -0.812  0.00  0.00    -0.376 OA
ATOM     11  C   UNL     1       3.397   2.317   0.422  0.00  0.00    +0.179 C 
ATOM     12  C   UNL     1       3.603   0.799   0.466  0.00  0.00    +0.136 C 
ATOM     13  N   UNL     1       2.314   0.148   0.179  0.00  0.00    -0.291 N 
ATOM     14  C   UNL     1       1.832  -0.819   0.984  0.00  0.00    +0.230 C 
ATOM     15  O   UNL     1       0.818  -1.412   0.680  0.00  0.00    -0.275 OA
ATOM     16  C   UNL     1       0.169  -0.032  -0.998  0.00  0.00    +0.034 C 
ENDBRANCH   1  14
BRANCH   1  17
ATOM     17  C   UNL     1       2.685   0.073   3.113  0.00  0.00    +0.147 C 
ATOM     18  N   UNL     1       3.847   0.433   3.549  0.00  0.00    -0.076 NA
ATOM     19  N   UNL     1       1.570   0.818   3.425  0.00  0.00    -0.343 N 
ATOM     20  H   UNL     1       0.690   0.509   3.160  0.00  0.00    +0.144 HD
ATOM     21  H   UNL     1       1.665   1.653   3.909  0.00  0.00    +0.144 HD
BRANCH  18  22
ATOM     22  O   UNL     1       3.973   1.596   4.348  0.00  0.00    -0.408 OA
ATOM     23  H   UNL     1       4.879   1.785   4.627  0.00  0.00    +0.328 HD
ENDBRANCH  18  22
ENDBRANCH   1  17
TORSDOF 3
