REMARK  Name = ZINC65371131
REMARK  1 active torsions:
REMARK  status: ('A' for Active; 'I' for Inactive)
REMARK    1  A    between atoms: C_9  and  N_11
REMARK                            x       y       z     vdW  Elec       q    Type
REMARK                         _______ _______ _______ _____ _____    ______ ____
ROOT
ATOM      1  N   UNL     1       4.147  -1.058   1.302  0.00  0.00    -0.322 N 
ATOM      2  C   UNL     1       5.114  -0.160   1.715  0.00  0.00    +0.131 A 
ATOM      3  C   UNL     1       5.614  -0.201   3.046  0.00  0.00    +0.051 A 
ATOM      4  C   UNL     1       5.248  -1.102   4.137  0.00  0.00    -0.022 A 
ATOM      5  C   UNL     1       5.880  -0.927   5.317  0.00  0.00    +0.009 A 
ATOM      6  S   UNL     1       6.987   0.429   5.051  0.00  0.00    -0.072 S 
ATOM      7  C   UNL     1       6.598   0.762   3.352  0.00  0.00    +0.114 A 
ATOM      8  N   UNL     1       7.013   1.633   2.454  0.00  0.00    -0.228 NA
ATOM      9  C   UNL     1       6.511   1.622   1.234  0.00  0.00    +0.224 A 
ATOM     10  N   UNL     1       5.591   0.745   0.875  0.00  0.00    -0.220 NA
ATOM     11  C   UNL     1       5.669  -1.722   6.569  0.00  0.00    +0.124 C 
ATOM     12  N   UNL     1       4.418  -2.490   6.424  0.00  0.00    -0.311 NA
ATOM     13  C   UNL     1       4.394  -3.201   5.138  0.00  0.00    +0.086 C 
ATOM     14  C   UNL     1       4.204  -2.206   3.990  0.00  0.00    +0.052 C 
ATOM     15  H   UNL     1       3.746  -1.668   1.941  0.00  0.00    +0.148 HD
ATOM     16  H   UNL     1       4.296  -3.130   7.194  0.00  0.00    +0.122 HD
ENDROOT
BRANCH   1  25
ATOM     17  C   UNL     1       0.310   1.380  -0.764  0.00  0.00    +0.000 A 
ATOM     18  C   UNL     1       1.532   2.024  -0.715  0.00  0.00    +0.000 A 
ATOM     19  C   UNL     1       2.687   1.296  -0.504  0.00  0.00    +0.006 A 
ATOM     20  C   UNL     1       2.625  -0.077  -0.341  0.00  0.00    -0.024 A 
ATOM     21  C   UNL     1       1.403  -0.721  -0.389  0.00  0.00    -0.042 A 
ATOM     22  C   UNL     1       0.246   0.011  -0.601  0.00  0.00    +0.004 A 
ATOM     23  C   UNL     1       1.599  -2.208  -0.185  0.00  0.00    +0.037 C 
ATOM     24  C   UNL     1       3.100  -2.456  -0.444  0.00  0.00    +0.032 C 
ATOM     25  C   UNL     1       3.726  -1.088  -0.101  0.00  0.00    +0.103 C 
ENDBRANCH   1  25
TORSDOF 1
