REMARK  Name = ZINC13075499
REMARK  11 active torsions:
REMARK  status: ('A' for Active; 'I' for Inactive)
REMARK    1  A    between atoms: C_1  and  C_2
REMARK    2  A    between atoms: C_7  and  C_8
REMARK    3  A    between atoms: C_8  and  C_10
REMARK    4  A    between atoms: C_8  and  N_11
REMARK    5  A    between atoms: C_12  and  C_14
REMARK    6  A    between atoms: C_14  and  S_15
REMARK    7  A    between atoms: S_15  and  C_16
REMARK    8  A    between atoms: C_19  and  C_28
REMARK    9  A    between atoms: N_20  and  C_21
REMARK   10  A    between atoms: C_28  and  C_30
REMARK   11  A    between atoms: C_28  and  N_66
REMARK                            x       y       z     vdW  Elec       q    Type
REMARK                         _______ _______ _______ _____ _____    ______ ____
ROOT
ATOM      1  C   UNL     1       4.917  -6.511   3.485  0.00  0.00    +0.197 A 
ATOM      2  N   UNL     1       5.862  -5.621   3.288  0.00  0.00    -0.122 NA
ATOM      3  N   UNL     1       7.000  -6.107   3.633  0.00  0.00    -0.135 NA
ATOM      4  C   UNL     1       6.854  -7.327   4.067  0.00  0.00    +0.125 A 
ATOM      5  N   UNL     1       5.520  -7.628   3.994  0.00  0.00    -0.275 N 
ENDROOT
BRANCH   5   6
ATOM      6  C   UNL     1       4.901  -8.833   4.361  0.00  0.00    +0.050 A 
ATOM      7  C   UNL     1       4.906  -9.240   5.688  0.00  0.00    +0.029 A 
ATOM      8  C   UNL     1       4.291 -10.423   6.049  0.00  0.00    +0.040 A 
ATOM      9  C   UNL     1       3.680 -11.209   5.086  0.00  0.00    +0.124 A 
ATOM     10  C   UNL     1       3.680 -10.807   3.761  0.00  0.00    +0.040 A 
ATOM     11  C   UNL     1       4.288  -9.622   3.397  0.00  0.00    +0.029 A 
ATOM     12  F   UNL     1       3.085 -12.368   5.440  0.00  0.00    -0.205 F 
ENDBRANCH   5   6
BRANCH   4  13
ATOM     13  C   UNL     1       7.949  -8.236   4.563  0.00  0.00    -0.002 C 
ATOM     14  C   UNL     1       8.777  -8.732   3.376  0.00  0.00    -0.005 C 
BRANCH  13  20
ATOM     15  C   UNL     1       9.879  -8.361   6.018  0.00  0.00    -0.078 C 
ATOM     16  C   UNL     1      10.845  -7.527   6.862  0.00  0.00    -0.019 C 
ATOM     17  C   UNL     1      10.075  -6.873   8.013  0.00  0.00    -0.004 C 
ATOM     18  C   UNL     1       8.943  -6.017   7.438  0.00  0.00    -0.019 C 
ATOM     19  C   UNL     1       8.032  -6.896   6.577  0.00  0.00    -0.078 C 
ATOM     20  N   UNL     1       8.828  -7.475   5.474  0.00  0.00    +0.386 N 
ATOM     21  H   UNL     1       9.274  -6.714   4.949  0.00  0.00    -0.081 HD
ENDBRANCH  13  20
ENDBRANCH   4  13
BRANCH   1  22
ATOM     22  S   UNL     1       3.197  -6.303   3.162  0.00  0.00    -0.076 S 
BRANCH  22  23
ATOM     23  C   UNL     1       3.199  -4.607   2.529  0.00  0.00    +0.173 C 
BRANCH  23  25
ATOM     24  N   UNL     1       1.548  -2.971   1.683  0.00  0.00    -0.308 N 
ATOM     25  C   UNL     1       1.791  -4.201   2.177  0.00  0.00    +0.224 C 
ATOM     26  O   UNL     1       0.877  -4.982   2.337  0.00  0.00    -0.275 OA
ATOM     27  H   UNL     1       2.280  -2.347   1.555  0.00  0.00    +0.149 HD
BRANCH  24  28
ATOM     28  C   UNL     1       0.180  -2.576   1.341  0.00  0.00    +0.100 C 
ATOM     29  C   UNL     1      -0.148  -3.050  -0.077  0.00  0.00    +0.033 C 
BRANCH  28  36
ATOM     30  C   UNL     1      -2.394  -1.357   1.826  0.00  0.00    +0.044 C 
ATOM     31  C   UNL     1      -1.174  -0.493   1.642  0.00  0.00    -0.046 A 
ATOM     32  C   UNL     1      -1.286   0.884   1.706  0.00  0.00    +0.004 A 
ATOM     33  C   UNL     1      -0.167   1.677   1.538  0.00  0.00    +0.000 A 
ATOM     34  C   UNL     1       1.065   1.094   1.304  0.00  0.00    +0.000 A 
ATOM     35  C   UNL     1       1.177  -0.282   1.241  0.00  0.00    +0.006 A 
ATOM     36  C   UNL     1       0.057  -1.076   1.410  0.00  0.00    -0.025 A 
ENDBRANCH  28  36
ENDBRANCH  24  28
ENDBRANCH  23  25
ENDBRANCH  22  23
ENDBRANCH   1  22
TORSDOF 8
