REMARK  Name = ZINC02667940
REMARK  10 active torsions:
REMARK  status: ('A' for Active; 'I' for Inactive)
REMARK    1  A    between atoms: C_1  and  C_2
REMARK    2  A    between atoms: C_5  and  C_8
REMARK    3  A    between atoms: C_8  and  C_10
REMARK    4  A    between atoms: C_8  and  N_70
REMARK    5  A    between atoms: C_11  and  C_24
REMARK    6  A    between atoms: C_12  and  C_23
REMARK    7  A    between atoms: C_14  and  N_15
REMARK    8  A    between atoms: C_16  and  C_18
REMARK    9  A    between atoms: C_27  and  C_30
REMARK   10  A    between atoms: C_30  and  C_31
REMARK                            x       y       z     vdW  Elec       q    Type
REMARK                         _______ _______ _______ _____ _____    ______ ____
ROOT
ATOM      1  C   UNL     1       2.957  -0.459  -2.768  0.00  0.00    -0.004 C 
ENDROOT
BRANCH   1   6
ATOM      2  C   UNL     1       1.243   1.407  -7.962  0.00  0.00    +0.044 C 
ATOM      3  C   UNL     1       1.690   0.920  -6.607  0.00  0.00    -0.050 A 
ATOM      4  C   UNL     1       2.149  -0.374  -6.455  0.00  0.00    +0.003 A 
ATOM      5  C   UNL     1       2.559  -0.821  -5.213  0.00  0.00    +0.002 A 
ATOM      6  C   UNL     1       2.510   0.028  -4.123  0.00  0.00    -0.057 A 
ATOM      7  C   UNL     1       2.046   1.321  -4.274  0.00  0.00    +0.002 A 
ATOM      8  C   UNL     1       1.640   1.769  -5.517  0.00  0.00    +0.003 A 
ENDBRANCH   1   6
BRANCH   1   9
ATOM      9  C   UNL     1       4.397  -0.075  -2.547  0.00  0.00    -0.025 A 
ATOM     10  C   UNL     1       5.404  -1.014  -2.677  0.00  0.00    -0.037 A 
ATOM     11  C   UNL     1       6.689  -0.633  -2.476  0.00  0.00    -0.008 A 
ATOM     12  S   UNL     1       6.508   1.097  -2.075  0.00  0.00    -0.078 S 
ATOM     13  C   UNL     1       4.731   1.203  -2.209  0.00  0.00    +0.074 A 
ATOM     14  C   UNL     1       7.947  -1.460  -2.562  0.00  0.00    +0.052 C 
ATOM     15  C   UNL     1       5.078  -2.439  -3.042  0.00  0.00    +0.045 C 
BRANCH  13  16
ATOM     16  N   UNL     1       3.898   2.307  -2.017  0.00  0.00    -0.273 N 
ATOM     17  C   UNL     1       4.434   3.526  -1.809  0.00  0.00    +0.284 C 
ATOM     18  O   UNL     1       5.643   3.664  -1.787  0.00  0.00    -0.266 OA
ATOM     19  H   UNL     1       2.935   2.197  -2.034  0.00  0.00    +0.156 HD
BRANCH  17  20
ATOM     20  C   UNL     1       3.560   4.686  -1.607  0.00  0.00    +0.189 A 
ATOM     21  C   UNL     1       3.969   5.971  -1.387  0.00  0.00    +0.054 A 
ATOM     22  C   UNL     1       2.807   6.746  -1.251  0.00  0.00    +0.042 A 
ATOM     23  C   UNL     1       1.754   5.912  -1.393  0.00  0.00    +0.196 A 
ATOM     24  O   UNL     1       2.211   4.673  -1.613  0.00  0.00    -0.458 OA
ENDBRANCH  17  20
ENDBRANCH  13  16
ENDBRANCH   1   9
BRANCH   1  30
ATOM     25  C   UNL     1       2.547  -0.277  -0.390  0.00  0.00    -0.077 C 
ATOM     26  C   UNL     1       1.753   0.490   0.671  0.00  0.00    -0.015 C 
ATOM     27  C   UNL     1       0.259   0.218   0.478  0.00  0.00    -0.010 C 
ATOM     28  C   UNL     1      -0.148   0.630  -0.939  0.00  0.00    -0.015 C 
ATOM     29  C   UNL     1       0.700  -0.140  -1.953  0.00  0.00    -0.077 C 
ATOM     30  N   UNL     1       2.126   0.183  -1.730  0.00  0.00    +0.387 N 
ATOM     31  H   UNL     1       2.249   1.201  -1.786  0.00  0.00    -0.080 HD
BRANCH  27  32
ATOM     32  C   UNL     1      -0.544   1.030   1.497  0.00  0.00    +0.038 C 
BRANCH  32  33
ATOM     33  C   UNL     1      -2.003   0.669   1.389  0.00  0.00    -0.047 A 
ATOM     34  C   UNL     1      -2.828   1.375   0.532  0.00  0.00    +0.003 A 
ATOM     35  C   UNL     1      -4.165   1.041   0.429  0.00  0.00    +0.000 A 
ATOM     36  C   UNL     1      -4.681   0.009   1.191  0.00  0.00    +0.000 A 
ATOM     37  C   UNL     1      -3.857  -0.693   2.051  0.00  0.00    +0.000 A 
ATOM     38  C   UNL     1      -2.519  -0.363   2.151  0.00  0.00    +0.003 A 
ENDBRANCH  32  33
ENDBRANCH  27  32
ENDBRANCH   1  30
TORSDOF 7
