REMARK  Name = ZINC14015684
REMARK  5 active torsions:
REMARK  status: ('A' for Active; 'I' for Inactive)
REMARK    1  A    between atoms: C_6  and  S_7
REMARK    2  A    between atoms: S_7  and  N_10
REMARK    3  A    between atoms: C_14  and  C_17
REMARK    4  A    between atoms: C_25  and  S_29
REMARK    5  A    between atoms: S_29  and  N_32
REMARK                            x       y       z     vdW  Elec       q    Type
REMARK                         _______ _______ _______ _____ _____    ______ ____
ROOT
ATOM      1  C   UNL     1      -0.261   4.354   4.117  0.00  0.00    +0.223 C 
ATOM      2  O   UNL     1      -0.434   5.365   3.469  0.00  0.00    -0.275 OA
ATOM      3  N   UNL     1       0.007   4.437   5.435  0.00  0.00    -0.264 N 
ATOM      4  C   UNL     1       0.086   5.676   6.050  0.00  0.00    +0.165 A 
ATOM      5  N   UNL     1      -0.064   6.868   5.521  0.00  0.00    -0.225 NA
ATOM      6  C   UNL     1       0.037   8.002   6.247  0.00  0.00    +0.080 A 
ATOM      7  C   UNL     1      -0.105   9.338   5.805  0.00  0.00    +0.031 A 
ATOM      8  C   UNL     1       0.034  10.384   6.679  0.00  0.00    +0.030 A 
ATOM      9  C   UNL     1       0.319  10.174   8.021  0.00  0.00    +0.106 A 
ATOM     10  C   UNL     1       0.465   8.881   8.488  0.00  0.00    +0.045 A 
ATOM     11  C   UNL     1       0.326   7.827   7.620  0.00  0.00    +0.043 A 
ATOM     12  S   UNL     1       0.424   6.059   7.762  0.00  0.00    -0.052 S 
ATOM     13  H   UNL     1       0.146   3.629   5.953  0.00  0.00    +0.157 HD
ENDROOT
BRANCH   1  18
ATOM     14  N   UNL     1      -0.872   1.871   1.353  0.00  0.00    -0.176 NA
ATOM     15  C   UNL     1      -1.852   0.960   1.960  0.00  0.00    +0.109 C 
ATOM     16  C   UNL     1      -1.521   0.799   3.447  0.00  0.00    +0.018 C 
ATOM     17  C   UNL     1      -1.456   2.180   4.104  0.00  0.00    +0.015 C 
ATOM     18  C   UNL     1      -0.346   3.007   3.448  0.00  0.00    +0.091 C 
ATOM     19  C   UNL     1      -0.660   3.190   1.965  0.00  0.00    +0.122 C 
BRANCH  14  20
ATOM     20  S   UNL     1      -0.017   1.417   0.010  0.00  0.00    +0.061 S 
ATOM     21  O   UNL     1       0.002  -0.004   0.002  0.00  0.00    -0.153 OA
ATOM     22  O   UNL     1       1.172   2.195   0.003  0.00  0.00    -0.153 OA
BRANCH  20  28
ATOM     23  C   UNL     1      -1.879   1.052  -1.952  0.00  0.00    +0.030 A 
ATOM     24  C   UNL     1      -2.618   1.444  -3.052  0.00  0.00    +0.022 A 
ATOM     25  C   UNL     1      -2.424   2.698  -3.604  0.00  0.00    +0.041 A 
ATOM     26  C   UNL     1      -1.493   3.560  -3.051  0.00  0.00    +0.022 A 
ATOM     27  C   UNL     1      -0.759   3.168  -1.948  0.00  0.00    +0.030 A 
ATOM     28  C   UNL     1      -0.954   1.915  -1.397  0.00  0.00    +0.106 A 
ATOM     29 CL   UNL     1      -3.347   3.190  -4.990  0.00  0.00    -0.084 Cl
ENDBRANCH  20  28
ENDBRANCH  14  20
ENDBRANCH   1  18
BRANCH   9  30
ATOM     30  S   UNL     1       0.492  11.542   9.119  0.00  0.00    +0.056 S 
ATOM     31  O   UNL     1      -0.232  12.620   8.541  0.00  0.00    -0.153 OA
ATOM     32  O   UNL     1       0.216  11.052  10.424  0.00  0.00    -0.153 OA
BRANCH  30  33
ATOM     33  N   UNL     1       2.088  11.981   9.105  0.00  0.00    -0.204 NA
ATOM     34  H   UNL     1       2.338  12.906   9.260  0.00  0.00    +0.144 HD
ATOM     35  H   UNL     1       2.773  11.315   8.943  0.00  0.00    +0.144 HD
ENDBRANCH  30  33
ENDBRANCH   9  30
TORSDOF 5
