REMARK  Name = ZINC06038236
REMARK  6 active torsions:
REMARK  status: ('A' for Active; 'I' for Inactive)
REMARK    1  A    between atoms: C_1  and  C_2
REMARK    2  A    between atoms: C_5  and  C_8
REMARK    3  A    between atoms: C_9  and  C_10
REMARK    4  A    between atoms: N_12  and  C_13
REMARK    5  A    between atoms: C_14  and  C_22
REMARK    6  A    between atoms: N_24  and  C_25
REMARK                            x       y       z     vdW  Elec       q    Type
REMARK                         _______ _______ _______ _____ _____    ______ ____
ROOT
ATOM      1  C   UNL     1      -1.363   5.325  -1.991  0.00  0.00    +0.085 A 
ATOM      2  C   UNL     1      -1.227   3.967  -2.245  0.00  0.00    +0.069 A 
ATOM      3  C   UNL     1      -0.928   3.100  -1.118  0.00  0.00    -0.023 A 
ATOM      4  C   UNL     1      -0.813   3.724   0.074  0.00  0.00    -0.004 A 
ATOM      5  S   UNL     1      -1.096   5.435  -0.283  0.00  0.00    -0.077 S 
ATOM      6  C   UNL     1      -0.514   3.094   1.399  0.00  0.00    +0.043 C 
ATOM      7  C   UNL     1      -0.726   1.578   1.271  0.00  0.00    +0.005 C 
ATOM      8  C   UNL     1      -0.013   1.086   0.008  0.00  0.00    +0.005 C 
ATOM      9  C   UNL     1      -0.749   1.591  -1.234  0.00  0.00    +0.037 C 
ENDROOT
BRANCH   1  12
ATOM     10  C   UNL     1      -1.739   7.616  -2.450  0.00  0.00    +0.241 C 
ATOM     11  O   UNL     1      -1.577   7.869  -1.271  0.00  0.00    -0.270 OA
ATOM     12  N   UNL     1      -1.644   6.344  -2.886  0.00  0.00    -0.276 N 
ATOM     13  H   UNL     1      -1.773   6.142  -3.826  0.00  0.00    +0.156 HD
BRANCH  10  15
ATOM     14  C   UNL     1      -2.131   9.965  -2.961  0.00  0.00    +0.013 C 
ATOM     15  C   UNL     1      -2.036   8.693  -3.396  0.00  0.00    +0.068 C 
BRANCH  14  20
ATOM     16  C   UNL     1      -3.296  14.196  -6.675  0.00  0.00    +0.044 C 
ATOM     17  C   UNL     1      -2.991  13.087  -5.701  0.00  0.00    -0.050 A 
ATOM     18  C   UNL     1      -2.809  13.379  -4.361  0.00  0.00    +0.004 A 
ATOM     19  C   UNL     1      -2.529  12.370  -3.464  0.00  0.00    +0.008 A 
ATOM     20  C   UNL     1      -2.430  11.048  -3.911  0.00  0.00    -0.025 A 
ATOM     21  C   UNL     1      -2.611  10.762  -5.268  0.00  0.00    +0.008 A 
ATOM     22  C   UNL     1      -2.895  11.782  -6.152  0.00  0.00    +0.004 A 
ENDBRANCH  14  20
ENDBRANCH  10  15
ENDBRANCH   1  12
BRANCH   2  23
ATOM     23  C   UNL     1      -1.381   3.428  -3.600  0.00  0.00    +0.247 C 
ATOM     24  O   UNL     1      -2.476   3.069  -3.992  0.00  0.00    -0.270 OA
ATOM     25  N   UNL     1      -0.309   3.329  -4.411  0.00  0.00    -0.307 N 
ATOM     26  H   UNL     1       0.564   3.615  -4.099  0.00  0.00    +0.149 HD
BRANCH  25  27
ATOM     27  C   UNL     1      -0.463   2.790  -5.765  0.00  0.00    +0.096 C 
ATOM     28  C   UNL     1      -0.907   3.915  -6.715  0.00  0.00    +0.046 C 
ATOM     29  C   UNL     1      -0.759   3.402  -8.175  0.00  0.00    +0.168 C 
ATOM     30  S   UNL     1       0.841   2.497  -8.054  0.00  0.00    -0.029 S 
ATOM     31  O   UNL     1       1.899   3.379  -8.407  0.00  0.00    -0.174 OA
ATOM     32  O   UNL     1       0.719   1.249  -8.723  0.00  0.00    -0.174 OA
ATOM     33  C   UNL     1       0.888   2.202  -6.240  0.00  0.00    +0.188 C 
ENDBRANCH  25  27
ENDBRANCH   2  23
TORSDOF 5
