REMARK  Name = ZINC04171035
REMARK  4 active torsions:
REMARK  status: ('A' for Active; 'I' for Inactive)
REMARK    1  A    between atoms: C_5  and  C_7
REMARK    2  A    between atoms: C_14  and  N_29
REMARK    3  A    between atoms: C_15  and  C_27
REMARK    4  A    between atoms: C_16  and  C_18
REMARK                            x       y       z     vdW  Elec       q    Type
REMARK                         _______ _______ _______ _____ _____    ______ ____
ROOT
ATOM      1  C   UNL     1       1.266  -2.147  -0.022  0.00  0.00    +0.118 A 
ATOM      2  C   UNL     1       2.309  -2.941  -0.510  0.00  0.00    +0.056 A 
ATOM      3  C   UNL     1       1.961  -4.249  -0.336  0.00  0.00    +0.223 A 
ATOM      4  N   UNL     1       0.741  -4.277   0.239  0.00  0.00    -0.246 N 
ATOM      5  H   UNL     1       0.241  -5.073   0.480  0.00  0.00    +0.192 HD
ATOM      6  N   UNL     1       0.323  -2.951   0.433  0.00  0.00    -0.169 NA
ATOM      7  O   UNL     1       2.766  -5.277  -0.706  0.00  0.00    -0.423 OA
ATOM      8  C   UNL     1       4.049  -4.989  -1.005  0.00  0.00    +0.200 C 
ATOM      9  C   UNL     1       4.509  -3.735  -1.213  0.00  0.00    +0.098 C 
ATOM     10  C   UNL     1       3.616  -2.522  -1.132  0.00  0.00    +0.102 C 
ENDROOT
BRANCH  10  11
ATOM     11  C   UNL     1       3.370  -1.979  -2.515  0.00  0.00    -0.031 A 
ATOM     12  C   UNL     1       2.782  -2.780  -3.477  0.00  0.00    +0.008 A 
ATOM     13  C   UNL     1       2.554  -2.286  -4.747  0.00  0.00    +0.050 A 
ATOM     14  C   UNL     1       2.914  -0.986  -5.061  0.00  0.00    +0.166 A 
ATOM     15  C   UNL     1       3.506  -0.178  -4.093  0.00  0.00    +0.167 A 
ATOM     16  C   UNL     1       3.727  -0.678  -2.819  0.00  0.00    +0.054 A 
ATOM     17  O   UNL     1       3.764   1.044  -4.642  0.00  0.00    -0.453 OA
ATOM     18  C   UNL     1       3.699   0.847  -6.067  0.00  0.00    +0.466 C 
ATOM     19  O   UNL     1       2.801  -0.269  -6.217  0.00  0.00    -0.453 OA
ENDBRANCH  10  11
BRANCH   1  24
ATOM     20  C   UNL     1      -0.017   1.380   0.010  0.00  0.00    +0.004 A 
ATOM     21  C   UNL     1       1.194   2.059   0.002  0.00  0.00    +0.020 A 
ATOM     22  C   UNL     1       2.374   1.340  -0.013  0.00  0.00    +0.111 A 
ATOM     23  N   UNL     1       2.364   0.022  -0.021  0.00  0.00    -0.253 NA
ATOM     24  C   UNL     1       1.229  -0.664  -0.014  0.00  0.00    +0.091 A 
ATOM     25  C   UNL     1       0.002  -0.004   0.002  0.00  0.00    +0.030 A 
ENDBRANCH   1  24
BRANCH   8  26
ATOM     26  N   UNL     1       4.938  -6.029  -1.105  0.00  0.00    -0.328 N 
ATOM     27  H   UNL     1       4.638  -6.940  -0.962  0.00  0.00    +0.145 HD
ATOM     28  H   UNL     1       5.868  -5.854  -1.319  0.00  0.00    +0.145 HD
ENDBRANCH   8  26
BRANCH   9  29
ATOM     29  C   UNL     1       5.896  -3.552  -1.521  0.00  0.00    +0.101 C 
ATOM     30  N   UNL     1       6.995  -3.406  -1.766  0.00  0.00    -0.191 NA
ENDBRANCH   9  29
TORSDOF 4
