REMARK  Name = ZINC35338802
REMARK  4 active torsions:
REMARK  status: ('A' for Active; 'I' for Inactive)
REMARK    1  A    between atoms: C_3  and  N_16
REMARK    2  A    between atoms: C_5  and  S_7
REMARK    3  A    between atoms: S_7  and  N_10
REMARK    4  A    between atoms: C_17  and  C_19
REMARK                            x       y       z     vdW  Elec       q    Type
REMARK                         _______ _______ _______ _____ _____    ______ ____
ROOT
ATOM      1  C   UNL     1      -0.013   1.375  -0.179  0.00  0.00    +0.004 A 
ATOM      2  C   UNL     1       1.175   2.081  -0.182  0.00  0.00    +0.023 A 
ATOM      3  C   UNL     1       2.380   1.411  -0.018  0.00  0.00    +0.035 A 
ATOM      4  C   UNL     1       2.387   0.032   0.148  0.00  0.00    +0.052 A 
ATOM      5  C   UNL     1       1.197  -0.668   0.150  0.00  0.00    +0.114 A 
ATOM      6  C   UNL     1      -0.002   0.002  -0.013  0.00  0.00    +0.029 A 
ENDROOT
BRANCH   3   7
ATOM      7  N   UNL     1       3.584   2.123  -0.021  0.00  0.00    -0.285 N 
ATOM      8  C   UNL     1       3.628   3.375   0.478  0.00  0.00    +0.224 C 
ATOM      9  O   UNL     1       2.649   3.848   1.016  0.00  0.00    -0.275 OA
ATOM     10  H   UNL     1       4.387   1.717  -0.383  0.00  0.00    +0.155 HD
BRANCH   8  11
ATOM     11  C   UNL     1       4.893   4.186   0.368  0.00  0.00    +0.117 C 
ATOM     12  C   UNL     1       4.687   5.555   1.019  0.00  0.00    +0.055 C 
ATOM     13  C   UNL     1       6.016   6.249   1.176  0.00  0.00    -0.004 A 
ATOM     14  C   UNL     1       6.032   7.618   1.387  0.00  0.00    +0.027 A 
ATOM     15  C   UNL     1       7.233   8.286   1.538  0.00  0.00    +0.041 A 
ATOM     16  C   UNL     1       8.425   7.586   1.479  0.00  0.00    +0.023 A 
ATOM     17  C   UNL     1       8.414   6.223   1.268  0.00  0.00    +0.047 A 
ATOM     18  C   UNL     1       7.207   5.548   1.113  0.00  0.00    +0.124 A 
ATOM     19  O   UNL     1       7.238   4.207   0.895  0.00  0.00    -0.491 OA
ATOM     20  C   UNL     1       6.033   3.469   1.103  0.00  0.00    +0.242 C 
ATOM     21 CL   UNL     1       7.245  10.002   1.803  0.00  0.00    -0.084 Cl
ENDBRANCH   8  11
ENDBRANCH   3   7
BRANCH   5  22
ATOM     22  S   UNL     1       1.206  -2.418   0.360  0.00  0.00    +0.100 S 
ATOM     23  O   UNL     1       0.003  -2.902  -0.221  0.00  0.00    -0.146 OA
ATOM     24  O   UNL     1       2.488  -2.870  -0.053  0.00  0.00    -0.146 OA
BRANCH  22  25
ATOM     25  N   UNL     1       1.100  -2.716   1.986  0.00  0.00    -0.118 NA
ATOM     26  C   UNL     1       1.087  -3.934   2.420  0.00  0.00    +0.117 C 
ATOM     27  N   UNL     1       1.160  -5.054   1.635  0.00  0.00    -0.331 N 
ATOM     28  C   UNL     1       1.603  -6.193   2.455  0.00  0.00    +0.103 C 
ATOM     29  C   UNL     1       1.063  -5.883   3.869  0.00  0.00    +0.026 C 
ATOM     30  C   UNL     1       0.994  -4.341   3.874  0.00  0.00    +0.074 C 
ATOM     31  H   UNL     1       0.953  -5.091   0.688  0.00  0.00    +0.147 HD
ENDBRANCH  22  25
ENDBRANCH   5  22
TORSDOF 4
