REMARK  Name = ZINC36290464
REMARK  4 active torsions:
REMARK  status: ('A' for Active; 'I' for Inactive)
REMARK    1  A    between atoms: C_1  and  C_2
REMARK    2  A    between atoms: C_5  and  C_8
REMARK    3  A    between atoms: C_9  and  N_22
REMARK    4  A    between atoms: C_11  and  C_16
REMARK                            x       y       z     vdW  Elec       q    Type
REMARK                         _______ _______ _______ _____ _____    ______ ____
ROOT
ATOM      1  C   UNL     1       0.004  -4.454   0.145  0.00  0.00    +0.112 A 
ATOM      2  C   UNL     1       0.667  -5.293   0.987  0.00  0.00    +0.129 A 
ATOM      3  N   UNL     1       0.463  -6.591   0.533  0.00  0.00    -0.273 N 
ATOM      4  C   UNL     1       0.830  -7.878   0.896  0.00  0.00    +0.082 A 
ATOM      5  C   UNL     1       0.412  -8.933   0.168  0.00  0.00    +0.077 A 
ATOM      6  S   UNL     1      -0.553  -8.145  -1.111  0.00  0.00    -0.057 S 
ATOM      7  C   UNL     1      -0.330  -6.462  -0.581  0.00  0.00    +0.180 A 
ATOM      8  N   UNL     1      -0.604  -5.212  -0.806  0.00  0.00    -0.219 NA
ENDROOT
BRANCH   1  13
ATOM      9  C   UNL     1      -0.215   1.284   0.552  0.00  0.00    +0.044 C 
ATOM     10  C   UNL     1      -0.158  -0.218   0.445  0.00  0.00    -0.050 A 
ATOM     11  C   UNL     1      -0.141  -0.820  -0.800  0.00  0.00    +0.004 A 
ATOM     12  C   UNL     1      -0.088  -2.195  -0.905  0.00  0.00    +0.010 A 
ATOM     13  C   UNL     1      -0.052  -2.978   0.249  0.00  0.00    +0.004 A 
ATOM     14  C   UNL     1      -0.069  -2.365   1.502  0.00  0.00    +0.010 A 
ATOM     15  C   UNL     1      -0.117  -0.989   1.593  0.00  0.00    +0.004 A 
ENDBRANCH   1  13
BRANCH   4  16
ATOM     16  C   UNL     1       1.681  -8.094   2.082  0.00  0.00    +0.088 A 
ATOM     17  C   UNL     1       2.954  -8.649   1.931  0.00  0.00    +0.030 A 
ATOM     18  C   UNL     1       3.739  -8.844   3.051  0.00  0.00    +0.004 A 
ATOM     19  C   UNL     1       3.229  -8.479   4.291  0.00  0.00    +0.020 A 
ATOM     20  C   UNL     1       1.962  -7.935   4.370  0.00  0.00    +0.111 A 
ATOM     21  N   UNL     1       1.233  -7.754   3.286  0.00  0.00    -0.253 NA
ENDBRANCH   4  16
BRANCH   2  22
ATOM     22  N   UNL     1       1.418  -4.918   2.103  0.00  0.00    -0.342 N 
ATOM     23  H   UNL     1       1.582  -3.979   2.284  0.00  0.00    +0.144 HD
ATOM     24  H   UNL     1       1.775  -5.596   2.697  0.00  0.00    +0.144 HD
ENDBRANCH   2  22
TORSDOF 3
