REMARK  Name = ZINC16130447
REMARK  9 active torsions:
REMARK  status: ('A' for Active; 'I' for Inactive)
REMARK    1  A    between atoms: C_1  and  C_2
REMARK    2  A    between atoms: C_5  and  C_8
REMARK    3  A    between atoms: C_12  and  C_13
REMARK    4  A    between atoms: C_13  and  O_15
REMARK    5  A    between atoms: O_15  and  C_16
REMARK    6  A    between atoms: C_16  and  C_17
REMARK    7  A    between atoms: C_23  and  S_30
REMARK    8  A    between atoms: C_27  and  C_29
REMARK    9  A    between atoms: S_30  and  N_33
REMARK                            x       y       z     vdW  Elec       q    Type
REMARK                         _______ _______ _______ _____ _____    ______ ____
ROOT
ATOM      1  C   UNL     1      -2.869   3.010  -1.337  0.00  0.00    +0.258 C 
ATOM      2  O   UNL     1      -2.836   2.987  -2.549  0.00  0.00    -0.271 OA
ATOM      3  N   UNL     1      -1.920   2.372  -0.624  0.00  0.00    -0.265 N 
ATOM      4  C   UNL     1      -1.859   2.331   0.772  0.00  0.00    +0.040 A 
ATOM      5  C   UNL     1      -2.714   2.907   1.713  0.00  0.00    +0.026 A 
ATOM      6  C   UNL     1      -2.474   2.746   3.061  0.00  0.00    +0.030 A 
ATOM      7  C   UNL     1      -1.384   2.011   3.491  0.00  0.00    +0.105 A 
ATOM      8  C   UNL     1      -0.533   1.438   2.566  0.00  0.00    +0.034 A 
ATOM      9  C   UNL     1      -0.767   1.596   1.215  0.00  0.00    -0.022 A 
ATOM     10  C   UNL     1      -0.013   1.086   0.008  0.00  0.00    +0.059 C 
ATOM     11  C   UNL     1      -0.803   1.618  -1.199  0.00  0.00    +0.083 C 
ATOM     12  C   UNL     1      -1.326   0.456  -2.045  0.00  0.00    +0.029 C 
ENDROOT
BRANCH   7  13
ATOM     13  S   UNL     1      -1.081   1.807   5.215  0.00  0.00    +0.056 S 
ATOM     14  O   UNL     1       0.306   1.536   5.354  0.00  0.00    -0.153 OA
ATOM     15  O   UNL     1      -1.714   2.898   5.870  0.00  0.00    -0.153 OA
BRANCH  13  16
ATOM     16  N   UNL     1      -1.882   0.439   5.694  0.00  0.00    -0.204 NA
ATOM     17  H   UNL     1      -2.393  -0.075   5.050  0.00  0.00    +0.144 HD
ATOM     18  H   UNL     1      -1.839   0.151   6.620  0.00  0.00    +0.144 HD
ENDBRANCH  13  16
ENDBRANCH   7  13
BRANCH   1  19
ATOM     19  C   UNL     1      -3.971   3.754  -0.628  0.00  0.00    +0.328 C 
BRANCH  19  20
ATOM     20  O   UNL     1      -4.846   4.343  -1.593  0.00  0.00    -0.451 OA
BRANCH  20  21
ATOM     21  C   UNL     1      -5.894   5.049  -1.120  0.00  0.00    +0.347 C 
ATOM     22  O   UNL     1      -6.059   5.162   0.081  0.00  0.00    -0.244 OA
BRANCH  21  27
ATOM     23  C   UNL     1      -7.942   6.422  -1.743  0.00  0.00    +0.003 A 
ATOM     24  C   UNL     1      -8.647   6.901  -2.833  0.00  0.00    +0.017 A 
ATOM     25  C   UNL     1      -8.212   6.607  -4.082  0.00  0.00    +0.046 A 
ATOM     26  S   UNL     1      -6.793   5.652  -3.805  0.00  0.00    -0.090 S 
ATOM     27  C   UNL     1      -6.802   5.660  -2.021  0.00  0.00    +0.104 A 
BRANCH  23  32
ATOM     28  C   UNL     1      -9.611   7.517   3.657  0.00  0.00    +0.044 C 
ATOM     29  C   UNL     1      -9.174   7.230   2.244  0.00  0.00    -0.050 A 
ATOM     30  C   UNL     1      -9.063   8.266   1.333  0.00  0.00    +0.004 A 
ATOM     31  C   UNL     1      -8.664   8.010   0.038  0.00  0.00    +0.009 A 
ATOM     32  C   UNL     1      -8.371   6.704  -0.353  0.00  0.00    -0.017 A 
ATOM     33  C   UNL     1      -8.489   5.663   0.568  0.00  0.00    +0.009 A 
ATOM     34  C   UNL     1      -8.884   5.933   1.862  0.00  0.00    +0.004 A 
ENDBRANCH  23  32
ENDBRANCH  21  27
ENDBRANCH  20  21
ENDBRANCH  19  20
ENDBRANCH   1  19
TORSDOF 7
