REMARK  Name = ZINC35346990
REMARK  5 active torsions:
REMARK  status: ('A' for Active; 'I' for Inactive)
REMARK    1  A    between atoms: C_1  and  C_2
REMARK    2  A    between atoms: C_6  and  N_20
REMARK    3  A    between atoms: C_7  and  S_8
REMARK    4  A    between atoms: S_8  and  N_11
REMARK    5  A    between atoms: N_11  and  C_12
REMARK                            x       y       z     vdW  Elec       q    Type
REMARK                         _______ _______ _______ _____ _____    ______ ____
ROOT
ATOM      1  S   UNL     1       1.475  -0.188   2.414  0.00  0.00    +0.074 S 
ATOM      2  O   UNL     1       1.957  -1.240   3.238  0.00  0.00    -0.150 OA
ATOM      3  O   UNL     1       2.341   0.761   1.806  0.00  0.00    -0.150 OA
ENDROOT
BRANCH   1  10
ATOM      4  C   UNL     1       0.763   1.185  -0.184  0.00  0.00    +0.046 C 
ATOM      5  C   UNL     1       0.286  -0.237  -0.042  0.00  0.00    -0.022 A 
ATOM      6  C   UNL     1      -0.425  -0.833  -1.067  0.00  0.00    +0.005 A 
ATOM      7  C   UNL     1      -0.865  -2.138  -0.941  0.00  0.00    +0.002 A 
ATOM      8  C   UNL     1      -0.596  -2.850   0.211  0.00  0.00    +0.025 A 
ATOM      9  C   UNL     1       0.118  -2.255   1.244  0.00  0.00    +0.052 A 
ATOM     10  C   UNL     1       0.563  -0.946   1.111  0.00  0.00    +0.132 A 
BRANCH   9  11
ATOM     11  N   UNL     1       0.392  -2.973   2.410  0.00  0.00    -0.356 N 
ATOM     12  H   UNL     1       0.480  -3.938   2.376  0.00  0.00    +0.142 HD
ATOM     13  H   UNL     1       0.495  -2.506   3.254  0.00  0.00    +0.142 HD
ENDBRANCH   9  11
ENDBRANCH   1  10
BRANCH   1  14
ATOM     14  N   UNL     1       0.397   0.674   3.329  0.00  0.00    -0.213 N 
ATOM     15  H   UNL     1       0.478   1.638   3.396  0.00  0.00    +0.174 HD
BRANCH  14  16
ATOM     16  C   UNL     1      -0.632   0.011   4.007  0.00  0.00    +0.083 A 
ATOM     17  C   UNL     1      -0.392  -0.560   5.249  0.00  0.00    +0.028 A 
ATOM     18  C   UNL     1      -1.409  -1.214   5.916  0.00  0.00    +0.017 A 
ATOM     19  C   UNL     1      -2.668  -1.301   5.348  0.00  0.00    +0.021 A 
ATOM     20  C   UNL     1      -2.912  -0.734   4.110  0.00  0.00    +0.055 A 
ATOM     21  C   UNL     1      -1.899  -0.072   3.440  0.00  0.00    +0.147 A 
ATOM     22  F   UNL     1      -2.139   0.487   2.234  0.00  0.00    -0.203 F 
ATOM     23 BR   UNL     1      -4.057  -2.198   6.266  0.00  0.00    -0.050 Br
ENDBRANCH  14  16
ENDBRANCH   1  14
TORSDOF 4
