REMARK  Name = ZINC02226158
REMARK  11 active torsions:
REMARK  status: ('A' for Active; 'I' for Inactive)
REMARK    1  A    between atoms: C_1  and  C_2
REMARK    2  A    between atoms: C_2  and  O_3
REMARK    3  A    between atoms: O_3  and  C_4
REMARK    4  A    between atoms: C_4  and  C_6
REMARK    5  A    between atoms: C_7  and  N_17
REMARK    6  A    between atoms: C_18  and  C_20
REMARK    7  A    between atoms: C_20  and  C_21
REMARK    8  A    between atoms: C_21  and  N_63
REMARK    9  A    between atoms: C_23  and  C_32
REMARK   10  A    between atoms: C_28  and  C_30
REMARK   11  A    between atoms: C_28  and  C_31
REMARK                            x       y       z     vdW  Elec       q    Type
REMARK                         _______ _______ _______ _____ _____    ______ ____
ROOT
ATOM      1  N   UNL     1       2.400   7.883  -1.433  0.00  0.00    -0.283 N 
ATOM      2  C   UNL     1       1.338   7.172  -1.863  0.00  0.00    +0.215 C 
ATOM      3  O   UNL     1       1.184   6.970  -3.049  0.00  0.00    -0.276 OA
ATOM      4  H   UNL     1       2.473   8.127  -0.497  0.00  0.00    +0.155 HD
ENDROOT
BRANCH   1   6
ATOM      5  C   UNL     1       3.753   9.557  -2.657  0.00  0.00    +0.147 A 
ATOM      6  C   UNL     1       3.390   8.266  -2.332  0.00  0.00    +0.073 A 
ATOM      7  C   UNL     1       4.255   7.378  -3.112  0.00  0.00    +0.023 A 
ATOM      8  C   UNL     1       4.360   5.988  -3.220  0.00  0.00    +0.027 A 
ATOM      9  C   UNL     1       5.286   5.441  -4.062  0.00  0.00    +0.019 A 
ATOM     10  C   UNL     1       6.121   6.255  -4.818  0.00  0.00    +0.017 A 
ATOM     11  C   UNL     1       6.031   7.626  -4.732  0.00  0.00    +0.027 A 
ATOM     12  C   UNL     1       5.094   8.207  -3.879  0.00  0.00    +0.049 A 
ATOM     13  N   UNL     1       4.779   9.514  -3.589  0.00  0.00    -0.348 N 
ATOM     14  H   UNL     1       5.211  10.291  -3.978  0.00  0.00    +0.166 HD
ATOM     15 BR   UNL     1       5.432   3.560  -4.202  0.00  0.00    -0.050 Br
BRANCH   5  16
ATOM     16  C   UNL     1       3.172  10.736  -2.124  0.00  0.00    +0.358 C 
ATOM     17  O   UNL     1       2.179  10.662  -1.425  0.00  0.00    -0.243 OA
BRANCH  16  18
ATOM     18  O   UNL     1       3.720  11.939  -2.393  0.00  0.00    -0.460 OA
BRANCH  18  20
ATOM     19  C   UNL     1       3.840  14.348  -2.236  0.00  0.00    +0.048 C 
ATOM     20  C   UNL     1       3.082  13.084  -1.824  0.00  0.00    +0.229 C 
ENDBRANCH  18  20
ENDBRANCH  16  18
ENDBRANCH   5  16
ENDBRANCH   1   6
BRANCH   2  21
ATOM     21  C   UNL     1       0.343   6.629  -0.870  0.00  0.00    +0.077 C 
BRANCH  21  22
ATOM     22  C   UNL     1      -0.756   5.867  -1.614  0.00  0.00    -0.069 C 
BRANCH  22  33
ATOM     23  C   UNL     1      -1.156   4.348   0.268  0.00  0.00    -0.072 C 
ATOM     24  C   UNL     1      -2.248   3.265   0.450  0.00  0.00    -0.048 C 
ATOM     25  C   UNL     1      -3.542   3.961  -0.053  0.00  0.00    -0.011 C 
ATOM     26  C   UNL     1      -2.948   4.785  -1.231  0.00  0.00    -0.068 C 
ATOM     27  C   UNL     1      -2.661   3.812  -2.362  0.00  0.00    -0.009 C 
ATOM     28  C   UNL     1      -1.997   2.506  -1.985  0.00  0.00    -0.036 C 
ATOM     29  C   UNL     1      -1.952   2.123  -0.521  0.00  0.00    +0.011 C 
ATOM     30  C   UNL     1      -2.756   1.376  -2.728  0.00  0.00    +0.011 C 
ATOM     31  C   UNL     1      -0.561   2.491  -2.547  0.00  0.00    +0.011 C 
ATOM     32  C   UNL     1      -2.364   2.794   1.907  0.00  0.00    +0.009 C 
ATOM     33  N   UNL     1      -1.744   5.368  -0.599  0.00  0.00    +0.382 N 
ATOM     34  H   UNL     1      -2.033   6.166  -0.020  0.00  0.00    -0.081 HD
ENDBRANCH  22  33
ENDBRANCH  21  22
ENDBRANCH   2  21
TORSDOF 7
