REMARK  Name = ZINC02848209
REMARK  7 active torsions:
REMARK  status: ('A' for Active; 'I' for Inactive)
REMARK    1  A    between atoms: C_1  and  C_2
REMARK    2  A    between atoms: C_2  and  C_4
REMARK    3  A    between atoms: C_2  and  O_27
REMARK    4  A    between atoms: C_6  and  C_9
REMARK    5  A    between atoms: C_12  and  N_15
REMARK    6  A    between atoms: C_16  and  C_18
REMARK    7  A    between atoms: O_27  and  C_28
REMARK                            x       y       z     vdW  Elec       q    Type
REMARK                         _______ _______ _______ _____ _____    ______ ____
ROOT
ATOM      1  C   UNL     1       3.864  -1.946   2.851  0.00  0.00    +0.023 A 
ATOM      2  C   UNL     1       4.901  -2.171   1.946  0.00  0.00    +0.013 A 
ATOM      3  C   UNL     1       6.073  -2.756   2.374  0.00  0.00    +0.024 A 
ATOM      4  C   UNL     1       6.222  -3.122   3.707  0.00  0.00    +0.034 A 
ATOM      5  C   UNL     1       5.190  -2.899   4.611  0.00  0.00    +0.024 A 
ATOM      6  C   UNL     1       4.018  -2.309   4.188  0.00  0.00    +0.013 A 
ENDROOT
BRANCH   1   9
ATOM      7  C   UNL     1       1.137  -0.410   1.074  0.00  0.00    +0.268 A 
ATOM      8  N   UNL     1       2.332  -0.923   1.135  0.00  0.00    -0.188 NA
ATOM      9  C   UNL     1       2.602  -1.316   2.393  0.00  0.00    +0.202 A 
ATOM     10  N   UNL     1       1.562  -1.050   3.146  0.00  0.00    -0.056 NA
ATOM     11  O   UNL     1       0.594  -0.451   2.298  0.00  0.00    -0.334 OA
BRANCH   7  13
ATOM     12  C   UNL     1       0.481   1.672  -0.103  0.00  0.00    +0.062 C 
ATOM     13  C   UNL     1       0.477   0.143  -0.163  0.00  0.00    +0.258 C 
BRANCH  13  14
ATOM     14  O   UNL     1      -0.871  -0.328  -0.235  0.00  0.00    -0.478 OA
BRANCH  14  15
ATOM     15  C   UNL     1      -1.439  -0.384  -1.468  0.00  0.00    +0.140 A 
ATOM     16  C   UNL     1      -0.755   0.105  -2.572  0.00  0.00    +0.048 A 
ATOM     17  C   UNL     1      -1.335   0.047  -3.824  0.00  0.00    +0.023 A 
ATOM     18  C   UNL     1      -2.597  -0.499  -3.979  0.00  0.00    +0.043 A 
ATOM     19  C   UNL     1      -3.282  -0.987  -2.881  0.00  0.00    +0.043 A 
ATOM     20  C   UNL     1      -2.703  -0.936  -1.626  0.00  0.00    +0.084 A 
ATOM     21 CL   UNL     1      -3.559  -1.555  -0.249  0.00  0.00    -0.080 Cl
ATOM     22 CL   UNL     1      -3.323  -0.570  -5.555  0.00  0.00    -0.083 Cl
ENDBRANCH  14  15
ENDBRANCH  13  14
ENDBRANCH   7  13
ENDBRANCH   1   9
BRANCH   4  23
ATOM     23  N   UNL     1       7.411  -3.714   4.138  0.00  0.00    -0.282 N 
ATOM     24  C   UNL     1       8.586  -3.341   3.594  0.00  0.00    +0.248 C 
ATOM     25  O   UNL     1       8.623  -2.422   2.798  0.00  0.00    -0.270 OA
ATOM     26  H   UNL     1       7.391  -4.394   4.830  0.00  0.00    +0.155 HD
BRANCH  24  27
ATOM     27  C   UNL     1       9.828  -4.048   3.962  0.00  0.00    +0.041 A 
ATOM     28  C   UNL     1       9.786  -5.109   4.872  0.00  0.00    +0.017 A 
ATOM     29  C   UNL     1      10.946  -5.768   5.215  0.00  0.00    +0.050 A 
ATOM     30  C   UNL     1      12.159  -5.383   4.660  0.00  0.00    +0.166 A 
ATOM     31  C   UNL     1      12.207  -4.325   3.751  0.00  0.00    +0.167 A 
ATOM     32  C   UNL     1      11.047  -3.663   3.399  0.00  0.00    +0.062 A 
ATOM     33  O   UNL     1      13.503  -4.148   3.357  0.00  0.00    -0.453 OA
ATOM     34  C   UNL     1      14.300  -4.835   4.340  0.00  0.00    +0.466 C 
ATOM     35  O   UNL     1      13.423  -5.865   4.832  0.00  0.00    -0.453 OA
ENDBRANCH  24  27
ENDBRANCH   4  23
TORSDOF 6
