REMARK  Name = ZINC35337832
REMARK  7 active torsions:
REMARK  status: ('A' for Active; 'I' for Inactive)
REMARK    1  A    between atoms: C_1  and  C_2
REMARK    2  A    between atoms: C_3  and  C_33
REMARK    3  A    between atoms: C_4  and  C_13
REMARK    4  A    between atoms: C_16  and  N_19
REMARK    5  A    between atoms: N_19  and  S_20
REMARK    6  A    between atoms: S_20  and  C_23
REMARK    7  A    between atoms: N_35  and  C_36
REMARK                            x       y       z     vdW  Elec       q    Type
REMARK                         _______ _______ _______ _____ _____    ______ ____
ROOT
ATOM      1  C   UNL     1      -1.266  -2.654   1.492  0.00  0.00    -0.022 A 
ATOM      2  C   UNL     1      -0.154  -2.637   2.313  0.00  0.00    +0.008 A 
ATOM      3  C   UNL     1      -0.256  -3.053   3.626  0.00  0.00    +0.027 A 
ATOM      4  C   UNL     1      -1.479  -3.489   4.122  0.00  0.00    +0.074 A 
ATOM      5  C   UNL     1      -2.594  -3.505   3.294  0.00  0.00    +0.027 A 
ATOM      6  C   UNL     1      -2.486  -3.082   1.984  0.00  0.00    +0.008 A 
ENDROOT
BRANCH   1  10
ATOM      7  C   UNL     1      -0.018   1.503   0.010  0.00  0.00    +0.064 C 
ATOM      8  C   UNL     1       0.002  -0.004   0.002  0.00  0.00    +0.025 C 
ATOM      9  C   UNL     1      -1.173  -0.692   0.004  0.00  0.00    +0.058 C 
ATOM     10  C   UNL     1      -1.151  -2.199   0.060  0.00  0.00    +0.142 C 
ATOM     11  N   UNL     1       0.124  -2.673  -0.512  0.00  0.00    -0.300 N 
ATOM     12  C   UNL     1       0.103  -3.852  -1.357  0.00  0.00    +0.109 C 
ATOM     13  C   UNL     1       1.327  -4.734  -1.308  0.00  0.00    +0.030 C 
ATOM     14  C   UNL     1       2.605  -3.956  -1.632  0.00  0.00    +0.078 C 
ATOM     15  S   UNL     1       2.835  -2.719  -0.315  0.00  0.00    -0.092 S 
ATOM     16  C   UNL     1       1.250  -1.940  -0.263  0.00  0.00    +0.135 C 
ATOM     17  N   UNL     1       1.169  -0.645  -0.013  0.00  0.00    -0.341 N 
ATOM     18  H   UNL     1       1.982  -0.149   0.170  0.00  0.00    +0.167 HD
BRANCH   9  19
ATOM     19  C   UNL     1      -2.399  -0.002  -0.046  0.00  0.00    +0.244 C 
ATOM     20  O   UNL     1      -2.411   1.216  -0.092  0.00  0.00    -0.270 OA
ATOM     21  N   UNL     1      -3.559  -0.688  -0.044  0.00  0.00    -0.315 N 
ATOM     22  C   UNL     1      -4.835   0.030  -0.097  0.00  0.00    +0.128 C 
ATOM     23  H   UNL     1      -3.549  -1.657  -0.008  0.00  0.00    +0.149 HD
ENDBRANCH   9  19
ENDBRANCH   1  10
BRANCH   4  24
ATOM     24  N   UNL     1      -1.586  -3.911   5.449  0.00  0.00    -0.098 NA
BRANCH  24  25
ATOM     25  S   UNL     1      -3.044  -4.430   6.037  0.00  0.00    +0.094 S 
ATOM     26  O   UNL     1      -3.907  -3.301   6.038  0.00  0.00    -0.148 OA
ATOM     27  O   UNL     1      -3.359  -5.629   5.343  0.00  0.00    -0.148 OA
BRANCH  25  28
ATOM     28  C   UNL     1      -2.796  -4.876   7.724  0.00  0.00    +0.136 A 
ATOM     29  C   UNL     1      -3.420  -4.179   8.713  0.00  0.00    +0.031 A 
ATOM     30  C   UNL     1      -3.238  -4.515  10.053  0.00  0.00    +0.003 A 
ATOM     31  C   UNL     1      -2.429  -5.551  10.411  0.00  0.00    +0.010 A 
ATOM     32  C   UNL     1      -1.771  -6.292   9.416  0.00  0.00    +0.002 A 
ATOM     33  C   UNL     1      -1.958  -5.955   8.053  0.00  0.00    +0.098 A 
ATOM     34  N   UNL     1      -1.337  -6.661   7.102  0.00  0.00    -0.253 NA
ATOM     35  C   UNL     1      -0.554  -7.668   7.403  0.00  0.00    +0.111 A 
ATOM     36  C   UNL     1      -0.331  -8.054   8.723  0.00  0.00    +0.020 A 
ATOM     37  C   UNL     1      -0.926  -7.369   9.744  0.00  0.00    +0.011 A 
ENDBRANCH  25  28
ENDBRANCH  24  25
ENDBRANCH   4  24
TORSDOF 5
