REMARK  Name = ZINC22860147
REMARK  8 active torsions:
REMARK  status: ('A' for Active; 'I' for Inactive)
REMARK    1  A    between atoms: C_1  and  C_2
REMARK    2  A    between atoms: C_2  and  C_23
REMARK    3  A    between atoms: N_3  and  N_4
REMARK    4  A    between atoms: C_5  and  C_7
REMARK    5  A    between atoms: C_9  and  C_20
REMARK    6  A    between atoms: C_13  and  C_17
REMARK    7  A    between atoms: N_15  and  C_16
REMARK    8  A    between atoms: C_23  and  C_24
REMARK                            x       y       z     vdW  Elec       q    Type
REMARK                         _______ _______ _______ _____ _____    ______ ____
ROOT
ATOM      1  N   UNL     1      -0.679   3.608  -4.805  0.00  0.00    -0.203 N 
ATOM      2  C   UNL     1      -1.006   2.760  -3.809  0.00  0.00    +0.264 C 
ATOM      3  O   UNL     1      -0.553   2.931  -2.693  0.00  0.00    -0.268 OA
ATOM      4  H   UNL     1      -1.088   3.454  -5.814  0.00  0.00    +0.178 HD
ENDROOT
BRANCH   2   5
ATOM      5  C   UNL     1      -1.913   1.624  -4.072  0.00  0.00    +0.053 A 
ATOM      6  C   UNL     1      -2.352   1.338  -5.364  0.00  0.00    +0.037 A 
ATOM      7  C   UNL     1      -3.202   0.263  -5.571  0.00  0.00    +0.047 A 
ATOM      8  N   UNL     1      -3.608  -0.497  -4.578  0.00  0.00    -0.232 NA
ATOM      9  C   UNL     1      -3.228  -0.280  -3.327  0.00  0.00    +0.159 A 
ATOM     10  C   UNL     1      -2.364   0.791  -3.024  0.00  0.00    +0.054 A 
ATOM     11  C   UNL     1      -2.143   0.766  -1.631  0.00  0.00    +0.076 A 
ATOM     12  N   UNL     1      -2.806  -0.233  -1.123  0.00  0.00    -0.174 NA
ATOM     13  N   UNL     1      -3.498  -0.906  -2.138  0.00  0.00    -0.249 N 
ATOM     14  C   UNL     1      -4.357  -2.079  -1.960  0.00  0.00    +0.174 C 
BRANCH  11  15
ATOM     15  C   UNL     1      -1.278   1.730  -0.860  0.00  0.00    +0.040 C 
ATOM     16  C   UNL     1       0.196   1.365  -0.674  0.00  0.00    +0.010 C 
ATOM     17  C   UNL     1      -0.767   1.281   0.512  0.00  0.00    +0.010 C 
ENDBRANCH  11  15
BRANCH   7  18
ATOM     18  C   UNL     1      -3.674  -0.042  -6.969  0.00  0.00    +0.038 C 
ATOM     19  C   UNL     1      -3.507   1.053  -8.025  0.00  0.00    +0.010 C 
ATOM     20  C   UNL     1      -4.899   0.718  -7.483  0.00  0.00    +0.010 C 
ENDBRANCH   7  18
ENDBRANCH   2   5
BRANCH   1  23
ATOM     21  C   UNL     1       1.455   6.614  -5.257  0.00  0.00    +0.062 C 
ATOM     22  C   UNL     1       0.423   5.538  -5.477  0.00  0.00    +0.034 C 
ATOM     23  N   UNL     1       0.181   4.685  -4.554  0.00  0.00    -0.189 NA
BRANCH  22  24
ATOM     24  C   UNL     1      -0.325   5.468  -6.784  0.00  0.00    +0.059 C 
BRANCH  24  25
ATOM     25  C   UNL     1      -1.596   6.313  -6.691  0.00  0.00    -0.022 C 
ATOM     26  C   UNL     1      -2.438   5.839  -5.504  0.00  0.00    +0.011 C 
ATOM     27  C   UNL     1      -3.710   6.684  -5.411  0.00  0.00    -0.009 C 
ATOM     28  C   UNL     1      -3.332   8.154  -5.213  0.00  0.00    +0.007 C 
ATOM     29  C   UNL     1      -2.490   8.628  -6.399  0.00  0.00    -0.009 C 
ATOM     30  C   UNL     1      -1.219   7.783  -6.493  0.00  0.00    +0.011 C 
ATOM     31  C   UNL     1      -3.298   8.478  -7.690  0.00  0.00    +0.021 C 
ATOM     32  C   UNL     1      -3.676   7.009  -7.888  0.00  0.00    +0.027 C 
ATOM     33  C   UNL     1      -4.518   6.535  -6.701  0.00  0.00    +0.021 C 
ATOM     34  C   UNL     1      -2.404   6.163  -7.981  0.00  0.00    +0.025 C 
ATOM     35 BR   UNL     1      -4.714   6.816  -9.546  0.00  0.00    -0.084 Br
ENDBRANCH  24  25
ENDBRANCH  22  24
ENDBRANCH   1  23
TORSDOF 6
