REMARK  Name = ZINC13684354
REMARK  6 active torsions:
REMARK  status: ('A' for Active; 'I' for Inactive)
REMARK    1  A    between atoms: C_3  and  O_23
REMARK    2  A    between atoms: C_6  and  N_7
REMARK    3  A    between atoms: N_7  and  C_8
REMARK    4  A    between atoms: C_8  and  N_9
REMARK    5  A    between atoms: N_9  and  N_10
REMARK    6  A    between atoms: O_23  and  C_24
REMARK                            x       y       z     vdW  Elec       q    Type
REMARK                         _______ _______ _______ _____ _____    ______ ____
ROOT
ATOM      1  N   UNL     1      -2.345  -2.746  -0.193  0.00  0.00    -0.218 N 
ATOM      2  H   UNL     1      -2.333  -3.713  -0.271  0.00  0.00    +0.176 HD
ENDROOT
BRANCH   1   3
ATOM      3  N   UNL     1      -3.565  -2.059  -0.177  0.00  0.00    -0.181 NA
ATOM      4  C   UNL     1      -4.694  -2.723  -0.268  0.00  0.00    +0.092 A 
ATOM      5  C   UNL     1      -4.717  -4.194  -0.382  0.00  0.00    +0.047 A 
ATOM      6  C   UNL     1      -5.879  -4.841  -0.213  0.00  0.00    +0.085 A 
ATOM      7  N   UNL     1      -7.046  -4.178   0.068  0.00  0.00    -0.360 N 
ATOM      8  C   UNL     1      -7.161  -2.806  -0.091  0.00  0.00    +0.050 A 
ATOM      9  C   UNL     1      -6.004  -2.030  -0.254  0.00  0.00    +0.025 A 
ATOM     10  C   UNL     1      -6.100  -0.652  -0.405  0.00  0.00    +0.013 A 
ATOM     11  C   UNL     1      -7.343  -0.051  -0.389  0.00  0.00    +0.021 A 
ATOM     12  C   UNL     1      -8.487  -0.816  -0.224  0.00  0.00    +0.043 A 
ATOM     13  C   UNL     1      -8.402  -2.185  -0.083  0.00  0.00    +0.046 A 
ATOM     14 CL   UNL     1     -10.042  -0.044  -0.206  0.00  0.00    -0.083 Cl
ATOM     15  H   UNL     1      -7.811  -4.682   0.386  0.00  0.00    +0.165 HD
ENDBRANCH   1   3
BRANCH   1  16
ATOM     16  C   UNL     1      -1.186  -2.064  -0.099  0.00  0.00    +0.154 C 
ATOM     17  S   UNL     1       0.306  -2.905  -0.118  0.00  0.00    -0.017 S 
BRANCH  16  18
ATOM     18  N   UNL     1      -1.201  -0.721   0.010  0.00  0.00    -0.296 N 
ATOM     19  H   UNL     1      -2.046  -0.250   0.083  0.00  0.00    +0.154 HD
BRANCH  18  25
ATOM     20  C   UNL     1       0.135   1.140  -0.756  0.00  0.00    +0.027 A 
ATOM     21  C   UNL     1       1.322   1.845  -0.748  0.00  0.00    +0.047 A 
ATOM     22  C   UNL     1       2.382   1.410   0.034  0.00  0.00    +0.127 A 
ATOM     23  C   UNL     1       2.251   0.266   0.808  0.00  0.00    +0.047 A 
ATOM     24  C   UNL     1       1.065  -0.440   0.800  0.00  0.00    +0.027 A 
ATOM     25  C   UNL     1       0.003  -0.005   0.018  0.00  0.00    +0.033 A 
BRANCH  22  26
ATOM     26  O   UNL     1       3.551   2.105   0.042  0.00  0.00    -0.434 OA
BRANCH  26  27
ATOM     27  C   UNL     1       4.601   1.601   0.871  0.00  0.00    +0.541 C 
ATOM     28  F   UNL     1       4.171   1.572   2.202  0.00  0.00    -0.166 F 
ATOM     29  F   UNL     1       4.936   0.306   0.461  0.00  0.00    -0.166 F 
ENDBRANCH  26  27
ENDBRANCH  22  26
ENDBRANCH  18  25
ENDBRANCH  16  18
ENDBRANCH   1  16
TORSDOF 6
