REMARK  Name = ZINC32962272
REMARK  9 active torsions:
REMARK  status: ('A' for Active; 'I' for Inactive)
REMARK    1  A    between atoms: C_1  and  C_2
REMARK    2  A    between atoms: C_7  and  C_8
REMARK    3  A    between atoms: N_11  and  C_14
REMARK    4  A    between atoms: C_17  and  N_23
REMARK    5  A    between atoms: C_19  and  C_20
REMARK    6  A    between atoms: N_23  and  S_24
REMARK    7  A    between atoms: S_24  and  C_27
REMARK    8  A    between atoms: C_30  and  C_33
REMARK    9  A    between atoms: C_33  and  C_35
REMARK                            x       y       z     vdW  Elec       q    Type
REMARK                         _______ _______ _______ _____ _____    ______ ____
ROOT
ATOM      1  C   UNL     1       3.579   3.778  -0.028  0.00  0.00    +0.044 A 
ATOM      2  C   UNL     1       3.396   2.694  -0.877  0.00  0.00    +0.026 A 
ATOM      3  C   UNL     1       2.207   1.995  -0.862  0.00  0.00    +0.026 A 
ATOM      4  C   UNL     1       1.183   2.368   0.004  0.00  0.00    +0.049 A 
ATOM      5  C   UNL     1       1.347   3.449   0.852  0.00  0.00    +0.041 A 
ATOM      6  C   UNL     1       2.551   4.160   0.847  0.00  0.00    +0.086 A 
ENDROOT
BRANCH   1  10
ATOM      7  C   UNL     1       7.330   5.444  -0.505  0.00  0.00    -0.041 C 
ATOM      8  C   UNL     1       7.197   4.364   0.233  0.00  0.00    -0.004 C 
ATOM      9  C   UNL     1       5.895   3.630   0.382  0.00  0.00    +0.132 C 
ATOM     10  N   UNL     1       4.779   4.482  -0.045  0.00  0.00    -0.325 N 
ATOM     11  C   UNL     1       5.045   5.040  -1.381  0.00  0.00    +0.110 C 
ATOM     12  C   UNL     1       6.186   6.053  -1.267  0.00  0.00    +0.054 C 
BRANCH   7  19
ATOM     13  C   UNL     1       8.316   6.991   1.732  0.00  0.00    +0.044 C 
ATOM     14  C   UNL     1       9.145   6.834   0.483  0.00  0.00    -0.043 A 
ATOM     15  C   UNL     1      10.387   7.430   0.399  0.00  0.00    +0.004 A 
ATOM     16  C   UNL     1      11.149   7.287  -0.747  0.00  0.00    +0.000 A 
ATOM     17  C   UNL     1      10.674   6.545  -1.813  0.00  0.00    +0.001 A 
ATOM     18  C   UNL     1       9.436   5.940  -1.739  0.00  0.00    +0.008 A 
ATOM     19  C   UNL     1       8.659   6.085  -0.589  0.00  0.00    -0.019 A 
ENDBRANCH   7  19
ENDBRANCH   1  10
BRANCH   6  20
ATOM     20  C   UNL     1       2.736   5.308   1.751  0.00  0.00    +0.388 C 
ATOM     21  O   UNL     1       3.782   5.927   1.741  0.00  0.00    -0.241 OA
ATOM     22  O   UNL     1       1.746   5.671   2.590  0.00  0.00    -0.241 OA
ENDBRANCH   6  20
BRANCH   4  23
ATOM     23  N   UNL     1      -0.020   1.652   0.011  0.00  0.00    -0.216 N 
ATOM     24  H   UNL     1      -0.980   2.189   0.023  0.00  0.00    +0.174 HD
BRANCH  23  25
ATOM     25  S   UNL     1       0.002  -0.004   0.002  0.00  0.00    +0.072 S 
ATOM     26  O   UNL     1      -1.353  -0.429   0.040  0.00  0.00    -0.150 OA
ATOM     27  O   UNL     1       0.893  -0.392  -1.034  0.00  0.00    -0.150 OA
BRANCH  25  28
ATOM     28  C   UNL     1       0.735  -0.523   1.518  0.00  0.00    +0.109 A 
ATOM     29  C   UNL     1       2.104  -0.714   1.591  0.00  0.00    +0.029 A 
ATOM     30  C   UNL     1       2.686  -1.116   2.775  0.00  0.00    +0.013 A 
ATOM     31  C   UNL     1       1.887  -1.341   3.901  0.00  0.00    +0.017 A 
ATOM     32  C   UNL     1       0.504  -1.151   3.818  0.00  0.00    +0.013 A 
ATOM     33  C   UNL     1      -0.062  -0.744   2.628  0.00  0.00    +0.029 A 
BRANCH  31  34
ATOM     34  C   UNL     1       2.499  -1.774   5.167  0.00  0.00    +0.160 C 
ATOM     35  O   UNL     1       1.804  -1.967   6.141  0.00  0.00    -0.292 OA
ATOM     36  C   UNL     1       3.990  -1.977   5.252  0.00  0.00    +0.091 C 
ENDBRANCH  31  34
ENDBRANCH  25  28
ENDBRANCH  23  25
ENDBRANCH   4  23
TORSDOF 7
