REMARK  Name = ZINC31045561
REMARK  5 active torsions:
REMARK  status: ('A' for Active; 'I' for Inactive)
REMARK    1  A    between atoms: C_6  and  C_7
REMARK    2  A    between atoms: C_9  and  C_12
REMARK    3  A    between atoms: C_12  and  N_13
REMARK    4  A    between atoms: C_17  and  C_20
REMARK    5  A    between atoms: N_22  and  C_23
REMARK                            x       y       z     vdW  Elec       q    Type
REMARK                         _______ _______ _______ _____ _____    ______ ____
ROOT
ATOM      1  N   UNL     1      -0.698   1.602  -1.182  0.00  0.00    +0.386 N 
ATOM      2  C   UNL     1      -2.072   1.087  -1.241  0.00  0.00    -0.078 C 
ATOM      3  C   UNL     1      -2.854   1.575  -0.019  0.00  0.00    -0.018 C 
ATOM      4  C   UNL     1      -2.159   1.085   1.254  0.00  0.00    +0.009 C 
ATOM      5  C   UNL     1      -0.716   1.595   1.268  0.00  0.00    +0.059 C 
ATOM      6  C   UNL     1       0.004   1.107   0.009  0.00  0.00    -0.065 C 
ATOM      7  H   UNL     1      -0.754   2.698  -1.106  0.00  0.00    -0.081 HD
ENDROOT
BRANCH   5   8
ATOM      8  C   UNL     1      -0.008   1.068   2.489  0.00  0.00    +0.219 C 
ATOM      9  O   UNL     1       0.977   0.370   2.365  0.00  0.00    -0.275 OA
ATOM     10  N   UNL     1      -0.468   1.372   3.719  0.00  0.00    -0.283 N 
ATOM     11  H   UNL     1      -1.316   2.063   3.833  0.00  0.00    +0.155 HD
BRANCH  10  12
ATOM     12  C   UNL     1       0.133   0.807   4.851  0.00  0.00    +0.069 A 
ATOM     13  C   UNL     1       1.500   0.566   4.865  0.00  0.00    +0.027 A 
ATOM     14  C   UNL     1       2.092   0.014   5.985  0.00  0.00    +0.017 A 
ATOM     15  C   UNL     1       1.322  -0.309   7.088  0.00  0.00    +0.021 A 
ATOM     16  C   UNL     1      -0.042  -0.075   7.077  0.00  0.00    +0.055 A 
ATOM     17  C   UNL     1      -0.639   0.482   5.960  0.00  0.00    +0.146 A 
ATOM     18  F   UNL     1      -1.970   0.710   5.949  0.00  0.00    -0.204 F 
ATOM     19 BR   UNL     1       2.135  -1.071   8.616  0.00  0.00    -0.050 Br
ENDBRANCH  10  12
ENDBRANCH   5   8
BRANCH   1  20
ATOM     20  C   UNL     1       0.042   1.270  -2.406  0.00  0.00    +0.022 C 
BRANCH  20  23
ATOM     21  C   UNL     1      -1.048   3.425  -5.068  0.00  0.00    +0.202 A 
ATOM     22  N   UNL     1      -0.243   3.189  -4.008  0.00  0.00    -0.193 NA
ATOM     23  C   UNL     1      -0.570   1.997  -3.576  0.00  0.00    +0.211 A 
ATOM     24  O   UNL     1      -1.552   1.548  -4.364  0.00  0.00    -0.340 OA
ATOM     25  N   UNL     1      -1.814   2.375  -5.212  0.00  0.00    -0.056 NA
BRANCH  21  31
ATOM     26  C   UNL     1      -0.188   5.697  -5.633  0.00  0.00    +0.013 A 
ATOM     27  C   UNL     1      -0.201   6.829  -6.420  0.00  0.00    +0.021 A 
ATOM     28  C   UNL     1      -1.091   6.931  -7.476  0.00  0.00    +0.041 A 
ATOM     29  C   UNL     1      -1.968   5.894  -7.750  0.00  0.00    +0.021 A 
ATOM     30  C   UNL     1      -1.958   4.755  -6.972  0.00  0.00    +0.013 A 
ATOM     31  C   UNL     1      -1.063   4.649  -5.908  0.00  0.00    +0.023 A 
ATOM     32 CL   UNL     1      -1.109   8.361  -8.459  0.00  0.00    -0.084 Cl
ENDBRANCH  21  31
ENDBRANCH  20  23
ENDBRANCH   1  20
TORSDOF 5
