REMARK  Name = ZINC20744557
REMARK  3 active torsions:
REMARK  status: ('A' for Active; 'I' for Inactive)
REMARK    1  A    between atoms: C_1  and  C_2
REMARK    2  A    between atoms: C_18  and  O_30
REMARK    3  A    between atoms: C_20  and  C_22
REMARK                            x       y       z     vdW  Elec       q    Type
REMARK                         _______ _______ _______ _____ _____    ______ ____
ROOT
ATOM      1  C   UNL     1      -0.018   1.503   0.010  0.00  0.00    +0.068 C 
ATOM      2  C   UNL     1       0.002  -0.004   0.002  0.00  0.00    +0.066 A 
ATOM      3  C   UNL     1       0.008  -0.806  -1.124  0.00  0.00    +0.027 A 
ATOM      4  C   UNL     1       0.032  -2.129  -0.707  0.00  0.00    +0.165 A 
ATOM      5  N   UNL     1       0.034  -2.119   0.648  0.00  0.00    -0.194 N 
ATOM      6  N   UNL     1       0.023  -0.777   1.064  0.00  0.00    -0.168 NA
ATOM      7  C   UNL     1       0.049  -3.237   1.479  0.00  0.00    +0.187 A 
ATOM      8  C   UNL     1       0.043  -3.094   2.875  0.00  0.00    +0.152 A 
ATOM      9  C   UNL     1       0.059  -4.260   3.662  0.00  0.00    +0.163 A 
ATOM     10  N   UNL     1       0.050  -3.835   4.967  0.00  0.00    -0.329 N 
ATOM     11  H   UNL     1       0.056  -4.401   5.754  0.00  0.00    +0.168 HD
ATOM     12  C   UNL     1       0.030  -2.473   4.952  0.00  0.00    +0.198 A 
ATOM     13  N   UNL     1       0.026  -2.040   3.725  0.00  0.00    -0.231 NA
ATOM     14  N   UNL     1       0.077  -5.444   3.061  0.00  0.00    -0.216 NA
ATOM     15  C   UNL     1       0.081  -5.528   1.747  0.00  0.00    +0.226 A 
ATOM     16  N   UNL     1       0.062  -4.462   0.968  0.00  0.00    -0.214 NA
ATOM     17  N   UNL     1       0.057  -3.159  -1.599  0.00  0.00    -0.197 NA
ATOM     18  C   UNL     1       0.344  -2.912  -2.842  0.00  0.00    +0.190 C 
ATOM     19  C   UNL     1       0.716  -1.552  -3.354  0.00  0.00    +0.108 C 
ATOM     20  C   UNL     1      -0.011  -0.441  -2.587  0.00  0.00    +0.066 C 
ENDROOT
BRANCH  20  21
ATOM     21  C   UNL     1       0.697   0.873  -2.796  0.00  0.00    -0.004 A 
ATOM     22  C   UNL     1       2.029   1.002  -2.447  0.00  0.00    +0.010 A 
ATOM     23  C   UNL     1       2.680   2.206  -2.638  0.00  0.00    +0.039 A 
ATOM     24  C   UNL     1       1.999   3.284  -3.179  0.00  0.00    +0.126 A 
ATOM     25  C   UNL     1       0.666   3.155  -3.528  0.00  0.00    +0.077 A 
ATOM     26  C   UNL     1       0.017   1.947  -3.342  0.00  0.00    +0.130 A 
ATOM     27  F   UNL     1      -1.283   1.819  -3.688  0.00  0.00    -0.205 F 
ATOM     28  F   UNL     1       2.636   4.461  -3.364  0.00  0.00    -0.205 F 
ENDBRANCH  20  21
BRANCH  18  29
ATOM     29  O   UNL     1       0.307  -3.935  -3.720  0.00  0.00    -0.495 OA
ATOM     30  H   UNL     1       0.061  -4.783  -3.326  0.00  0.00    +0.293 HD
ENDBRANCH  18  29
TORSDOF 2
