REMARK  Name = ZINC08301908
REMARK  8 active torsions:
REMARK  status: ('A' for Active; 'I' for Inactive)
REMARK    1  A    between atoms: C_1  and  C_2
REMARK    2  A    between atoms: C_5  and  O_9
REMARK    3  A    between atoms: C_6  and  C_8
REMARK    4  A    between atoms: O_9  and  C_10
REMARK    5  A    between atoms: C_12  and  N_32
REMARK    6  A    between atoms: C_14  and  O_31
REMARK    7  A    between atoms: C_23  and  C_26
REMARK    8  A    between atoms: C_33  and  C_35
REMARK                            x       y       z     vdW  Elec       q    Type
REMARK                         _______ _______ _______ _____ _____    ______ ____
ROOT
ATOM      1  C   UNL     1      -1.353  -1.969   0.069  0.00  0.00    +0.331 C 
ATOM      2  C   UNL     1      -0.536  -2.554   1.222  0.00  0.00    +0.173 C 
ATOM      3  C   UNL     1       0.898  -2.012   1.166  0.00  0.00    +0.172 C 
ATOM      4  C   UNL     1       0.839  -0.484   1.195  0.00  0.00    +0.183 C 
ATOM      5  C   UNL     1       0.002  -0.004   0.002  0.00  0.00    +0.179 C 
ATOM      6  O   UNL     1      -1.315  -0.539   0.117  0.00  0.00    -0.332 OA
ATOM      7  C   UNL     1      -0.019   1.525   0.010  0.00  0.00    +0.197 C 
ATOM      8  O   UNL     1       1.335   1.994   0.000  0.00  0.00    -0.342 OA
ATOM      9  C   UNL     1       2.134   1.516   1.084  0.00  0.00    +0.319 C 
ATOM     10  O   UNL     1       2.144   0.084   1.092  0.00  0.00    -0.336 OA
ENDROOT
BRANCH   9  11
ATOM     11  C   UNL     1       3.543   2.026   0.926  0.00  0.00    +0.161 A 
ATOM     12  C   UNL     1       3.911   3.318   0.877  0.00  0.00    +0.050 A 
ATOM     13  C   UNL     1       5.317   3.338   0.723  0.00  0.00    +0.041 A 
ATOM     14  C   UNL     1       5.723   2.057   0.687  0.00  0.00    +0.195 A 
ATOM     15  O   UNL     1       4.645   1.266   0.816  0.00  0.00    -0.463 OA
ENDBRANCH   9  11
BRANCH   2  16
ATOM     16  N   UNL     1      -1.150  -2.174   2.497  0.00  0.00    -0.304 N 
ATOM     17  C   UNL     1      -2.157  -2.912   3.006  0.00  0.00    +0.210 C 
ATOM     18  O   UNL     1      -2.554  -3.890   2.409  0.00  0.00    -0.276 OA
ATOM     19  C   UNL     1      -2.789  -2.521   4.316  0.00  0.00    +0.109 C 
ATOM     20  H   UNL     1      -0.833  -1.391   2.974  0.00  0.00    +0.149 HD
ENDBRANCH   2  16
BRANCH   3  21
ATOM     21  O   UNL     1       1.636  -2.489   2.293  0.00  0.00    -0.387 OA
ATOM     22  H   UNL     1       1.699  -3.453   2.342  0.00  0.00    +0.210 HD
ENDBRANCH   3  21
BRANCH   1  23
ATOM     23  O   UNL     1      -2.707  -2.411   0.177  0.00  0.00    -0.461 OA
BRANCH  23  28
ATOM     24  C   UNL     1      -6.088  -1.400  -4.212  0.00  0.00    +0.044 C 
ATOM     25  C   UNL     1      -5.183  -1.671  -3.038  0.00  0.00    -0.050 A 
ATOM     26  C   UNL     1      -3.861  -1.269  -3.078  0.00  0.00    +0.007 A 
ATOM     27  C   UNL     1      -3.030  -1.516  -2.003  0.00  0.00    +0.046 A 
ATOM     28  C   UNL     1      -3.523  -2.167  -0.882  0.00  0.00    +0.127 A 
ATOM     29  C   UNL     1      -4.848  -2.575  -0.846  0.00  0.00    -0.008 A 
ATOM     30  C   UNL     1      -5.677  -2.321  -1.922  0.00  0.00    +0.010 A 
ATOM     31  C   UNL     1      -5.385  -3.288   0.368  0.00  0.00    +0.047 C 
ENDBRANCH  23  28
ENDBRANCH   1  23
TORSDOF 5
