REMARK  Name = ZINC09482072
REMARK  8 active torsions:
REMARK  status: ('A' for Active; 'I' for Inactive)
REMARK    1  A    between atoms: C_1  and  C_2
REMARK    2  A    between atoms: C_2  and  N_3
REMARK    3  A    between atoms: C_7  and  C_9
REMARK    4  A    between atoms: C_9  and  C_11
REMARK    5  A    between atoms: C_9  and  S_12
REMARK    6  A    between atoms: S_12  and  C_13
REMARK    7  A    between atoms: C_21  and  C_25
REMARK    8  A    between atoms: N_28  and  C_29
REMARK                            x       y       z     vdW  Elec       q    Type
REMARK                         _______ _______ _______ _____ _____    ______ ____
ROOT
ATOM      1  C   UNL     1      -2.463   5.823   0.782  0.00  0.00    +0.178 A 
ATOM      2  N   UNL     1      -1.317   6.290   0.328  0.00  0.00    -0.215 NA
ATOM      3  C   UNL     1      -1.067   7.594   0.330  0.00  0.00    +0.117 A 
ATOM      4  C   UNL     1      -1.990   8.533   0.819  0.00  0.00    +0.076 A 
ATOM      5  C   UNL     1      -1.570   9.934   0.761  0.00  0.00    -0.023 A 
ATOM      6  C   UNL     1      -0.348  10.185   0.248  0.00  0.00    -0.004 A 
ATOM      7  S   UNL     1       0.307   8.595  -0.182  0.00  0.00    -0.073 S 
ATOM      8  C   UNL     1       0.308  11.522   0.080  0.00  0.00    +0.046 C 
ATOM      9  C   UNL     1      -0.763  12.611   0.239  0.00  0.00    -0.009 C 
ATOM     10  C   UNL     1      -1.589  12.308   1.492  0.00  0.00    +0.008 C 
ATOM     11  C   UNL     1      -2.458  11.072   1.255  0.00  0.00    +0.037 C 
ATOM     12  C   UNL     1      -0.091  13.978   0.385  0.00  0.00    +0.008 C 
ATOM     13  C   UNL     1      -3.223   7.997   1.310  0.00  0.00    +0.268 A 
ATOM     14  O   UNL     1      -4.084   8.737   1.754  0.00  0.00    -0.267 OA
ATOM     15  N   UNL     1      -3.418   6.666   1.276  0.00  0.00    -0.253 N 
ENDROOT
BRANCH  15  16
ATOM     16  C   UNL     1      -4.623   6.135   1.756  0.00  0.00    +0.087 A 
ATOM     17  C   UNL     1      -4.739   5.767   3.089  0.00  0.00    +0.029 A 
ATOM     18  C   UNL     1      -5.930   5.248   3.561  0.00  0.00    +0.002 A 
ATOM     19  C   UNL     1      -7.003   5.085   2.704  0.00  0.00    +0.003 A 
ATOM     20  C   UNL     1      -6.891   5.445   1.373  0.00  0.00    +0.040 A 
ATOM     21  C   UNL     1      -5.703   5.970   0.896  0.00  0.00    +0.147 A 
ATOM     22  F   UNL     1      -5.593   6.321  -0.404  0.00  0.00    -0.203 F 
ENDBRANCH  15  16
BRANCH   1  23
ATOM     23  S   UNL     1      -2.764   4.087   0.759  0.00  0.00    -0.075 S 
BRANCH  23  24
ATOM     24  C   UNL     1      -1.213   3.508   0.027  0.00  0.00    +0.137 C 
ATOM     25  C   UNL     1      -1.101   4.028  -1.408  0.00  0.00    +0.029 C 
BRANCH  24  30
ATOM     26  N   UNL     1       1.178  -0.662  -0.013  0.00  0.00    -0.299 N 
ATOM     27  C   UNL     1       0.002  -0.004   0.002  0.00  0.00    +0.306 C 
ATOM     28  O   UNL     1      -1.042  -0.626   0.009  0.00  0.00    -0.252 OA
ATOM     29  N   UNL     1      -0.016   1.344   0.009  0.00  0.00    -0.239 N 
ATOM     30  C   UNL     1      -1.192   2.002   0.019  0.00  0.00    +0.233 C 
ATOM     31  O   UNL     1      -2.234   1.381   0.020  0.00  0.00    -0.274 OA
ATOM     32  H   UNL     1       2.012  -0.166  -0.018  0.00  0.00    +0.150 HD
ATOM     33  H   UNL     1       0.817   1.840   0.004  0.00  0.00    +0.159 HD
BRANCH  26  35
ATOM     34  C   UNL     1       2.647  -2.617  -0.037  0.00  0.00    +0.024 C 
ATOM     35  C   UNL     1       1.198  -2.127  -0.021  0.00  0.00    +0.102 C 
ENDBRANCH  26  35
ENDBRANCH  24  30
ENDBRANCH  23  24
ENDBRANCH   1  23
TORSDOF 5
