REMARK  Name = ZINC13342192
REMARK  8 active torsions:
REMARK  status: ('A' for Active; 'I' for Inactive)
REMARK    1  A    between atoms: C_2  and  C_3
REMARK    2  A    between atoms: C_3  and  N_4
REMARK    3  A    between atoms: C_5  and  C_24
REMARK    4  A    between atoms: C_8  and  S_9
REMARK    5  A    between atoms: S_9  and  C_10
REMARK    6  A    between atoms: C_10  and  C_11
REMARK    7  A    between atoms: N_13  and  C_14
REMARK    8  A    between atoms: C_19  and  C_20
REMARK                            x       y       z     vdW  Elec       q    Type
REMARK                         _______ _______ _______ _____ _____    ______ ____
ROOT
ATOM      1  S   UNL     1       0.281  -3.879  -0.223  0.00  0.00    -0.077 S 
ENDROOT
BRANCH   1   6
ATOM      2  N   UNL     1       1.423  -1.705   1.117  0.00  0.00    -0.302 N 
ATOM      3  C   UNL     1       1.905  -1.464   2.374  0.00  0.00    +0.137 A 
ATOM      4  N   UNL     1       1.772  -2.565   3.058  0.00  0.00    -0.133 NA
ATOM      5  N   UNL     1       1.244  -3.479   2.325  0.00  0.00    -0.122 NA
ATOM      6  C   UNL     1       1.004  -3.004   1.124  0.00  0.00    +0.192 A 
BRANCH   3   7
ATOM      7  C   UNL     1       2.482  -0.166   2.876  0.00  0.00    +0.057 C 
ATOM      8  C   UNL     1       3.927  -0.390   3.326  0.00  0.00    +0.011 C 
ATOM      9  C   UNL     1       4.514   0.928   3.835  0.00  0.00    +0.001 C 
ATOM     10  C   UNL     1       3.683   1.433   5.017  0.00  0.00    +0.000 C 
ATOM     11  C   UNL     1       2.239   1.657   4.567  0.00  0.00    +0.001 C 
ATOM     12  C   UNL     1       1.652   0.339   4.058  0.00  0.00    +0.011 C 
ENDBRANCH   3   7
BRANCH   2  13
ATOM     13  C   UNL     1       1.364  -0.763  -0.003  0.00  0.00    +0.152 C 
BRANCH  13  15
ATOM     14  C   UNL     1       0.041   1.289   0.048  0.00  0.00    +0.005 C 
ATOM     15  C   UNL     1       0.053  -0.021   0.033  0.00  0.00    -0.013 C 
ENDBRANCH  13  15
ENDBRANCH   2  13
ENDBRANCH   1   6
BRANCH   1  16
ATOM     16  C   UNL     1      -0.037  -5.534   0.448  0.00  0.00    +0.173 C 
BRANCH  16  17
ATOM     17  C   UNL     1      -0.664  -6.397  -0.617  0.00  0.00    +0.228 C 
ATOM     18  O   UNL     1      -0.875  -5.940  -1.720  0.00  0.00    -0.275 OA
ATOM     19  N   UNL     1      -0.990  -7.675  -0.343  0.00  0.00    -0.284 N 
ATOM     20  H   UNL     1      -0.762  -8.060   0.518  0.00  0.00    +0.155 HD
BRANCH  19  21
ATOM     21  C   UNL     1      -1.653  -8.444  -1.296  0.00  0.00    +0.048 A 
ATOM     22  C   UNL     1      -1.372  -8.277  -2.645  0.00  0.00    +0.025 A 
ATOM     23  C   UNL     1      -2.031  -9.039  -3.588  0.00  0.00    +0.017 A 
ATOM     24  C   UNL     1      -2.977  -9.976  -3.199  0.00  0.00    +0.019 A 
ATOM     25  C   UNL     1      -3.269 -10.156  -1.864  0.00  0.00    +0.032 A 
ATOM     26  C   UNL     1      -2.605  -9.395  -0.896  0.00  0.00    +0.085 A 
ATOM     27 BR   UNL     1      -3.869 -11.011  -4.506  0.00  0.00    -0.050 Br
BRANCH  26  28
ATOM     28  C   UNL     1      -2.908  -9.586   0.531  0.00  0.00    +0.388 C 
ATOM     29  O   UNL     1      -3.664 -10.482   0.881  0.00  0.00    -0.241 OA
ATOM     30  O   UNL     1      -2.403  -8.850   1.367  0.00  0.00    -0.241 OA
ENDBRANCH  26  28
ENDBRANCH  19  21
ENDBRANCH  16  17
ENDBRANCH   1  16
TORSDOF 8
