REMARK  Name = ZINC38666268
REMARK  12 active torsions:
REMARK  status: ('A' for Active; 'I' for Inactive)
REMARK    1  A    between atoms: C_1  and  C_2
REMARK    2  A    between atoms: C_6  and  N_9
REMARK    3  A    between atoms: C_7  and  C_8
REMARK    4  A    between atoms: C_10  and  C_12
REMARK    5  A    between atoms: N_14  and  C_15
REMARK    6  A    between atoms: C_15  and  C_16
REMARK    7  A    between atoms: C_16  and  C_18
REMARK    8  A    between atoms: C_16  and  N_27
REMARK    9  A    between atoms: C_21  and  N_24
REMARK   10  A    between atoms: N_24  and  C_25
REMARK   11  A    between atoms: N_24  and  C_26
REMARK   12  A    between atoms: N_30  and  C_33
REMARK                            x       y       z     vdW  Elec       q    Type
REMARK                         _______ _______ _______ _____ _____    ______ ____
ROOT
ATOM      1  C   UNL     1      -0.170  -8.495   4.599  0.00  0.00    +0.104 C 
ENDROOT
BRANCH   1   2
ATOM      2  C   UNL     1       0.143  -9.263   5.857  0.00  0.00    -0.029 A 
ATOM      3  C   UNL     1       1.422  -9.236   6.383  0.00  0.00    +0.007 A 
ATOM      4  C   UNL     1       1.711  -9.940   7.535  0.00  0.00    +0.023 A 
ATOM      5  C   UNL     1       0.716 -10.675   8.167  0.00  0.00    +0.029 A 
ATOM      6  C   UNL     1      -0.568 -10.699   7.637  0.00  0.00    +0.023 A 
ATOM      7  C   UNL     1      -0.852  -9.989   6.487  0.00  0.00    +0.007 A 
BRANCH   5   8
ATOM      8  N   UNL     1       1.006 -11.387   9.333  0.00  0.00    -0.336 N 
ATOM      9  C   UNL     1       2.360 -11.361   9.891  0.00  0.00    +0.129 C 
ATOM     10  C   UNL     1      -0.045 -12.162   9.998  0.00  0.00    +0.129 C 
ENDBRANCH   5   8
ENDBRANCH   1   2
BRANCH   1  11
ATOM     11  N   UNL     1       0.524  -9.114   3.462  0.00  0.00    -0.291 NA
ATOM     12  C   UNL     1       0.450 -10.579   3.535  0.00  0.00    +0.104 C 
ATOM     13  C   UNL     1       1.023 -11.181   2.248  0.00  0.00    +0.120 C 
ATOM     14  N   UNL     1       2.372 -10.636   2.037  0.00  0.00    -0.327 N 
ATOM     15  C   UNL     1       2.549  -9.176   2.087  0.00  0.00    +0.120 C 
ATOM     16  C   UNL     1       1.917  -8.653   3.381  0.00  0.00    +0.104 C 
BRANCH  14  17
ATOM     17  C   UNL     1       3.459 -11.482   1.796  0.00  0.00    +0.030 A 
ATOM     18  C   UNL     1       3.253 -12.844   1.620  0.00  0.00    +0.026 A 
ATOM     19  C   UNL     1       4.328 -13.679   1.381  0.00  0.00    +0.040 A 
ATOM     20  C   UNL     1       5.609 -13.158   1.318  0.00  0.00    +0.124 A 
ATOM     21  C   UNL     1       5.817 -11.800   1.493  0.00  0.00    +0.040 A 
ATOM     22  C   UNL     1       4.744 -10.961   1.726  0.00  0.00    +0.026 A 
ATOM     23  F   UNL     1       6.659 -13.976   1.085  0.00  0.00    -0.205 F 
ENDBRANCH  14  17
ENDBRANCH   1  11
BRANCH   1  24
ATOM     24  C   UNL     1       0.300  -7.047   4.756  0.00  0.00    +0.128 C 
BRANCH  24  27
ATOM     25  C   UNL     1       0.293  -4.990   3.449  0.00  0.00    +0.299 C 
ATOM     26  O   UNL     1       0.978  -4.476   4.309  0.00  0.00    -0.265 OA
ATOM     27  N   UNL     1      -0.100  -6.273   3.578  0.00  0.00    -0.306 N 
ATOM     28  H   UNL     1      -0.647  -6.684   2.891  0.00  0.00    +0.149 HD
BRANCH  25  30
ATOM     29  N   UNL     1       0.278  -2.919   2.119  0.00  0.00    -0.278 N 
ATOM     30  C   UNL     1      -0.114  -4.202   2.248  0.00  0.00    +0.303 C 
ATOM     31  O   UNL     1      -0.799  -4.716   1.388  0.00  0.00    -0.265 OA
ATOM     32  H   UNL     1       0.894  -2.534   2.762  0.00  0.00    +0.155 HD
BRANCH  29  38
ATOM     33  C   UNL     1       0.794   0.954  -0.863  0.00  0.00    +0.044 C 
ATOM     34  C   UNL     1       0.028  -0.261  -0.406  0.00  0.00    -0.046 A 
ATOM     35  C   UNL     1      -1.153  -0.610  -1.037  0.00  0.00    +0.004 A 
ATOM     36  C   UNL     1      -1.859  -1.724  -0.622  0.00  0.00    +0.002 A 
ATOM     37  C   UNL     1      -1.387  -2.492   0.425  0.00  0.00    +0.023 A 
ATOM     38  C   UNL     1      -0.202  -2.145   1.060  0.00  0.00    +0.037 A 
ATOM     39  C   UNL     1       0.508  -1.028   0.636  0.00  0.00    -0.026 A 
ATOM     40  C   UNL     1       1.798  -0.650   1.319  0.00  0.00    +0.046 C 
ENDBRANCH  29  38
ENDBRANCH  25  30
ENDBRANCH  24  27
ENDBRANCH   1  24
TORSDOF 8
