REMARK  Name = ZINC39970884
REMARK  11 active torsions:
REMARK  status: ('A' for Active; 'I' for Inactive)
REMARK    1  A    between atoms: C_1  and  C_2
REMARK    2  A    between atoms: C_3  and  N_16
REMARK    3  A    between atoms: C_4  and  C_15
REMARK    4  A    between atoms: N_5  and  C_7
REMARK    5  A    between atoms: C_7  and  C_8
REMARK    6  A    between atoms: N_16  and  C_17
REMARK    7  A    between atoms: C_17  and  N_19
REMARK    8  A    between atoms: N_19  and  C_20
REMARK    9  A    between atoms: C_23  and  S_26
REMARK   10  A    between atoms: S_26  and  N_29
REMARK   11  A    between atoms: C_34  and  C_36
REMARK                            x       y       z     vdW  Elec       q    Type
REMARK                         _______ _______ _______ _____ _____    ______ ____
ROOT
ATOM      1  C   UNL     1      -1.098   0.783  -3.496  0.00  0.00    +0.139 C 
ATOM      2  S   UNL     1       0.207   1.280  -2.506  0.00  0.00    -0.018 S 
ENDROOT
BRANCH   1   3
ATOM      3  N   UNL     1      -1.727  -0.382  -3.247  0.00  0.00    -0.294 N 
ATOM      4  H   UNL     1      -2.442  -0.682  -3.831  0.00  0.00    +0.154 HD
BRANCH   3   7
ATOM      5  C   UNL     1      -1.205   0.739  -0.389  0.00  0.00    +0.069 C 
ATOM      6  C   UNL     1      -1.105  -0.695  -0.841  0.00  0.00    +0.081 A 
ATOM      7  C   UNL     1      -1.348  -1.165  -2.140  0.00  0.00    +0.076 A 
ATOM      8  C   UNL     1      -1.153  -2.508  -2.140  0.00  0.00    +0.058 A 
ATOM      9  N   UNL     1      -0.799  -2.871  -0.880  0.00  0.00    -0.262 N 
ATOM     10  N   UNL     1      -0.772  -1.714  -0.091  0.00  0.00    -0.174 NA
ATOM     11  C   UNL     1      -1.303  -3.430  -3.323  0.00  0.00    +0.067 C 
BRANCH   9  12
ATOM     12  C   UNL     1      -0.493  -4.230  -0.427  0.00  0.00    +0.179 C 
BRANCH  12  13
ATOM     13  C   UNL     1       0.980  -4.498  -0.600  0.00  0.00    -0.026 A 
ATOM     14  C   UNL     1       1.451  -5.029  -1.786  0.00  0.00    +0.008 A 
ATOM     15  C   UNL     1       2.802  -5.274  -1.946  0.00  0.00    +0.038 A 
ATOM     16  C   UNL     1       3.683  -4.988  -0.917  0.00  0.00    +0.123 A 
ATOM     17  C   UNL     1       3.210  -4.456   0.271  0.00  0.00    +0.038 A 
ATOM     18  C   UNL     1       1.860  -4.207   0.426  0.00  0.00    +0.008 A 
ATOM     19  F   UNL     1       5.003  -5.228  -1.072  0.00  0.00    -0.205 F 
ENDBRANCH  12  13
ENDBRANCH   9  12
ENDBRANCH   3   7
ENDBRANCH   1   3
BRANCH   1  20
ATOM     20  N   UNL     1      -1.496   1.558  -4.525  0.00  0.00    -0.297 N 
ATOM     21  H   UNL     1      -2.191   1.247  -5.125  0.00  0.00    +0.154 HD
BRANCH  20  22
ATOM     22  C   UNL     1      -0.906   2.810  -4.726  0.00  0.00    +0.033 A 
ATOM     23  C   UNL     1       0.475   2.948  -4.658  0.00  0.00    +0.025 A 
ATOM     24  C   UNL     1       1.054   4.186  -4.858  0.00  0.00    +0.030 A 
ATOM     25  C   UNL     1       0.262   5.287  -5.125  0.00  0.00    +0.106 A 
ATOM     26  C   UNL     1      -1.113   5.153  -5.194  0.00  0.00    +0.030 A 
ATOM     27  C   UNL     1      -1.698   3.917  -5.001  0.00  0.00    +0.025 A 
BRANCH  25  28
ATOM     28  S   UNL     1       1.005   6.864  -5.379  0.00  0.00    +0.061 S 
ATOM     29  O   UNL     1       0.013   7.834  -5.072  0.00  0.00    -0.153 OA
ATOM     30  O   UNL     1       2.265   6.829  -4.723  0.00  0.00    -0.153 OA
BRANCH  28  31
ATOM     31  N   UNL     1       1.318   7.003  -6.999  0.00  0.00    -0.174 NA
ATOM     32  C   UNL     1       2.656   6.709  -7.530  0.00  0.00    +0.110 C 
ATOM     33  C   UNL     1       3.137   7.912  -8.348  0.00  0.00    +0.017 C 
ATOM     34  C   UNL     1       2.094   8.246  -9.418  0.00  0.00    +0.003 C 
ATOM     35  C   UNL     1       0.771   8.617  -8.746  0.00  0.00    +0.020 C 
ATOM     36  C   UNL     1       0.262   7.416  -7.933  0.00  0.00    +0.077 C 
ATOM     37  C   UNL     1      -0.988   7.819  -7.148  0.00  0.00    +0.026 C 
ENDBRANCH  28  31
ENDBRANCH  25  28
ENDBRANCH  20  22
ENDBRANCH   1  20
TORSDOF 8
