REMARK  Name = ZINC26804535
REMARK  7 active torsions:
REMARK  status: ('A' for Active; 'I' for Inactive)
REMARK    1  A    between atoms: C_1  and  C_2
REMARK    2  A    between atoms: C_5  and  N_9
REMARK    3  A    between atoms: C_7  and  C_8
REMARK    4  A    between atoms: C_10  and  C_12
REMARK    5  A    between atoms: C_12  and  N_23
REMARK    6  A    between atoms: C_13  and  C_14
REMARK    7  A    between atoms: C_24  and  C_26
REMARK                            x       y       z     vdW  Elec       q    Type
REMARK                         _______ _______ _______ _____ _____    ______ ____
ROOT
ATOM      1  C   UNL     1       2.416   0.928   0.231  0.00  0.00    +0.097 C 
ATOM      2  C   UNL     1       2.321  -0.419   0.325  0.00  0.00    +0.036 C 
ENDROOT
BRANCH   2   3
ATOM      3  C   UNL     1       3.517  -1.223   0.612  0.00  0.00    -0.019 A 
ATOM      4  C   UNL     1       4.781  -0.765   0.220  0.00  0.00    +0.012 A 
ATOM      5  C   UNL     1       5.901  -1.519   0.494  0.00  0.00    +0.050 A 
ATOM      6  C   UNL     1       5.782  -2.737   1.150  0.00  0.00    +0.166 A 
ATOM      7  C   UNL     1       4.525  -3.202   1.539  0.00  0.00    +0.167 A 
ATOM      8  C   UNL     1       3.397  -2.450   1.272  0.00  0.00    +0.057 A 
ATOM      9  O   UNL     1       4.680  -4.409   2.158  0.00  0.00    -0.453 OA
ATOM     10  C   UNL     1       6.074  -4.486   2.507  0.00  0.00    +0.466 C 
ATOM     11  O   UNL     1       6.720  -3.654   1.525  0.00  0.00    -0.453 OA
ENDBRANCH   2   3
BRANCH   1  13
ATOM     12  N   UNL     1       0.099   1.102  -0.510  0.00  0.00    -0.280 N 
ATOM     13  C   UNL     1       1.258   1.718  -0.204  0.00  0.00    +0.262 C 
ATOM     14  O   UNL     1       1.344   2.929  -0.289  0.00  0.00    -0.268 OA
ATOM     15  H   UNL     1       0.040   0.003  -0.499  0.00  0.00    +0.155 HD
BRANCH  12  20
ATOM     16  C   UNL     1      -4.477   4.172  -1.854  0.00  0.00    +0.044 C 
ATOM     17  C   UNL     1      -3.261   3.356  -1.498  0.00  0.00    -0.047 A 
ATOM     18  C   UNL     1      -3.404   2.183  -0.779  0.00  0.00    +0.005 A 
ATOM     19  C   UNL     1      -2.293   1.430  -0.456  0.00  0.00    +0.023 A 
ATOM     20  C   UNL     1      -1.029   1.859  -0.842  0.00  0.00    +0.034 A 
ATOM     21  C   UNL     1      -0.889   3.037  -1.562  0.00  0.00    +0.027 A 
ATOM     22  C   UNL     1      -2.005   3.783  -1.888  0.00  0.00    -0.046 A 
ATOM     23  C   UNL     1      -1.854   5.062  -2.670  0.00  0.00    +0.044 C 
ENDBRANCH  12  20
ENDBRANCH   1  13
BRANCH   1  24
ATOM     24  N   UNL     1       3.619   1.568   0.548  0.00  0.00    -0.277 N 
ATOM     25  C   UNL     1       4.217   2.368  -0.357  0.00  0.00    +0.250 C 
ATOM     26  O   UNL     1       3.669   2.601  -1.418  0.00  0.00    -0.270 OA
ATOM     27  H   UNL     1       4.078   1.418   1.536  0.00  0.00    +0.155 HD
BRANCH  25  28
ATOM     28  C   UNL     1       5.536   2.962  -0.062  0.00  0.00    +0.055 A 
ATOM     29  C   UNL     1       6.222   2.604   1.101  0.00  0.00    +0.016 A 
ATOM     30  C   UNL     1       7.453   3.162   1.372  0.00  0.00    +0.021 A 
ATOM     31  C   UNL     1       8.011   4.077   0.494  0.00  0.00    +0.042 A 
ATOM     32  C   UNL     1       7.337   4.437  -0.661  0.00  0.00    +0.040 A 
ATOM     33  C   UNL     1       6.106   3.881  -0.947  0.00  0.00    +0.054 A 
ATOM     34 CL   UNL     1       5.266   4.327  -2.399  0.00  0.00    -0.083 Cl
ATOM     35 CL   UNL     1       9.562   4.775   0.843  0.00  0.00    -0.083 Cl
ENDBRANCH  25  28
ENDBRANCH   1  24
TORSDOF 5
