REMARK  Name = ZINC35338193
REMARK  6 active torsions:
REMARK  status: ('A' for Active; 'I' for Inactive)
REMARK    1  A    between atoms: C_1  and  C_2
REMARK    2  A    between atoms: C_7  and  C_8
REMARK    3  A    between atoms: C_8  and  C_9
REMARK    4  A    between atoms: N_14  and  C_17
REMARK    5  A    between atoms: C_20  and  N_23
REMARK    6  A    between atoms: N_26  and  C_27
REMARK                            x       y       z     vdW  Elec       q    Type
REMARK                         _______ _______ _______ _____ _____    ______ ____
ROOT
ATOM      1  C   UNL     1      -2.239   3.987   6.732  0.00  0.00    +0.030 A 
ATOM      2  C   UNL     1      -1.198   4.295   7.599  0.00  0.00    +0.025 A 
ATOM      3  C   UNL     1      -1.452   4.991   8.764  0.00  0.00    +0.025 A 
ATOM      4  C   UNL     1      -2.749   5.383   9.069  0.00  0.00    +0.035 A 
ATOM      5  C   UNL     1      -3.790   5.075   8.204  0.00  0.00    +0.025 A 
ATOM      6  C   UNL     1      -3.535   4.384   7.036  0.00  0.00    +0.025 A 
ENDROOT
BRANCH   1  12
ATOM      7  C   UNL     1      -1.213   2.394   1.739  0.00  0.00    +0.220 C 
ATOM      8  O   UNL     1      -0.071   2.131   1.427  0.00  0.00    -0.275 OA
ATOM      9  N   UNL     1      -1.461   3.073   2.877  0.00  0.00    -0.298 N 
ATOM     10  C   UNL     1      -2.840   3.393   3.271  0.00  0.00    +0.126 C 
ATOM     11  C   UNL     1      -3.085   2.849   4.684  0.00  0.00    +0.124 C 
ATOM     12  N   UNL     1      -1.981   3.282   5.552  0.00  0.00    -0.327 N 
ATOM     13  C   UNL     1      -0.602   2.962   5.157  0.00  0.00    +0.124 C 
ATOM     14  C   UNL     1      -0.358   3.502   3.748  0.00  0.00    +0.126 C 
BRANCH   7  15
ATOM     15  C   UNL     1      -2.355   1.961   0.856  0.00  0.00    +0.131 C 
BRANCH  15  22
ATOM     16  C   UNL     1      -1.783  -0.866   1.033  0.00  0.00    +0.044 C 
ATOM     17  C   UNL     1      -1.538  -0.127  -0.257  0.00  0.00    -0.047 A 
ATOM     18  C   UNL     1      -1.046  -0.803  -1.358  0.00  0.00    +0.003 A 
ATOM     19  C   UNL     1      -0.821  -0.125  -2.542  0.00  0.00    +0.000 A 
ATOM     20  C   UNL     1      -1.089   1.228  -2.625  0.00  0.00    +0.000 A 
ATOM     21  C   UNL     1      -1.583   1.904  -1.525  0.00  0.00    +0.004 A 
ATOM     22  C   UNL     1      -1.812   1.225  -0.342  0.00  0.00    -0.036 A 
ENDBRANCH  15  22
ENDBRANCH   7  15
ENDBRANCH   1  12
BRANCH   4  23
ATOM     23  N   UNL     1      -3.007   6.089  10.253  0.00  0.00    -0.269 N 
ATOM     24  C   UNL     1      -2.101   6.968  10.724  0.00  0.00    +0.304 C 
ATOM     25  O   UNL     1      -1.106   7.223  10.074  0.00  0.00    -0.252 OA
ATOM     26  N   UNL     1      -2.297   7.564  11.917  0.00  0.00    -0.294 N 
ATOM     27  H   UNL     1      -3.838   5.945  10.732  0.00  0.00    +0.156 HD
ATOM     28  H   UNL     1      -3.091   7.360  12.436  0.00  0.00    +0.151 HD
BRANCH  26  29
ATOM     29  C   UNL     1      -1.312   8.519  12.430  0.00  0.00    +0.037 C 
ATOM     30  C   UNL     1       0.042   7.823  12.583  0.00  0.00    +0.029 C 
ATOM     31  C   UNL     1       1.071   8.821  13.119  0.00  0.00    -0.008 C 
ATOM     32  C   UNL     1       0.611   9.347  14.480  0.00  0.00    +0.007 C 
ATOM     33  C   UNL     1      -0.743  10.043  14.326  0.00  0.00    -0.008 C 
ATOM     34  C   UNL     1      -1.772   9.045  13.791  0.00  0.00    +0.029 C 
ATOM     35  C   UNL     1      -0.608  11.211  13.348  0.00  0.00    +0.007 C 
ATOM     36  C   UNL     1      -0.148  10.685  11.986  0.00  0.00    -0.008 C 
ATOM     37  C   UNL     1       1.206   9.989  12.140  0.00  0.00    +0.007 C 
ATOM     38  C   UNL     1      -1.177   9.687  11.451  0.00  0.00    +0.029 C 
ENDBRANCH  26  29
ENDBRANCH   4  23
TORSDOF 5
