REMARK  Name = ZINC40826043
REMARK  9 active torsions:
REMARK  status: ('A' for Active; 'I' for Inactive)
REMARK    1  A    between atoms: C_1  and  C_2
REMARK    2  A    between atoms: C_5  and  O_33
REMARK    3  A    between atoms: C_6  and  N_8
REMARK    4  A    between atoms: C_9  and  C_11
REMARK    5  A    between atoms: C_12  and  C_32
REMARK    6  A    between atoms: N_20  and  N_21
REMARK    7  A    between atoms: N_21  and  S_22
REMARK    8  A    between atoms: S_22  and  C_25
REMARK    9  A    between atoms: O_33  and  C_34
REMARK                            x       y       z     vdW  Elec       q    Type
REMARK                         _______ _______ _______ _____ _____    ______ ____
ROOT
ATOM      1  C   UNL     1       0.278  -2.873   4.825  0.00  0.00    +0.193 A 
ATOM      2  C   UNL     1       0.379  -2.321   6.072  0.00  0.00    +0.009 A 
ATOM      3  C   UNL     1       0.479  -3.393   6.967  0.00  0.00    +0.042 A 
ATOM      4  C   UNL     1       0.437  -4.552   6.231  0.00  0.00    +0.115 A 
ATOM      5  O   UNL     1       0.308  -4.220   4.947  0.00  0.00    -0.454 OA
ATOM      6  C   UNL     1       0.524  -5.923   6.852  0.00  0.00    +0.075 C 
ATOM      7  C   UNL     1       1.161  -5.813   8.240  0.00  0.00    +0.014 C 
ATOM      8  C   UNL     1       0.425  -4.774   9.092  0.00  0.00    +0.058 C 
ATOM      9  C   UNL     1       0.609  -3.409   8.443  0.00  0.00    +0.071 C 
ATOM     10  N   UNL     1       0.860  -2.340   9.131  0.00  0.00    -0.170 NA
ATOM     11  C   UNL     1       0.383  -0.854   6.414  0.00  0.00    +0.048 C 
ENDROOT
BRANCH   1  13
ATOM     12  N   UNL     1       0.052  -2.794   2.398  0.00  0.00    -0.276 N 
ATOM     13  C   UNL     1       0.151  -2.130   3.567  0.00  0.00    +0.284 C 
ATOM     14  O   UNL     1       0.134  -0.913   3.578  0.00  0.00    -0.266 OA
ATOM     15  H   UNL     1       0.001  -3.763   2.394  0.00  0.00    +0.155 HD
BRANCH  12  21
ATOM     16  C   UNL     1      -1.307   1.189  -0.143  0.00  0.00    +0.044 C 
ATOM     17  C   UNL     1      -0.626  -0.154  -0.071  0.00  0.00    -0.048 A 
ATOM     18  C   UNL     1      -0.028  -0.685  -1.199  0.00  0.00    +0.007 A 
ATOM     19  C   UNL     1       0.598  -1.916  -1.139  0.00  0.00    +0.048 A 
ATOM     20  C   UNL     1       0.628  -2.621   0.054  0.00  0.00    +0.141 A 
ATOM     21  C   UNL     1       0.026  -2.086   1.190  0.00  0.00    +0.076 A 
ATOM     22  C   UNL     1      -0.597  -0.848   1.124  0.00  0.00    +0.030 A 
BRANCH  20  23
ATOM     23  O   UNL     1       1.243  -3.832   0.114  0.00  0.00    -0.493 OA
ATOM     24  C   UNL     1       1.839  -4.318  -1.090  0.00  0.00    +0.277 C 
ENDBRANCH  20  23
ENDBRANCH  12  21
ENDBRANCH   1  13
BRANCH  10  25
ATOM     25  N   UNL     1       0.972  -2.414  10.526  0.00  0.00    -0.136 N 
ATOM     26  H   UNL     1       0.861  -3.266  10.976  0.00  0.00    +0.197 HD
BRANCH  25  27
ATOM     27  S   UNL     1       1.294  -1.048  11.405  0.00  0.00    +0.086 S 
ATOM     28  O   UNL     1       1.202  -1.416  12.774  0.00  0.00    -0.149 OA
ATOM     29  O   UNL     1       2.467  -0.473  10.847  0.00  0.00    -0.149 OA
BRANCH  27  30
ATOM     30  C   UNL     1      -0.018   0.088  11.100  0.00  0.00    +0.110 A 
ATOM     31  C   UNL     1       0.073   0.983  10.050  0.00  0.00    +0.031 A 
ATOM     32  C   UNL     1      -0.955   1.875   9.810  0.00  0.00    +0.040 A 
ATOM     33  C   UNL     1      -2.077   1.871  10.621  0.00  0.00    +0.124 A 
ATOM     34  C   UNL     1      -2.167   0.975  11.672  0.00  0.00    +0.040 A 
ATOM     35  C   UNL     1      -1.140   0.080  11.907  0.00  0.00    +0.031 A 
ATOM     36  F   UNL     1      -3.083   2.743  10.387  0.00  0.00    -0.205 F 
ENDBRANCH  27  30
ENDBRANCH  25  27
ENDBRANCH  10  25
TORSDOF 6
