REMARK  Name = ZINC43827430
REMARK  1 active torsions:
REMARK  status: ('A' for Active; 'I' for Inactive)
REMARK    1  A    between atoms: C_9  and  C_12
REMARK                            x       y       z     vdW  Elec       q    Type
REMARK                         _______ _______ _______ _____ _____    ______ ____
ROOT
ATOM      1  C   UNL     1      -0.017   1.377   0.010  0.00  0.00    +0.032 A 
ATOM      2  C   UNL     1       1.208   2.052   0.002  0.00  0.00    +0.061 A 
ATOM      3  C   UNL     1       1.596   3.462   0.005  0.00  0.00    +0.147 A 
ATOM      4  N   UNL     1       2.902   3.511  -0.007  0.00  0.00    -0.157 NA
ATOM      5  N   UNL     1       3.430   2.216  -0.019  0.00  0.00    -0.258 N 
ATOM      6  H   UNL     1       4.374   1.996  -0.029  0.00  0.00    +0.191 HD
ATOM      7  C   UNL     1       2.405   1.309  -0.014  0.00  0.00    +0.158 A 
ATOM      8  N   UNL     1       2.362  -0.018  -0.021  0.00  0.00    -0.231 NA
ATOM      9  C   UNL     1       1.220  -0.671  -0.014  0.00  0.00    +0.061 A 
ATOM     10  C   UNL     1       0.002  -0.004   0.002  0.00  0.00    +0.040 A 
ATOM     11 BR   UNL     1      -1.618  -0.979   0.013  0.00  0.00    -0.048 Br
ATOM     12  N   UNL     1       0.729   4.558   0.020  0.00  0.00    -0.341 N 
ATOM     13  H   UNL     1      -0.231   4.416   0.028  0.00  0.00    +0.144 HD
ATOM     14  H   UNL     1       1.086   5.459   0.021  0.00  0.00    +0.144 HD
ENDROOT
BRANCH   9  15
ATOM     15  C   UNL     1       1.234  -2.178  -0.023  0.00  0.00    +0.039 C 
ATOM     16  C   UNL     1       2.584  -2.873   0.164  0.00  0.00    +0.010 C 
ATOM     17  C   UNL     1       1.908  -2.871  -1.208  0.00  0.00    +0.010 C 
ENDBRANCH   9  15
TORSDOF 1
