REMARK  Name = ZINC02250010
REMARK  4 active torsions:
REMARK  status: ('A' for Active; 'I' for Inactive)
REMARK    1  A    between atoms: C_4  and  C_7
REMARK    2  A    between atoms: C_7  and  C_8
REMARK    3  A    between atoms: C_16  and  C_28
REMARK    4  A    between atoms: C_19  and  C_21
REMARK                            x       y       z     vdW  Elec       q    Type
REMARK                         _______ _______ _______ _____ _____    ______ ____
ROOT
ATOM      1  C   UNL     1       4.164  -0.959   1.377  0.00  0.00    +0.224 C 
ATOM      2  O   UNL     1       3.486  -0.579   2.308  0.00  0.00    -0.275 OA
ATOM      3  N   UNL     1       5.323  -1.607   1.608  0.00  0.00    -0.253 N 
ATOM      4  C   UNL     1       5.744  -1.842   2.921  0.00  0.00    +0.242 A 
ATOM      5  N   UNL     1       5.080  -1.476   4.023  0.00  0.00    -0.176 NA
ATOM      6  C   UNL     1       5.752  -1.846   5.085  0.00  0.00    +0.251 A 
ATOM      7  N   UNL     1       6.886  -2.480   4.657  0.00  0.00    -0.220 N 
ATOM      8  N   UNL     1       6.854  -2.462   3.267  0.00  0.00    -0.131 NA
ATOM      9  C   UNL     1       7.870  -3.045   5.580  0.00  0.00    +0.147 C 
ATOM     10  C   UNL     1       7.835  -2.222   6.873  0.00  0.00    +0.087 C 
ATOM     11  C   UNL     1       6.421  -1.914   7.279  0.00  0.00    +0.055 C 
ATOM     12  N   UNL     1       5.469  -1.707   6.408  0.00  0.00    -0.215 NA
ATOM     13  H   UNL     1       5.866  -1.911   0.864  0.00  0.00    +0.158 HD
ENDROOT
BRANCH  11  14
ATOM     14  C   UNL     1       6.096  -1.845   8.711  0.00  0.00    -0.003 A 
ATOM     15  C   UNL     1       7.093  -2.056   9.669  0.00  0.00    +0.011 A 
ATOM     16  C   UNL     1       6.782  -1.988  11.010  0.00  0.00    +0.020 A 
ATOM     17  C   UNL     1       5.484  -1.712  11.410  0.00  0.00    +0.041 A 
ATOM     18  C   UNL     1       4.491  -1.502  10.467  0.00  0.00    +0.020 A 
ATOM     19  C   UNL     1       4.790  -1.560   9.123  0.00  0.00    +0.011 A 
ATOM     20 CL   UNL     1       5.101  -1.630  13.101  0.00  0.00    -0.084 Cl
ENDBRANCH  11  14
BRANCH   9  21
ATOM     21  C   UNL     1       9.245  -2.972   4.966  0.00  0.00    -0.022 A 
ATOM     22  C   UNL     1       9.784  -1.746   4.625  0.00  0.00    +0.008 A 
ATOM     23  C   UNL     1      11.045  -1.677   4.062  0.00  0.00    +0.038 A 
ATOM     24  C   UNL     1      11.767  -2.837   3.840  0.00  0.00    +0.123 A 
ATOM     25  C   UNL     1      11.225  -4.065   4.182  0.00  0.00    +0.038 A 
ATOM     26  C   UNL     1       9.967  -4.130   4.749  0.00  0.00    +0.008 A 
ATOM     27  F   UNL     1      12.999  -2.772   3.289  0.00  0.00    -0.205 F 
ENDBRANCH   9  21
BRANCH   1  28
ATOM     28  C   UNL     1       3.711  -0.707  -0.038  0.00  0.00    +0.131 C 
BRANCH  28  32
ATOM     29  C   UNL     1      -0.017   1.378   0.010  0.00  0.00    +0.000 A 
ATOM     30  C   UNL     1       1.171   2.086   0.002  0.00  0.00    +0.000 A 
ATOM     31  C   UNL     1       2.377   1.411  -0.013  0.00  0.00    +0.004 A 
ATOM     32  C   UNL     1       2.396   0.029  -0.020  0.00  0.00    -0.039 A 
ATOM     33  C   UNL     1       1.208  -0.679  -0.012  0.00  0.00    +0.004 A 
ATOM     34  C   UNL     1       0.002  -0.004   0.002  0.00  0.00    +0.000 A 
ENDBRANCH  28  32
ENDBRANCH   1  28
TORSDOF 4
