REMARK  Name = ZINC65216921
REMARK  7 active torsions:
REMARK  status: ('A' for Active; 'I' for Inactive)
REMARK    1  A    between atoms: C_1  and  C_2
REMARK    2  A    between atoms: C_4  and  C_14
REMARK    3  A    between atoms: C_11  and  C_13
REMARK    4  A    between atoms: C_14  and  N_15
REMARK    5  A    between atoms: C_16  and  C_18
REMARK    6  A    between atoms: C_18  and  C_19
REMARK    7  A    between atoms: C_19  and  C_20
REMARK                            x       y       z     vdW  Elec       q    Type
REMARK                         _______ _______ _______ _____ _____    ______ ____
ROOT
ATOM      1  N   UNL     1       0.565  -1.923  -3.243  0.00  0.00    -0.313 N 
ATOM      2  C   UNL     1      -0.062  -2.690  -4.157  0.00  0.00    +0.213 C 
ATOM      3  O   UNL     1      -1.253  -2.900  -4.058  0.00  0.00    -0.276 OA
ATOM      4  H   UNL     1       1.517  -1.755  -3.323  0.00  0.00    +0.149 HD
ENDROOT
BRANCH   1   5
ATOM      5  C   UNL     1      -0.191  -1.343  -2.131  0.00  0.00    +0.129 C 
BRANCH   5   8
ATOM      6  C   UNL     1      -0.019   1.526   0.010  0.00  0.00    +0.026 C 
ATOM      7  C   UNL     1       0.002  -0.004   0.002  0.00  0.00    +0.077 C 
ATOM      8  C   UNL     1       0.751  -0.523  -1.247  0.00  0.00    +0.129 C 
ATOM      9  N   UNL     1       1.833  -1.379  -0.707  0.00  0.00    -0.222 N 
ATOM     10  C   UNL     1       2.127  -0.713   0.602  0.00  0.00    +0.225 C 
ATOM     11  N   UNL     1       0.775  -0.516   1.168  0.00  0.00    -0.284 NA
ATOM     12  S   UNL     1       3.013  -2.078   1.442  0.00  0.00    -0.069 S 
ATOM     13  C   UNL     1       3.222  -3.134   0.015  0.00  0.00    +0.092 C 
ATOM     14  N   UNL     1       2.557  -2.534  -0.916  0.00  0.00    -0.180 NA
ATOM     15  C   UNL     1       3.996  -4.423  -0.081  0.00  0.00    +0.075 C 
ATOM     16  H   UNL     1       0.790   0.160   1.917  0.00  0.00    +0.125 HD
ENDBRANCH   5   8
ENDBRANCH   1   5
BRANCH   2  17
ATOM     17  C   UNL     1       0.716  -3.286  -5.302  0.00  0.00    +0.100 C 
BRANCH  17  18
ATOM     18  C   UNL     1      -0.226  -4.106  -6.186  0.00  0.00    +0.042 C 
BRANCH  18  19
ATOM     19  C   UNL     1       0.551  -4.703  -7.330  0.00  0.00    -0.041 C 
ATOM     20  C   UNL     1       1.092  -5.942  -7.388  0.00  0.00    -0.001 A 
ATOM     21  C   UNL     1       1.117  -7.061  -6.439  0.00  0.00    +0.010 A 
ATOM     22  C   UNL     1       1.752  -8.203  -6.788  0.00  0.00    +0.001 A 
ATOM     23  C   UNL     1       2.386  -8.343  -8.030  0.00  0.00    +0.002 A 
ATOM     24  C   UNL     1       2.406  -7.360  -8.954  0.00  0.00    +0.026 A 
ATOM     25  C   UNL     1       1.768  -6.116  -8.694  0.00  0.00    +0.043 A 
ATOM     26  N   UNL     1       1.651  -5.027  -9.414  0.00  0.00    -0.380 N 
ATOM     27  C   UNL     1       0.880  -4.040  -8.649  0.00  0.00    +0.144 C 
ATOM     28  H   UNL     1       2.010  -4.897 -10.306  0.00  0.00    +0.160 HD
ENDBRANCH  18  19
ENDBRANCH  17  18
ENDBRANCH   2  17
TORSDOF 5
