REMARK  Name = ZINC20150101
REMARK  3 active torsions:
REMARK  status: ('A' for Active; 'I' for Inactive)
REMARK    1  A    between atoms: C_2  and  C_3
REMARK    2  A    between atoms: C_3  and  N_4
REMARK    3  A    between atoms: C_7  and  C_13
REMARK                            x       y       z     vdW  Elec       q    Type
REMARK                         _______ _______ _______ _____ _____    ______ ____
ROOT
ATOM      1  N   UNL     1       5.591   1.816   0.155  0.00  0.00    -0.284 N 
ATOM      2  C   UNL     1       4.284   1.496   0.222  0.00  0.00    +0.261 A 
ATOM      3  O   UNL     1       3.807   0.693  -0.561  0.00  0.00    -0.267 OA
ATOM      4  C   UNL     1       3.472   2.096   1.201  0.00  0.00    +0.072 A 
ATOM      5  C   UNL     1       4.029   2.997   2.061  0.00  0.00    +0.258 A 
ATOM      6  N   UNL     1       5.365   3.289   1.961  0.00  0.00    -0.302 N 
ATOM      7  C   UNL     1       6.122   2.702   1.016  0.00  0.00    +0.164 A 
ATOM      8  S   UNL     1       7.786   3.090   0.909  0.00  0.00    -0.013 S 
ATOM      9  O   UNL     1       3.271   3.591   3.007  0.00  0.00    -0.267 OA
ATOM     10  H   UNL     1       5.824   4.007   2.656  0.00  0.00    +0.171 HD
ENDROOT
BRANCH   4  11
ATOM     11  C   UNL     1       2.008   1.754   1.295  0.00  0.00    +0.001 C 
ATOM     12  C   UNL     1       1.858   0.305   1.679  0.00  0.00    -0.054 A 
ATOM     13  C   UNL     1       2.689  -0.206   2.665  0.00  0.00    +0.002 A 
ATOM     14  C   UNL     1       2.582  -1.526   3.053  0.00  0.00    +0.000 A 
ATOM     15  C   UNL     1       1.641  -2.345   2.456  0.00  0.00    +0.000 A 
ATOM     16  C   UNL     1       0.815  -1.838   1.473  0.00  0.00    +0.004 A 
ATOM     17  C   UNL     1       0.923  -0.512   1.082  0.00  0.00    -0.047 A 
ATOM     18  C   UNL     1       0.002  -0.004   0.002  0.00  0.00    +0.016 C 
ATOM     19  C   UNL     1      -0.019   1.525   0.010  0.00  0.00    -0.077 C 
ATOM     20  N   UNL     1       1.370   2.011  -0.000  0.00  0.00    +0.387 N 
ATOM     21  H   UNL     1       1.371   3.092  -0.202  0.00  0.00    -0.085 HD
ATOM     22  H   UNL     1       1.928   1.490  -0.793  0.00  0.00    -0.085 HD
ENDBRANCH   4  11
BRANCH   1  23
ATOM     23  C   UNL     1       6.440   1.194  -0.864  0.00  0.00    +0.154 C 
BRANCH  23  25
ATOM     24  C   UNL     1       7.554   2.462  -2.628  0.00  0.00    +0.005 C 
ATOM     25  C   UNL     1       6.427   2.037  -2.113  0.00  0.00    -0.013 C 
ENDBRANCH  23  25
ENDBRANCH   1  23
TORSDOF 3
