REMARK  Name = ZINC66083190
REMARK  12 active torsions:
REMARK  status: ('A' for Active; 'I' for Inactive)
REMARK    1  A    between atoms: C_1  and  C_2
REMARK    2  A    between atoms: C_2  and  N_3
REMARK    3  A    between atoms: N_3  and  C_4
REMARK    4  A    between atoms: C_4  and  C_5
REMARK    5  A    between atoms: C_6  and  C_8
REMARK    6  A    between atoms: C_11  and  N_14
REMARK    7  A    between atoms: N_14  and  C_15
REMARK    8  A    between atoms: C_15  and  C_16
REMARK    9  A    between atoms: N_18  and  C_19
REMARK   10  A    between atoms: C_23  and  C_25
REMARK   11  A    between atoms: N_27  and  C_28
REMARK   12  A    between atoms: C_32  and  C_34
REMARK                            x       y       z     vdW  Elec       q    Type
REMARK                         _______ _______ _______ _____ _____    ______ ____
ROOT
ATOM      1  C   UNL     1      -8.716  -2.381  -1.394  0.00  0.00    +0.234 C 
ATOM      2  O   UNL     1      -8.905  -1.762  -0.368  0.00  0.00    -0.274 OA
ATOM      3  N   UNL     1      -9.719  -3.091  -1.947  0.00  0.00    -0.284 N 
ATOM      4  H   UNL     1      -9.551  -3.642  -2.727  0.00  0.00    +0.155 HD
ENDROOT
BRANCH   3   5
ATOM      5  C   UNL     1     -11.004  -3.034  -1.395  0.00  0.00    +0.034 A 
ATOM      6  C   UNL     1     -11.831  -4.150  -1.442  0.00  0.00    +0.023 A 
ATOM      7  C   UNL     1     -13.100  -4.099  -0.898  0.00  0.00    +0.003 A 
ATOM      8  C   UNL     1     -13.556  -2.940  -0.305  0.00  0.00    +0.013 A 
ATOM      9  C   UNL     1     -12.733  -1.813  -0.252  0.00  0.00    +0.039 A 
ATOM     10  C   UNL     1     -11.450  -1.867  -0.796  0.00  0.00    +0.036 A 
BRANCH   9  11
ATOM     11  C   UNL     1     -13.219  -0.569   0.383  0.00  0.00    +0.248 C 
ATOM     12  O   UNL     1     -12.501   0.411   0.427  0.00  0.00    -0.270 OA
ATOM     13  N   UNL     1     -14.458  -0.522   0.911  0.00  0.00    -0.281 N 
ATOM     14  H   UNL     1     -15.005  -1.323   0.938  0.00  0.00    +0.155 HD
BRANCH  13  15
ATOM     15  C   UNL     1     -14.955   0.682   1.421  0.00  0.00    +0.034 A 
ATOM     16  C   UNL     1     -15.822   0.673   2.506  0.00  0.00    +0.023 A 
ATOM     17  C   UNL     1     -16.311   1.863   3.006  0.00  0.00    +0.002 A 
ATOM     18  C   UNL     1     -15.938   3.064   2.429  0.00  0.00    +0.012 A 
ATOM     19  C   UNL     1     -15.075   3.076   1.349  0.00  0.00    +0.057 A 
ATOM     20  C   UNL     1     -14.578   1.889   0.847  0.00  0.00    +0.035 A 
BRANCH  19  21
ATOM     21  C   UNL     1     -14.673   4.386   0.722  0.00  0.00    +0.417 C 
ATOM     22  F   UNL     1     -15.295   5.439   1.401  0.00  0.00    -0.166 F 
ATOM     23  F   UNL     1     -13.284   4.534   0.804  0.00  0.00    -0.166 F 
ATOM     24  F   UNL     1     -15.065   4.400  -0.621  0.00  0.00    -0.166 F 
ENDBRANCH  19  21
ENDBRANCH  13  15
ENDBRANCH   9  11
ENDBRANCH   3   5
BRANCH   1  25
ATOM     25  C   UNL     1      -7.360  -2.356  -2.050  0.00  0.00    +0.198 C 
BRANCH  25  26
ATOM     26  N   UNL     1      -6.451  -1.520  -1.261  0.00  0.00    -0.335 N 
ATOM     27  H   UNL     1      -6.768  -1.090  -0.452  0.00  0.00    +0.147 HD
BRANCH  26  31
ATOM     28  C   UNL     1      -2.510  -0.997  -2.492  0.00  0.00    +0.037 A 
ATOM     29  C   UNL     1      -2.968  -0.376  -1.325  0.00  0.00    +0.015 A 
ATOM     30  C   UNL     1      -4.272  -0.551  -0.921  0.00  0.00    +0.023 A 
ATOM     31  C   UNL     1      -5.134  -1.345  -1.672  0.00  0.00    +0.028 A 
ATOM     32  C   UNL     1      -4.681  -1.964  -2.834  0.00  0.00    +0.023 A 
ATOM     33  C   UNL     1      -3.380  -1.788  -3.247  0.00  0.00    +0.015 A 
BRANCH  28  35
ATOM     34  N   UNL     1      -0.107  -0.932  -2.039  0.00  0.00    -0.298 N 
ATOM     35  C   UNL     1      -1.113  -0.811  -2.928  0.00  0.00    +0.247 C 
ATOM     36  O   UNL     1      -0.869  -0.548  -4.090  0.00  0.00    -0.270 OA
BRANCH  34  38
ATOM     37  C   UNL     1       1.933  -2.003  -2.857  0.00  0.00    +0.024 C 
ATOM     38  C   UNL     1       1.274  -0.682  -2.457  0.00  0.00    +0.104 C 
ENDBRANCH  34  38
BRANCH  34  39
ATOM     39  C   UNL     1      -0.396  -1.314  -0.654  0.00  0.00    +0.104 C 
ATOM     40  C   UNL     1      -0.396  -0.066   0.230  0.00  0.00    +0.024 C 
ENDBRANCH  34  39
ENDBRANCH  28  35
ENDBRANCH  26  31
ENDBRANCH  25  26
ENDBRANCH   1  25
TORSDOF 10
