REMARK  Name = ZINC09634070
REMARK  10 active torsions:
REMARK  status: ('A' for Active; 'I' for Inactive)
REMARK    1  A    between atoms: C_1  and  C_2
REMARK    2  A    between atoms: C_2  and  C_3
REMARK    3  A    between atoms: C_2  and  N_4
REMARK    4  A    between atoms: N_4  and  S_5
REMARK    5  A    between atoms: S_5  and  C_8
REMARK    6  A    between atoms: C_11  and  N_14
REMARK    7  A    between atoms: C_15  and  C_17
REMARK    8  A    between atoms: C_17  and  C_19
REMARK    9  A    between atoms: C_17  and  N_63
REMARK   10  A    between atoms: C_22  and  C_25
REMARK                            x       y       z     vdW  Elec       q    Type
REMARK                         _______ _______ _______ _____ _____    ______ ____
ROOT
ATOM      1  N   UNL     1      -2.657   2.862   5.145  0.00  0.00    -0.287 N 
ATOM      2  C   UNL     1      -2.686   4.156   5.519  0.00  0.00    +0.203 C 
ATOM      3  O   UNL     1      -2.053   4.982   4.894  0.00  0.00    -0.277 OA
ATOM      4  H   UNL     1      -3.213   2.212   5.603  0.00  0.00    +0.155 HD
ENDROOT
BRANCH   1   8
ATOM      5  C   UNL     1      -0.180   1.650   2.022  0.00  0.00    +0.105 A 
ATOM      6  C   UNL     1      -0.393   0.810   3.100  0.00  0.00    +0.030 A 
ATOM      7  C   UNL     1      -1.210   1.211   4.139  0.00  0.00    +0.025 A 
ATOM      8  C   UNL     1      -1.826   2.454   4.096  0.00  0.00    +0.033 A 
ATOM      9  C   UNL     1      -1.614   3.293   3.010  0.00  0.00    +0.025 A 
ATOM     10  C   UNL     1      -0.793   2.889   1.976  0.00  0.00    +0.030 A 
BRANCH   5  11
ATOM     11  S   UNL     1       0.867   1.137   0.701  0.00  0.00    +0.059 S 
ATOM     12  O   UNL     1       0.465   1.875  -0.445  0.00  0.00    -0.153 OA
ATOM     13  O   UNL     1       0.886  -0.283   0.725  0.00  0.00    -0.153 OA
BRANCH  11  14
ATOM     14  N   UNL     1       2.402   1.637   1.071  0.00  0.00    -0.187 NA
ATOM     15  H   UNL     1       2.842   2.302   0.519  0.00  0.00    +0.148 HD
BRANCH  14  17
ATOM     16  C   UNL     1       3.976  -0.093   1.786  0.00  0.00    +0.025 C 
ATOM     17  C   UNL     1       3.095   1.075   2.233  0.00  0.00    +0.070 C 
ATOM     18  C   UNL     1       3.967   2.154   2.878  0.00  0.00    +0.025 C 
ENDBRANCH  14  17
ENDBRANCH  11  14
ENDBRANCH   5  11
ENDBRANCH   1   8
BRANCH   2  19
ATOM     19  C   UNL     1      -3.504   4.578   6.712  0.00  0.00    +0.016 C 
ATOM     20  C   UNL     1      -4.990   4.542   6.350  0.00  0.00    -0.004 C 
BRANCH  19  26
ATOM     21  C   UNL     1      -3.613   6.254   8.456  0.00  0.00    -0.077 C 
ATOM     22  C   UNL     1      -3.082   7.623   8.887  0.00  0.00    -0.009 C 
ATOM     23  C   UNL     1      -3.563   8.686   7.896  0.00  0.00    +0.041 C 
ATOM     24  C   UNL     1      -3.088   8.314   6.489  0.00  0.00    -0.009 C 
ATOM     25  C   UNL     1      -3.618   6.925   6.127  0.00  0.00    -0.077 C 
ATOM     26  N   UNL     1      -3.099   5.944   7.104  0.00  0.00    +0.387 N 
ATOM     27  H   UNL     1      -2.074   5.997   7.117  0.00  0.00    -0.081 HD
BRANCH  23  28
ATOM     28  C   UNL     1      -2.996  10.028   8.280  0.00  0.00    +0.082 A 
ATOM     29  N   UNL     1      -3.639  11.118   8.593  0.00  0.00    -0.244 NA
ATOM     30  C   UNL     1      -3.006  12.264   8.922  0.00  0.00    +0.078 A 
ATOM     31  C   UNL     1      -3.557  13.514   9.280  0.00  0.00    +0.029 A 
ATOM     32  C   UNL     1      -2.751  14.567   9.583  0.00  0.00    +0.002 A 
ATOM     33  C   UNL     1      -1.368  14.458   9.553  0.00  0.00    +0.001 A 
ATOM     34  C   UNL     1      -0.790  13.251   9.207  0.00  0.00    +0.017 A 
ATOM     35  C   UNL     1      -1.595  12.181   8.899  0.00  0.00    +0.039 A 
ATOM     36  S   UNL     1      -1.329  10.493   8.421  0.00  0.00    -0.072 S 
ENDBRANCH  23  28
ENDBRANCH  19  26
ENDBRANCH   2  19
TORSDOF 7
