REMARK  Name = ZINC09101540
REMARK  4 active torsions:
REMARK  status: ('A' for Active; 'I' for Inactive)
REMARK    1  A    between atoms: C_1  and  O_2
REMARK    2  A    between atoms: O_2  and  C_3
REMARK    3  A    between atoms: C_6  and  C_9
REMARK    4  A    between atoms: C_20  and  C_22
REMARK                            x       y       z     vdW  Elec       q    Type
REMARK                         _______ _______ _______ _____ _____    ______ ____
ROOT
ATOM      1  C   UNL     1      -2.365   2.091   0.026  0.00  0.00    +0.250 C 
ATOM      2  O   UNL     1      -2.537   0.888   0.021  0.00  0.00    -0.270 OA
ATOM      3  N   UNL     1      -1.113   2.593   0.022  0.00  0.00    -0.261 N 
ATOM      4  C   UNL     1      -0.021   1.734   0.012  0.00  0.00    +0.165 A 
ATOM      5  N   UNL     1       1.262   2.028   0.001  0.00  0.00    -0.229 NA
ATOM      6  C   UNL     1       2.205   1.088  -0.013  0.00  0.00    +0.066 A 
ATOM      7  C   UNL     1       1.764  -0.197  -0.016  0.00  0.00    +0.015 A 
ATOM      8  S   UNL     1       0.002  -0.004   0.002  0.00  0.00    -0.057 S 
ATOM      9  C   UNL     1       2.581  -1.444  -0.032  0.00  0.00    +0.044 C 
ATOM     10  C   UNL     1       4.022  -1.070  -0.412  0.00  0.00    +0.006 C 
ATOM     11  C   UNL     1       4.455   0.136   0.425  0.00  0.00    +0.019 C 
ATOM     12  C   UNL     1       3.699   1.388  -0.025  0.00  0.00    +0.125 C 
ATOM     13  H   UNL     1      -0.976   3.553   0.026  0.00  0.00    +0.157 HD
ENDROOT
BRANCH  12  14
ATOM     14  C   UNL     1       3.994   2.526   0.918  0.00  0.00    +0.228 C 
ATOM     15  O   UNL     1       4.746   2.359   1.854  0.00  0.00    -0.275 OA
ATOM     16  N   UNL     1       3.421   3.730   0.721  0.00  0.00    -0.264 N 
ATOM     17  C   UNL     1       3.692   4.776   1.587  0.00  0.00    +0.165 A 
ATOM     18  N   UNL     1       4.465   4.788   2.648  0.00  0.00    -0.225 NA
ATOM     19  C   UNL     1       4.642   5.891   3.406  0.00  0.00    +0.080 A 
ATOM     20  C   UNL     1       5.444   6.039   4.561  0.00  0.00    +0.029 A 
ATOM     21  C   UNL     1       5.508   7.237   5.221  0.00  0.00    +0.002 A 
ATOM     22  C   UNL     1       4.793   8.344   4.785  0.00  0.00    +0.001 A 
ATOM     23  C   UNL     1       3.998   8.236   3.660  0.00  0.00    +0.017 A 
ATOM     24  C   UNL     1       3.928   7.039   2.991  0.00  0.00    +0.041 A 
ATOM     25  S   UNL     1       3.070   6.452   1.551  0.00  0.00    -0.052 S 
ATOM     26  H   UNL     1       2.819   3.864  -0.028  0.00  0.00    +0.157 HD
ENDBRANCH  12  14
BRANCH   1  30
ATOM     27  C   UNL     1      -5.703   4.716   0.057  0.00  0.00    +0.120 A 
ATOM     28  C   UNL     1      -5.902   3.340   0.051  0.00  0.00    +0.046 A 
ATOM     29  C   UNL     1      -4.823   2.486   0.041  0.00  0.00    +0.016 A 
ATOM     30  C   UNL     1      -3.525   3.003   0.036  0.00  0.00    +0.037 A 
ATOM     31  C   UNL     1      -3.328   4.387   0.048  0.00  0.00    +0.016 A 
ATOM     32  C   UNL     1      -4.413   5.234   0.053  0.00  0.00    +0.046 A 
BRANCH  27  34
ATOM     33  C   UNL     1      -6.493   6.956   0.072  0.00  0.00    +0.277 C 
ATOM     34  O   UNL     1      -6.770   5.554   0.067  0.00  0.00    -0.495 OA
ENDBRANCH  27  34
ENDBRANCH   1  30
TORSDOF 3
