REMARK  Name = ZINC64428262
REMARK  7 active torsions:
REMARK  status: ('A' for Active; 'I' for Inactive)
REMARK    1  A    between atoms: C_5  and  C_7
REMARK    2  A    between atoms: C_13  and  O_19
REMARK    3  A    between atoms: O_19  and  C_20
REMARK    4  A    between atoms: C_20  and  C_22
REMARK    5  A    between atoms: C_22  and  C_24
REMARK    6  A    between atoms: C_22  and  N_34
REMARK    7  A    between atoms: C_24  and  C_25
REMARK                            x       y       z     vdW  Elec       q    Type
REMARK                         _______ _______ _______ _____ _____    ______ ____
ROOT
ATOM      1  C   UNL     1       1.223  -2.308   0.084  0.00  0.00    +0.130 C 
ATOM      2  C   UNL     1       0.480  -2.940   1.270  0.00  0.00    +0.245 C 
ATOM      3  O   UNL     1      -0.874  -2.487   1.275  0.00  0.00    -0.490 OA
ATOM      4  C   UNL     1      -1.606  -2.618   0.144  0.00  0.00    +0.134 A 
ATOM      5  C   UNL     1      -2.990  -2.640   0.214  0.00  0.00    +0.092 A 
ATOM      6  C   UNL     1      -3.739  -2.768  -0.947  0.00  0.00    +0.135 A 
ATOM      7  C   UNL     1      -3.112  -2.875  -2.185  0.00  0.00    +0.047 A 
ATOM      8  C   UNL     1      -1.749  -2.858  -2.271  0.00  0.00    +0.018 A 
ATOM      9  C   UNL     1      -0.982  -2.732  -1.110  0.00  0.00    +0.060 A 
ATOM     10  C   UNL     1       0.490  -2.723  -1.179  0.00  0.00    +0.177 C 
ATOM     11  O   UNL     1       1.085  -3.030  -2.190  0.00  0.00    -0.291 OA
ENDROOT
BRANCH   1  16
ATOM     12  C   UNL     1       0.005   1.252   0.390  0.00  0.00    +0.000 A 
ATOM     13  C   UNL     1       1.197   1.950   0.450  0.00  0.00    +0.003 A 
ATOM     14  C   UNL     1       2.399   1.270   0.393  0.00  0.00    +0.038 A 
ATOM     15  C   UNL     1       2.409  -0.110   0.274  0.00  0.00    +0.127 A 
ATOM     16  C   UNL     1       1.214  -0.807   0.214  0.00  0.00    +0.002 A 
ATOM     17  C   UNL     1       0.013  -0.125   0.271  0.00  0.00    +0.007 A 
ATOM     18  F   UNL     1       3.583  -0.775   0.218  0.00  0.00    -0.205 F 
ENDBRANCH   1  16
BRANCH   6  19
ATOM     19  O   UNL     1      -5.094  -2.789  -0.874  0.00  0.00    -0.425 OA
BRANCH  19  20
ATOM     20  C   UNL     1      -5.725  -1.655  -0.530  0.00  0.00    +0.330 C 
ATOM     21  O   UNL     1      -5.097  -0.631  -0.397  0.00  0.00    -0.249 OA
BRANCH  20  22
ATOM     22  C   UNL     1      -7.216  -1.659  -0.309  0.00  0.00    +0.165 C 
BRANCH  22  23
ATOM     23  N   UNL     1      -7.595  -0.490   0.495  0.00  0.00    -0.318 NA
ATOM     24  H   UNL     1      -7.186  -0.537   1.417  0.00  0.00    +0.119 HD
ATOM     25  H   UNL     1      -7.339   0.368   0.030  0.00  0.00    +0.119 HD
ENDBRANCH  22  23
BRANCH  22  26
ATOM     26  C   UNL     1      -7.932  -1.602  -1.660  0.00  0.00    +0.063 C 
BRANCH  26  27
ATOM     27  C   UNL     1      -9.418  -1.730  -1.447  0.00  0.00    -0.040 C 
ATOM     28  C   UNL     1     -10.314  -0.722  -1.343  0.00  0.00    -0.001 A 
ATOM     29  C   UNL     1     -10.178   0.739  -1.394  0.00  0.00    +0.010 A 
ATOM     30  C   UNL     1     -11.284   1.505  -1.255  0.00  0.00    +0.001 A 
ATOM     31  C   UNL     1     -12.552   0.942  -1.062  0.00  0.00    +0.002 A 
ATOM     32  C   UNL     1     -12.757  -0.392  -1.004  0.00  0.00    +0.026 A 
ATOM     33  C   UNL     1     -11.665  -1.293  -1.139  0.00  0.00    +0.043 A 
ATOM     34  N   UNL     1     -11.606  -2.602  -1.118  0.00  0.00    -0.380 N 
ATOM     35  C   UNL     1     -10.210  -3.011  -1.312  0.00  0.00    +0.144 C 
ATOM     36  H   UNL     1     -12.360  -3.201  -0.998  0.00  0.00    +0.160 HD
ENDBRANCH  26  27
ENDBRANCH  22  26
ENDBRANCH  20  22
ENDBRANCH  19  20
ENDBRANCH   6  19
TORSDOF 7
