REMARK  Name = ZINC44790296
REMARK  3 active torsions:
REMARK  status: ('A' for Active; 'I' for Inactive)
REMARK    1  A    between atoms: C_1  and  C_2
REMARK    2  A    between atoms: C_12  and  O_25
REMARK    3  A    between atoms: C_17  and  O_24
REMARK                            x       y       z     vdW  Elec       q    Type
REMARK                         _______ _______ _______ _____ _____    ______ ____
ROOT
ATOM      1  C   UNL     1      -0.019   1.524   0.010  0.00  0.00    +0.052 C 
ATOM      2  C   UNL     1       0.002  -0.004   0.002  0.00  0.00    +0.174 C 
ATOM      3  C   UNL     1      -1.419  -0.555  -0.015  0.00  0.00    +0.045 C 
ATOM      4  C   UNL     1      -2.167  -0.237   1.277  0.00  0.00    +0.008 C 
ATOM      5  C   UNL     1      -3.604  -0.743   1.180  0.00  0.00    +0.027 C 
ATOM      6  C   UNL     1      -3.802  -2.052   1.889  0.00  0.00    -0.031 C 
ATOM      7  C   UNL     1      -3.419  -3.185   1.361  0.00  0.00    -0.027 C 
ATOM      8  C   UNL     1      -3.694  -4.511   1.991  0.00  0.00    +0.020 C 
ATOM      9  C   UNL     1      -5.089  -4.526   2.634  0.00  0.00    +0.039 C 
ATOM     10  C   UNL     1      -4.952  -5.210   3.997  0.00  0.00    +0.115 C 
ATOM     11  C   UNL     1      -3.473  -5.530   4.234  0.00  0.00    +0.038 C 
ATOM     12  C   UNL     1      -2.686  -4.971   3.035  0.00  0.00    +0.031 C 
ATOM     13  C   UNL     1      -1.760  -3.861   3.514  0.00  0.00    +0.141 C 
ATOM     14  C   UNL     1      -0.802  -3.485   2.412  0.00  0.00    +0.011 C 
ATOM     15  C   UNL     1      -0.265  -2.273   2.432  0.00  0.00    +0.090 C 
ATOM     16  C   UNL     1       0.647  -1.813   1.381  0.00  0.00    +0.332 C 
ATOM     17  O   UNL     1       1.283  -2.598   0.713  0.00  0.00    -0.246 OA
ATOM     18  O   UNL     1       0.728  -0.484   1.133  0.00  0.00    -0.459 OA
ENDROOT
BRANCH  13  19
ATOM     19  O   UNL     1      -1.007  -4.317   4.643  0.00  0.00    -0.387 OA
ATOM     20  H   UNL     1      -0.396  -3.658   5.000  0.00  0.00    +0.210 HD
ENDBRANCH  13  19
BRANCH  10  21
ATOM     21  O   UNL     1      -5.425  -4.335   5.024  0.00  0.00    -0.392 OA
ATOM     22  H   UNL     1      -6.359  -4.097   4.939  0.00  0.00    +0.210 HD
ENDBRANCH  10  21
TORSDOF 2
