REMARK  Name = ZINC09965920
REMARK  6 active torsions:
REMARK  status: ('A' for Active; 'I' for Inactive)
REMARK    1  A    between atoms: C_1  and  C_2
REMARK    2  A    between atoms: C_5  and  N_9
REMARK    3  A    between atoms: C_18  and  S_19
REMARK    4  A    between atoms: S_19  and  C_20
REMARK    5  A    between atoms: C_20  and  C_21
REMARK    6  A    between atoms: N_26  and  C_27
REMARK                            x       y       z     vdW  Elec       q    Type
REMARK                         _______ _______ _______ _____ _____    ______ ____
ROOT
ATOM      1  N   UNL     1       2.404   1.105  -0.015  0.00  0.00    -0.255 N 
ATOM      2  C   UNL     1       3.548   1.804  -0.130  0.00  0.00    +0.268 A 
ATOM      3  O   UNL     1       3.523   3.019  -0.220  0.00  0.00    -0.267 OA
ATOM      4  C   UNL     1       4.794   1.101  -0.141  0.00  0.00    +0.076 A 
ATOM      5  C   UNL     1       6.146   1.653  -0.250  0.00  0.00    -0.023 A 
ATOM      6  C   UNL     1       7.169   0.775  -0.241  0.00  0.00    -0.004 A 
ATOM      7  S   UNL     1       6.406  -0.818  -0.089  0.00  0.00    -0.073 S 
ATOM      8  C   UNL     1       4.710  -0.298  -0.038  0.00  0.00    +0.117 A 
ATOM      9  N   UNL     1       3.547  -0.930   0.068  0.00  0.00    -0.215 NA
ATOM     10  C   UNL     1       2.413  -0.259   0.080  0.00  0.00    +0.178 A 
ATOM     11  C   UNL     1       8.632   1.084  -0.339  0.00  0.00    +0.043 C 
ATOM     12  C   UNL     1       8.790   2.532  -0.824  0.00  0.00    +0.005 C 
ATOM     13  C   UNL     1       7.864   3.431   0.000  0.00  0.00    +0.005 C 
ATOM     14  C   UNL     1       6.406   3.153  -0.369  0.00  0.00    +0.037 C 
ENDROOT
BRANCH   1  19
ATOM     15  C   UNL     1      -2.552   3.871   0.046  0.00  0.00    +0.045 C 
ATOM     16  C   UNL     1      -1.236   3.136   0.030  0.00  0.00    -0.032 A 
ATOM     17  C   UNL     1      -0.694   2.717  -1.171  0.00  0.00    +0.007 A 
ATOM     18  C   UNL     1       0.509   2.039  -1.189  0.00  0.00    +0.026 A 
ATOM     19  C   UNL     1       1.180   1.787   0.000  0.00  0.00    +0.053 A 
ATOM     20  C   UNL     1       0.637   2.212   1.205  0.00  0.00    +0.046 A 
ATOM     21  C   UNL     1      -0.571   2.886   1.217  0.00  0.00    +0.046 A 
ATOM     22 CL   UNL     1      -1.251   3.418   2.722  0.00  0.00    -0.083 Cl
ENDBRANCH   1  19
BRANCH  10  23
ATOM     23  S   UNL     1       0.888  -1.131   0.223  0.00  0.00    -0.078 S 
BRANCH  23  24
ATOM     24  C   UNL     1       1.505  -2.830   0.310  0.00  0.00    +0.173 C 
BRANCH  24  25
ATOM     25  C   UNL     1       0.343  -3.780   0.439  0.00  0.00    +0.231 C 
ATOM     26  O   UNL     1      -0.791  -3.351   0.469  0.00  0.00    -0.274 OA
ATOM     27  N   UNL     1       0.563  -5.107   0.521  0.00  0.00    -0.240 N 
ATOM     28  C   UNL     1      -0.477  -5.957   0.637  0.00  0.00    +0.306 C 
ATOM     29  O   UNL     1      -1.613  -5.527   0.667  0.00  0.00    -0.252 OA
ATOM     30  N   UNL     1      -0.257  -7.284   0.719  0.00  0.00    -0.302 N 
ATOM     31  C   UNL     1      -1.387  -8.208   0.844  0.00  0.00    +0.129 C 
ATOM     32  H   UNL     1       1.470  -5.451   0.498  0.00  0.00    +0.159 HD
ATOM     33  H   UNL     1       0.650  -7.628   0.695  0.00  0.00    +0.150 HD
ENDBRANCH  24  25
ENDBRANCH  23  24
ENDBRANCH  10  23
TORSDOF 4
