REMARK  Name = ZINC27552043
REMARK  8 active torsions:
REMARK  status: ('A' for Active; 'I' for Inactive)
REMARK    1  A    between atoms: C_1  and  C_2
REMARK    2  A    between atoms: N_5  and  C_7
REMARK    3  A    between atoms: C_15  and  N_35
REMARK    4  A    between atoms: C_17  and  C_33
REMARK    5  A    between atoms: C_18  and  C_19
REMARK    6  A    between atoms: C_22  and  O_25
REMARK    7  A    between atoms: O_25  and  C_26
REMARK    8  A    between atoms: C_26  and  C_27
REMARK                            x       y       z     vdW  Elec       q    Type
REMARK                         _______ _______ _______ _____ _____    ______ ____
ROOT
ATOM      1  C   UNL     1      -5.428  -4.310   1.207  0.00  0.00    +0.068 C 
ATOM      2  C   UNL     1      -6.921  -4.492   1.291  0.00  0.00    +0.072 A 
ATOM      3  C   UNL     1      -7.846  -3.524   1.683  0.00  0.00    +0.068 A 
ATOM      4  C   UNL     1      -9.120  -4.104   1.622  0.00  0.00    +0.228 A 
ATOM      5  N   UNL     1      -8.954  -5.365   1.209  0.00  0.00    -0.200 N 
ATOM      6  N   UNL     1      -7.582  -5.588   1.008  0.00  0.00    -0.168 NA
ATOM      7  O   UNL     1     -10.223  -3.395   1.952  0.00  0.00    -0.452 OA
ATOM      8  C   UNL     1     -10.050  -2.372   2.935  0.00  0.00    +0.284 C 
ATOM      9  C   UNL     1      -8.806  -1.557   2.712  0.00  0.00    +0.093 C 
ATOM     10  C   UNL     1      -7.688  -2.120   2.109  0.00  0.00    +0.014 C 
ENDROOT
BRANCH   5  11
ATOM     11  C   UNL     1      -9.976  -6.303   1.009  0.00  0.00    +0.069 A 
ATOM     12  C   UNL     1     -11.087  -6.310   1.842  0.00  0.00    +0.029 A 
ATOM     13  C   UNL     1     -12.094  -7.233   1.640  0.00  0.00    +0.017 A 
ATOM     14  C   UNL     1     -11.993  -8.156   0.615  0.00  0.00    +0.018 A 
ATOM     15  C   UNL     1     -10.885  -8.155  -0.214  0.00  0.00    +0.017 A 
ATOM     16  C   UNL     1      -9.877  -7.231  -0.019  0.00  0.00    +0.029 A 
ATOM     17 BR   UNL     1     -13.370  -9.424   0.346  0.00  0.00    -0.050 Br
ENDBRANCH   5  11
BRANCH  10  18
ATOM     18  C   UNL     1      -6.431  -1.369   1.913  0.00  0.00    -0.016 A 
ATOM     19  C   UNL     1      -5.693  -0.939   3.019  0.00  0.00    +0.012 A 
ATOM     20  C   UNL     1      -4.521  -0.239   2.832  0.00  0.00    +0.046 A 
ATOM     21  C   UNL     1      -4.072   0.039   1.547  0.00  0.00    +0.121 A 
ATOM     22  C   UNL     1      -4.806  -0.383   0.445  0.00  0.00    +0.046 A 
ATOM     23  C   UNL     1      -5.977  -1.087   0.623  0.00  0.00    +0.012 A 
BRANCH  21  24
ATOM     24  O   UNL     1      -2.917   0.728   1.367  0.00  0.00    -0.487 OA
BRANCH  24  25
ATOM     25  C   UNL     1      -2.514   0.980   0.019  0.00  0.00    +0.264 C 
BRANCH  25  26
ATOM     26  C   UNL     1      -1.219   1.751   0.017  0.00  0.00    -0.010 A 
ATOM     27  C   UNL     1      -0.013   1.076   0.008  0.00  0.00    +0.007 A 
ATOM     28  C   UNL     1       1.175   1.783   0.000  0.00  0.00    +0.000 A 
ATOM     29  C   UNL     1       1.156   3.165   0.008  0.00  0.00    +0.000 A 
ATOM     30  C   UNL     1      -0.050   3.840   0.022  0.00  0.00    +0.000 A 
ATOM     31  C   UNL     1      -1.238   3.133   0.030  0.00  0.00    +0.007 A 
ENDBRANCH  25  26
ENDBRANCH  24  25
ENDBRANCH  21  24
ENDBRANCH  10  18
BRANCH   8  32
ATOM     32  N   UNL     1     -11.216  -1.480   2.903  0.00  0.00    -0.292 NA
ATOM     33  H   UNL     1     -11.093  -0.688   3.657  0.00  0.00    +0.122 HD
ATOM     34  H   UNL     1     -11.304  -1.026   1.905  0.00  0.00    +0.122 HD
ENDBRANCH   8  32
BRANCH   9  35
ATOM     35  C   UNL     1      -8.775  -0.185   3.121  0.00  0.00    +0.101 C 
ATOM     36  N   UNL     1      -8.751   0.903   3.446  0.00  0.00    -0.191 NA
ENDBRANCH   9  35
TORSDOF 7
