REMARK  Name = ZINC33630820
REMARK  4 active torsions:
REMARK  status: ('A' for Active; 'I' for Inactive)
REMARK    1  A    between atoms: C_1  and  C_2
REMARK    2  A    between atoms: C_5  and  C_8
REMARK    3  A    between atoms: C_14  and  C_16
REMARK    4  A    between atoms: N_24  and  C_25
REMARK                            x       y       z     vdW  Elec       q    Type
REMARK                         _______ _______ _______ _____ _____    ______ ____
ROOT
ATOM      1  C   UNL     1      -2.061   4.608  -0.776  0.00  0.00    +0.134 A 
ATOM      2  N   UNL     1      -2.432   5.876  -0.651  0.00  0.00    -0.140 NA
ATOM      3  N   UNL     1      -3.653   6.175  -0.529  0.00  0.00    -0.125 NA
ATOM      4  C   UNL     1      -4.601   5.251  -0.507  0.00  0.00    +0.188 A 
ATOM      5  S   UNL     1      -3.656   3.803  -0.690  0.00  0.00    -0.030 S 
ATOM      6  N   UNL     1      -5.976   5.399  -0.375  0.00  0.00    -0.262 N 
ATOM      7  C   UNL     1      -6.512   6.629  -0.244  0.00  0.00    +0.239 C 
ATOM      8  O   UNL     1      -5.794   7.606  -0.242  0.00  0.00    -0.273 OA
ATOM      9  H   UNL     1      -6.627   4.513  -0.378  0.00  0.00    +0.157 HD
ENDROOT
BRANCH   7  10
ATOM     10  C   UNL     1      -8.003   6.789  -0.101  0.00  0.00    +0.164 C 
ATOM     11  C   UNL     1      -8.692   6.693  -1.486  0.00  0.00    +0.033 C 
ATOM     12  C   UNL     1     -10.006   7.478  -1.235  0.00  0.00    +0.021 C 
ATOM     13  C   UNL     1      -9.562   8.597  -0.269  0.00  0.00    +0.110 C 
ATOM     14  N   UNL     1      -8.329   8.141   0.389  0.00  0.00    -0.274 N 
ATOM     15  C   UNL     1      -7.616   8.842   1.292  0.00  0.00    +0.307 C 
ATOM     16  O   UNL     1      -6.607   8.364   1.774  0.00  0.00    -0.252 OA
ATOM     17  N   UNL     1      -8.020  10.074   1.660  0.00  0.00    -0.269 N 
ATOM     18  H   UNL     1      -8.881  10.543   1.161  0.00  0.00    +0.156 HD
BRANCH  17  19
ATOM     19  C   UNL     1      -7.344  10.758   2.677  0.00  0.00    +0.036 A 
ATOM     20  C   UNL     1      -6.787  10.054   3.737  0.00  0.00    +0.023 A 
ATOM     21  C   UNL     1      -6.116  10.730   4.737  0.00  0.00    +0.003 A 
ATOM     22  C   UNL     1      -6.007  12.108   4.689  0.00  0.00    +0.015 A 
ATOM     23  C   UNL     1      -6.565  12.813   3.638  0.00  0.00    +0.020 A 
ATOM     24  C   UNL     1      -7.233  12.141   2.631  0.00  0.00    +0.038 A 
ATOM     25 BR   UNL     1      -6.415  14.697   3.578  0.00  0.00    -0.050 Br
ENDBRANCH  17  19
ENDBRANCH   7  10
BRANCH   1  30
ATOM     26  C   UNL     1       3.192   2.342  -1.395  0.00  0.00    +0.044 C 
ATOM     27  C   UNL     1       1.817   2.935  -1.233  0.00  0.00    -0.050 A 
ATOM     28  C   UNL     1       0.710   2.106  -1.191  0.00  0.00    +0.004 A 
ATOM     29  C   UNL     1      -0.553   2.644  -1.048  0.00  0.00    +0.011 A 
ATOM     30  C   UNL     1      -0.711   4.026  -0.935  0.00  0.00    +0.009 A 
ATOM     31  C   UNL     1       0.410   4.856  -0.978  0.00  0.00    +0.011 A 
ATOM     32  C   UNL     1       1.666   4.306  -1.126  0.00  0.00    +0.004 A 
ENDBRANCH   1  30
TORSDOF 3
