REMARK  Name = ZINC41068354
REMARK  4 active torsions:
REMARK  status: ('A' for Active; 'I' for Inactive)
REMARK    1  A    between atoms: C_6  and  C_7
REMARK    2  A    between atoms: N_12  and  S_14
REMARK    3  A    between atoms: S_14  and  C_17
REMARK    4  A    between atoms: C_19  and  N_22
REMARK                            x       y       z     vdW  Elec       q    Type
REMARK                         _______ _______ _______ _____ _____    ______ ____
ROOT
ATOM      1  C   UNL     1      -1.203  -0.909   0.009  0.00  0.00    +0.053 C 
ATOM      2  C   UNL     1      -1.549  -1.310  -1.427  0.00  0.00    +0.012 C 
ATOM      3  C   UNL     1      -2.792  -2.202  -1.423  0.00  0.00    +0.018 C 
ATOM      4  C   UNL     1      -2.500  -3.475  -0.623  0.00  0.00    +0.109 C 
ATOM      5  N   UNL     1      -2.027  -3.095   0.715  0.00  0.00    -0.175 NA
ATOM      6  C   UNL     1      -0.893  -2.167   0.826  0.00  0.00    +0.119 C 
ENDROOT
BRANCH   1  12
ATOM      7  C   UNL     1      -0.016   1.349   0.009  0.00  0.00    +0.044 A 
ATOM      8  C   UNL     1       1.308   1.797  -0.001  0.00  0.00    +0.134 A 
ATOM      9  N   UNL     1       2.094   0.751  -0.014  0.00  0.00    -0.182 NA
ATOM     10  N   UNL     1       1.293  -0.398  -0.012  0.00  0.00    -0.281 N 
ATOM     11  H   UNL     1       1.610  -1.315  -0.021  0.00  0.00    +0.189 HD
ATOM     12  C   UNL     1       0.002  -0.004   0.002  0.00  0.00    +0.040 A 
ENDBRANCH   1  12
BRANCH   5  13
ATOM     13  S   UNL     1      -2.758  -3.700   2.072  0.00  0.00    +0.067 S 
ATOM     14  O   UNL     1      -2.494  -2.777   3.120  0.00  0.00    -0.152 OA
ATOM     15  O   UNL     1      -4.078  -4.066   1.694  0.00  0.00    -0.152 OA
BRANCH  13  16
ATOM     16  C   UNL     1      -1.922  -5.193   2.493  0.00  0.00    +0.144 A 
ATOM     17  C   UNL     1      -0.851  -5.371   3.304  0.00  0.00    +0.059 A 
ATOM     18  C   UNL     1      -0.356  -6.652   3.491  0.00  0.00    +0.034 A 
ATOM     19  C   UNL     1      -0.962  -7.688   2.854  0.00  0.00    +0.069 A 
ATOM     20  S   UNL     1      -2.272  -6.862   1.966  0.00  0.00    -0.075 S 
BRANCH  18  21
ATOM     21  N   UNL     1       0.755  -6.875   4.327  0.00  0.00    -0.358 N 
ATOM     22  H   UNL     1       1.181  -6.129   4.777  0.00  0.00    +0.142 HD
ATOM     23  H   UNL     1       1.094  -7.775   4.451  0.00  0.00    +0.142 HD
ENDBRANCH  18  21
ENDBRANCH  13  16
ENDBRANCH   5  13
TORSDOF 4
