REMARK  Name = ZINC16017153
REMARK  8 active torsions:
REMARK  status: ('A' for Active; 'I' for Inactive)
REMARK    1  A    between atoms: C_1  and  C_2
REMARK    2  A    between atoms: C_2  and  C_3
REMARK    3  A    between atoms: C_2  and  C_4
REMARK    4  A    between atoms: N_6  and  C_7
REMARK    5  A    between atoms: C_10  and  N_13
REMARK    6  A    between atoms: C_14  and  C_16
REMARK    7  A    between atoms: C_18  and  S_23
REMARK    8  A    between atoms: S_23  and  N_26
REMARK                            x       y       z     vdW  Elec       q    Type
REMARK                         _______ _______ _______ _____ _____    ______ ____
ROOT
ATOM      1  N   UNL     1      -3.754  -0.738   3.160  0.00  0.00    -0.281 N 
ATOM      2  C   UNL     1      -3.541   0.477   3.702  0.00  0.00    +0.249 C 
ATOM      3  O   UNL     1      -4.152   0.815   4.697  0.00  0.00    -0.270 OA
ATOM      4  H   UNL     1      -3.318  -0.983   2.329  0.00  0.00    +0.155 HD
ENDROOT
BRANCH   2   5
ATOM      5  C   UNL     1      -2.563   1.399   3.086  0.00  0.00    +0.053 A 
ATOM      6  C   UNL     1      -1.859   1.014   1.943  0.00  0.00    +0.042 A 
ATOM      7  C   UNL     1      -0.949   1.879   1.373  0.00  0.00    +0.106 A 
ATOM      8  C   UNL     1      -0.728   3.124   1.935  0.00  0.00    +0.029 A 
ATOM      9  C   UNL     1      -1.425   3.515   3.063  0.00  0.00    +0.018 A 
ATOM     10  C   UNL     1      -2.340   2.659   3.644  0.00  0.00    +0.030 A 
ATOM     11 BR   UNL     1      -3.287   3.192   5.192  0.00  0.00    -0.050 Br
BRANCH   7  12
ATOM     12  S   UNL     1      -0.060   1.394  -0.069  0.00  0.00    +0.061 S 
ATOM     13  O   UNL     1      -0.044  -0.026  -0.077  0.00  0.00    -0.153 OA
ATOM     14  O   UNL     1       1.130   2.170  -0.092  0.00  0.00    -0.153 OA
BRANCH  12  15
ATOM     15  N   UNL     1      -0.958   1.865  -1.378  0.00  0.00    -0.177 NA
ATOM     16  C   UNL     1      -1.981   1.053  -2.053  0.00  0.00    +0.109 C 
ATOM     17  C   UNL     1      -2.529   1.890  -3.227  0.00  0.00    +0.018 C 
ATOM     18  C   UNL     1      -1.382   2.900  -3.498  0.00  0.00    +0.018 C 
ATOM     19  C   UNL     1      -0.859   3.167  -2.065  0.00  0.00    +0.109 C 
ENDBRANCH  12  15
ENDBRANCH   7  12
ENDBRANCH   2   5
BRANCH   1  23
ATOM     20  C   UNL     1      -6.293  -3.448   5.055  0.00  0.00    +0.034 A 
ATOM     21  C   UNL     1      -6.572  -2.088   5.098  0.00  0.00    +0.025 A 
ATOM     22  C   UNL     1      -5.732  -1.191   4.471  0.00  0.00    +0.025 A 
ATOM     23  C   UNL     1      -4.607  -1.648   3.796  0.00  0.00    +0.034 A 
ATOM     24  C   UNL     1      -4.331  -3.009   3.749  0.00  0.00    +0.025 A 
ATOM     25  C   UNL     1      -5.169  -3.905   4.381  0.00  0.00    +0.025 A 
BRANCH  20  28
ATOM     26  C   UNL     1      -6.639  -5.462   6.277  0.00  0.00    +0.220 C 
ATOM     27  O   UNL     1      -5.455  -5.710   6.180  0.00  0.00    -0.275 OA
ATOM     28  N   UNL     1      -7.146  -4.359   5.692  0.00  0.00    -0.285 N 
ATOM     29  H   UNL     1      -8.102  -4.195   5.712  0.00  0.00    +0.155 HD
BRANCH  26  31
ATOM     30  C   UNL     1      -8.632  -6.929   6.124  0.00  0.00    +0.017 C 
ATOM     31  C   UNL     1      -7.542  -6.387   7.051  0.00  0.00    +0.069 C 
ATOM     32  C   UNL     1      -6.721  -7.552   7.608  0.00  0.00    +0.017 C 
ENDBRANCH  26  31
ENDBRANCH  20  28
ENDBRANCH   1  23
TORSDOF 6
