REMARK  Name = ZINC40415836
REMARK  4 active torsions:
REMARK  status: ('A' for Active; 'I' for Inactive)
REMARK    1  A    between atoms: C_1  and  C_2
REMARK    2  A    between atoms: C_7  and  N_8
REMARK    3  A    between atoms: N_11  and  C_12
REMARK    4  A    between atoms: C_25  and  C_27
REMARK                            x       y       z     vdW  Elec       q    Type
REMARK                         _______ _______ _______ _____ _____    ______ ____
ROOT
ATOM      1  C   UNL     1      -1.417  -1.184   5.246  0.00  0.00    +0.051 A 
ATOM      2  C   UNL     1      -1.133  -2.534   5.445  0.00  0.00    +0.028 A 
ATOM      3  C   UNL     1      -0.910  -2.977   6.736  0.00  0.00    +0.043 A 
ATOM      4  C   UNL     1      -0.977  -2.067   7.786  0.00  0.00    +0.099 A 
ATOM      5  N   UNL     1      -1.250  -0.792   7.559  0.00  0.00    -0.348 N 
ATOM      6  C   UNL     1      -1.461  -0.334   6.340  0.00  0.00    +0.107 A 
ATOM      7  N   UNL     1      -0.754  -2.502   9.089  0.00  0.00    -0.315 N 
ATOM      8  C   UNL     1      -0.975  -1.553  10.191  0.00  0.00    +0.108 C 
ATOM      9  C   UNL     1      -1.711  -2.186  11.374  0.00  0.00    +0.038 C 
ATOM     10  C   UNL     1      -2.824  -3.090  10.881  0.00  0.00    +0.109 C 
ATOM     11  N   UNL     1      -2.254  -4.413  10.630  0.00  0.00    -0.296 N 
ATOM     12  C   UNL     1      -1.566  -4.781   9.441  0.00  0.00    +0.127 C 
ATOM     13  C   UNL     1      -0.321  -3.873   9.294  0.00  0.00    +0.125 C 
ATOM     14  C   UNL     1      -2.389  -5.348  11.591  0.00  0.00    +0.247 C 
ATOM     15  O   UNL     1      -1.833  -6.423  11.477  0.00  0.00    -0.270 OA
ATOM     16  H   UNL     1      -1.291  -0.177   8.308  0.00  0.00    +0.167 HD
ENDROOT
BRANCH  14  17
ATOM     17  C   UNL     1      -3.214  -5.065  12.785  0.00  0.00    +0.037 A 
ATOM     18  C   UNL     1      -4.041  -6.057  13.316  0.00  0.00    +0.014 A 
ATOM     19  C   UNL     1      -4.807  -5.788  14.430  0.00  0.00    +0.021 A 
ATOM     20  C   UNL     1      -4.758  -4.537  15.022  0.00  0.00    +0.041 A 
ATOM     21  C   UNL     1      -3.939  -3.549  14.500  0.00  0.00    +0.021 A 
ATOM     22  C   UNL     1      -3.164  -3.808  13.390  0.00  0.00    +0.014 A 
ATOM     23 CL   UNL     1      -5.727  -4.205  16.424  0.00  0.00    -0.084 Cl
ENDBRANCH  14  17
BRANCH   1  27
ATOM     24  N   UNL     1      -2.258  -1.064   1.731  0.00  0.00    -0.269 N 
ATOM     25  C   UNL     1      -2.133  -1.508   2.997  0.00  0.00    +0.308 C 
ATOM     26  O   UNL     1      -2.456  -2.647   3.277  0.00  0.00    -0.252 OA
ATOM     27  N   UNL     1      -1.649  -0.691   3.954  0.00  0.00    -0.268 N 
ATOM     28  H   UNL     1      -1.939  -0.179   1.494  0.00  0.00    +0.156 HD
ATOM     29  H   UNL     1      -1.462   0.238   3.748  0.00  0.00    +0.156 HD
BRANCH  24  36
ATOM     30  C   UNL     1      -3.827   0.179  -0.292  0.00  0.00    +0.045 C 
ATOM     31  C   UNL     1      -3.622  -1.313  -0.246  0.00  0.00    -0.029 A 
ATOM     32  C   UNL     1      -4.199  -2.120  -1.208  0.00  0.00    +0.005 A 
ATOM     33  C   UNL     1      -4.011  -3.489  -1.167  0.00  0.00    +0.000 A 
ATOM     34  C   UNL     1      -3.246  -4.056  -0.164  0.00  0.00    +0.002 A 
ATOM     35  C   UNL     1      -2.667  -3.255   0.800  0.00  0.00    +0.023 A 
ATOM     36  C   UNL     1      -2.849  -1.879   0.759  0.00  0.00    +0.038 A 
ENDBRANCH  24  36
ENDBRANCH   1  27
TORSDOF 3
