REMARK  Name = ZINC39657127
REMARK  5 active torsions:
REMARK  status: ('A' for Active; 'I' for Inactive)
REMARK    1  A    between atoms: C_1  and  C_2
REMARK    2  A    between atoms: C_2  and  C_4
REMARK    3  A    between atoms: C_2  and  N_11
REMARK    4  A    between atoms: C_12  and  C_14
REMARK    5  A    between atoms: C_25  and  C_27
REMARK                            x       y       z     vdW  Elec       q    Type
REMARK                         _______ _______ _______ _____ _____    ______ ____
ROOT
ATOM      1  C   UNL     1       2.779  -1.102   2.407  0.00  0.00    +0.100 C 
ATOM      2  C   UNL     1       2.275  -2.509   2.798  0.00  0.00    +0.121 C 
ATOM      3  N   UNL     1       3.225  -3.442   2.147  0.00  0.00    -0.296 N 
ATOM      4  C   UNL     1       4.548  -2.793   2.309  0.00  0.00    +0.115 C 
ATOM      5  C   UNL     1       4.272  -1.292   2.090  0.00  0.00    -0.004 C 
ATOM      6  C   UNL     1       5.124  -0.455   3.040  0.00  0.00    -0.010 C 
ATOM      7  C   UNL     1       6.601  -0.614   2.668  0.00  0.00    -0.082 C 
ATOM      8  N   UNL     1       6.808  -0.180   1.281  0.00  0.00    +0.379 N 
ATOM      9  C   UNL     1       6.058  -1.050   0.367  0.00  0.00    -0.082 C 
ATOM     10  C   UNL     1       4.558  -0.909   0.641  0.00  0.00    -0.010 C 
ATOM     11  C   UNL     1       2.949  -4.615   1.544  0.00  0.00    +0.248 C 
ATOM     12  O   UNL     1       1.793  -4.971   1.406  0.00  0.00    -0.270 OA
ATOM     13  H   UNL     1       6.489   0.771   1.176  0.00  0.00    -0.086 HD
ATOM     14  H   UNL     1       7.791  -0.229   1.058  0.00  0.00    -0.086 HD
ENDROOT
BRANCH  11  15
ATOM     15  C   UNL     1       4.042  -5.464   1.054  0.00  0.00    +0.052 A 
ATOM     16  C   UNL     1       5.224  -5.536   1.719  0.00  0.00    +0.059 A 
ATOM     17  S   UNL     1       6.170  -6.599   0.832  0.00  0.00    -0.096 S 
ATOM     18  C   UNL     1       5.044  -7.008  -0.473  0.00  0.00    +0.020 A 
ATOM     19  C   UNL     1       3.889  -6.265  -0.163  0.00  0.00    +0.001 A 
ATOM     20  C   UNL     1       2.790  -6.387  -1.034  0.00  0.00    +0.010 A 
ATOM     21  C   UNL     1       2.862  -7.206  -2.133  0.00  0.00    +0.001 A 
ATOM     22  C   UNL     1       4.011  -7.932  -2.414  0.00  0.00    +0.001 A 
ATOM     23  C   UNL     1       5.109  -7.824  -1.582  0.00  0.00    +0.015 A 
ENDBRANCH  11  15
BRANCH   1  25
ATOM     24  N   UNL     1       1.839   0.721   1.025  0.00  0.00    -0.308 N 
ATOM     25  C   UNL     1       2.045  -0.600   1.190  0.00  0.00    +0.219 C 
ATOM     26  O   UNL     1       1.638  -1.386   0.360  0.00  0.00    -0.275 OA
ATOM     27  H   UNL     1       2.164   1.350   1.689  0.00  0.00    +0.149 HD
BRANCH  24  29
ATOM     28  C   UNL     1       2.109   1.366  -1.319  0.00  0.00    +0.033 C 
ATOM     29  C   UNL     1       1.125   1.209  -0.157  0.00  0.00    +0.100 C 
BRANCH  29  30
ATOM     30  C   UNL     1       0.495   2.543   0.151  0.00  0.00    -0.027 A 
ATOM     31  C   UNL     1       1.186   3.477   0.900  0.00  0.00    +0.006 A 
ATOM     32  C   UNL     1       0.609   4.701   1.183  0.00  0.00    +0.015 A 
ATOM     33  C   UNL     1      -0.660   4.991   0.716  0.00  0.00    +0.018 A 
ATOM     34  C   UNL     1      -1.351   4.056  -0.034  0.00  0.00    +0.015 A 
ATOM     35  C   UNL     1      -0.771   2.835  -0.321  0.00  0.00    +0.006 A 
ATOM     36 BR   UNL     1      -1.450   6.665   1.103  0.00  0.00    -0.050 Br
ENDBRANCH  29  30
ENDBRANCH  24  29
ENDBRANCH   1  25
TORSDOF 4
