REMARK  Name = ZINC15023235
REMARK  9 active torsions:
REMARK  status: ('A' for Active; 'I' for Inactive)
REMARK    1  A    between atoms: C_1  and  O_2
REMARK    2  A    between atoms: O_2  and  C_3
REMARK    3  A    between atoms: C_6  and  C_11
REMARK    4  A    between atoms: C_8  and  O_9
REMARK    5  A    between atoms: O_9  and  C_10
REMARK    6  A    between atoms: C_13  and  C_33
REMARK    7  A    between atoms: C_26  and  C_27
REMARK    8  A    between atoms: C_26  and  C_29
REMARK    9  A    between atoms: C_33  and  C_35
REMARK                            x       y       z     vdW  Elec       q    Type
REMARK                         _______ _______ _______ _____ _____    ______ ____
ROOT
ATOM      1  C   UNL     1      -0.438   1.540  -1.029  0.00  0.00    +0.078 C 
ATOM      2  C   UNL     1       0.707   1.341  -0.005  0.00  0.00    +0.155 C 
ATOM      3  N   UNL     1       1.818   2.155  -0.486  0.00  0.00    -0.310 N 
ATOM      4  C   UNL     1       2.754   2.622   0.405  0.00  0.00    +0.038 A 
ATOM      5  C   UNL     1       2.861   2.144   1.708  0.00  0.00    +0.026 A 
ATOM      6  C   UNL     1       3.813   2.678   2.557  0.00  0.00    +0.040 A 
ATOM      7  C   UNL     1       4.651   3.694   2.124  0.00  0.00    +0.124 A 
ATOM      8  C   UNL     1       4.547   4.184   0.835  0.00  0.00    +0.048 A 
ATOM      9  C   UNL     1       3.597   3.654  -0.028  0.00  0.00    -0.001 A 
ATOM     10  C   UNL     1       3.452   4.141  -1.420  0.00  0.00    +0.007 C 
ATOM     11  C   UNL     1       2.261   3.969  -2.021  0.00  0.00    -0.002 C 
ATOM     12  C   UNL     1       1.196   3.294  -1.211  0.00  0.00    +0.127 C 
ATOM     13  C   UNL     1       0.104   2.593  -2.037  0.00  0.00    +0.163 C 
ATOM     14  F   UNL     1       5.575   4.208   2.965  0.00  0.00    -0.205 F 
ENDROOT
BRANCH   1  18
ATOM     15  C   UNL     1      -1.286  -2.139  -3.037  0.00  0.00    +0.161 A 
ATOM     16  C   UNL     1       0.025  -1.782  -2.764  0.00  0.00    +0.049 A 
ATOM     17  C   UNL     1       0.296  -0.591  -2.115  0.00  0.00    +0.008 A 
ATOM     18  C   UNL     1      -0.739   0.245  -1.737  0.00  0.00    -0.036 A 
ATOM     19  C   UNL     1      -2.049  -0.108  -2.002  0.00  0.00    +0.053 A 
ATOM     20  C   UNL     1      -2.327  -1.297  -2.657  0.00  0.00    +0.162 A 
BRANCH  15  22
ATOM     21  C   UNL     1      -0.436  -4.122  -4.037  0.00  0.00    +0.277 C 
ATOM     22  O   UNL     1      -1.554  -3.309  -3.676  0.00  0.00    -0.491 OA
ENDBRANCH  15  22
BRANCH  20  23
ATOM     23  O   UNL     1      -3.615  -1.644  -2.923  0.00  0.00    -0.491 OA
ATOM     24  C   UNL     1      -4.632  -0.731  -2.504  0.00  0.00    +0.277 C 
ENDBRANCH  20  23
ENDBRANCH   1  18
BRANCH  13  25
ATOM     25  C   UNL     1       0.694   1.923  -3.250  0.00  0.00    +0.233 C 
ATOM     26  O   UNL     1       1.898   1.865  -3.386  0.00  0.00    -0.274 OA
ATOM     27  N   UNL     1      -0.116   1.388  -4.185  0.00  0.00    -0.328 N 
ATOM     28  H   UNL     1      -1.077   1.496  -4.114  0.00  0.00    +0.145 HD
ATOM     29  H   UNL     1       0.263   0.893  -4.929  0.00  0.00    +0.145 HD
ENDBRANCH  13  25
BRANCH  13  30
ATOM     30  C   UNL     1      -0.952   3.542  -2.424  0.00  0.00    +0.082 C 
ATOM     31  N   UNL     1      -1.768   4.275  -2.723  0.00  0.00    -0.195 NA
ENDBRANCH  13  30
BRANCH   2  32
ATOM     32  C   UNL     1       0.273   1.810   1.360  0.00  0.00    +0.184 C 
ATOM     33  O   UNL     1       0.599   2.908   1.756  0.00  0.00    -0.290 OA
BRANCH  32  34
ATOM     34  C   UNL     1      -0.548   0.935   2.212  0.00  0.00    +0.019 A 
ATOM     35  C   UNL     1      -0.932  -0.331   1.756  0.00  0.00    +0.011 A 
ATOM     36  C   UNL     1      -1.697  -1.147   2.563  0.00  0.00    +0.001 A 
ATOM     37  C   UNL     1      -2.094  -0.713   3.816  0.00  0.00    +0.000 A 
ATOM     38  C   UNL     1      -1.723   0.540   4.271  0.00  0.00    +0.001 A 
ATOM     39  C   UNL     1      -0.954   1.366   3.479  0.00  0.00    +0.011 A 
ENDBRANCH  32  34
ENDBRANCH   2  32
TORSDOF 7
