REMARK  Name = ZINC00930006
REMARK  7 active torsions:
REMARK  status: ('A' for Active; 'I' for Inactive)
REMARK    1  A    between atoms: C_1  and  C_2
REMARK    2  A    between atoms: C_11  and  S_12
REMARK    3  A    between atoms: S_12  and  C_13
REMARK    4  A    between atoms: C_13  and  C_14
REMARK    5  A    between atoms: N_16  and  C_17
REMARK    6  A    between atoms: C_20  and  N_23
REMARK    7  A    between atoms: C_24  and  C_26
REMARK                            x       y       z     vdW  Elec       q    Type
REMARK                         _______ _______ _______ _____ _____    ______ ____
ROOT
ATOM      1  C   UNL     1       3.471  -5.411   3.257  0.00  0.00    +0.171 C 
ENDROOT
BRANCH   1   2
ATOM      2  C   UNL     1       3.651  -6.811   3.786  0.00  0.00    +0.227 C 
ATOM      3  O   UNL     1       4.632  -7.090   4.442  0.00  0.00    -0.275 OA
ATOM      4  N   UNL     1       2.721  -7.752   3.530  0.00  0.00    -0.285 N 
ATOM      5  H   UNL     1       1.901  -7.512   3.069  0.00  0.00    +0.155 HD
BRANCH   4   6
ATOM      6  C   UNL     1       2.937  -9.077   3.929  0.00  0.00    +0.034 A 
ATOM      7  C   UNL     1       4.223  -9.602   3.926  0.00  0.00    +0.025 A 
ATOM      8  C   UNL     1       4.437 -10.907   4.322  0.00  0.00    +0.025 A 
ATOM      9  C   UNL     1       3.365 -11.697   4.716  0.00  0.00    +0.033 A 
ATOM     10  C   UNL     1       2.079 -11.174   4.715  0.00  0.00    +0.025 A 
ATOM     11  C   UNL     1       1.865  -9.868   4.322  0.00  0.00    +0.025 A 
BRANCH   9  12
ATOM     12  N   UNL     1       3.581 -13.022   5.115  0.00  0.00    -0.286 N 
ATOM     13  C   UNL     1       4.700 -13.348   5.792  0.00  0.00    +0.214 C 
ATOM     14  O   UNL     1       5.558 -12.512   5.984  0.00  0.00    -0.276 OA
ATOM     15  C   UNL     1       4.886 -14.751   6.311  0.00  0.00    +0.109 C 
ATOM     16  H   UNL     1       2.926 -13.706   4.904  0.00  0.00    +0.155 HD
ENDBRANCH   9  12
ENDBRANCH   4   6
ENDBRANCH   1   2
BRANCH   1  17
ATOM     17  S   UNL     1       4.876  -4.389   3.766  0.00  0.00    -0.096 S 
BRANCH  17  28
ATOM     18  C   UNL     1       6.541  -1.871   3.973  0.00  0.00    +0.046 C 
ATOM     19  C   UNL     1       5.260  -1.743   3.188  0.00  0.00    -0.018 A 
ATOM     20  C   UNL     1       4.919  -0.549   2.628  0.00  0.00    +0.016 A 
ATOM     21  C   UNL     1       3.713  -0.471   1.902  0.00  0.00    +0.004 A 
ATOM     22  C   UNL     1       3.303   0.730   1.302  0.00  0.00    +0.059 A 
ATOM     23  C   UNL     1       2.129   0.774   0.606  0.00  0.00    +0.167 A 
ATOM     24  C   UNL     1       1.326  -0.371   0.485  0.00  0.00    +0.168 A 
ATOM     25  C   UNL     1       1.703  -1.552   1.060  0.00  0.00    +0.078 A 
ATOM     26  C   UNL     1       2.905  -1.628   1.782  0.00  0.00    +0.076 A 
ATOM     27  N   UNL     1       3.292  -2.774   2.354  0.00  0.00    -0.240 NA
ATOM     28  C   UNL     1       4.418  -2.853   3.034  0.00  0.00    +0.101 A 
ATOM     29  O   UNL     1       0.223  -0.048  -0.253  0.00  0.00    -0.453 OA
ATOM     30  C   UNL     1       0.151   1.389  -0.230  0.00  0.00    +0.466 C 
ATOM     31  O   UNL     1       1.519   1.802  -0.057  0.00  0.00    -0.453 OA
ENDBRANCH  17  28
ENDBRANCH   1  17
TORSDOF 5
