REMARK  Name = ZINC20154247
REMARK  4 active torsions:
REMARK  status: ('A' for Active; 'I' for Inactive)
REMARK    1  A    between atoms: C_3  and  N_21
REMARK    2  A    between atoms: C_4  and  N_18
REMARK    3  A    between atoms: C_6  and  N_7
REMARK    4  A    between atoms: C_8  and  C_10
REMARK                            x       y       z     vdW  Elec       q    Type
REMARK                         _______ _______ _______ _____ _____    ______ ____
ROOT
ATOM      1  C   UNL     1      -3.602   3.522  -0.049  0.00  0.00    +0.025 A 
ATOM      2  C   UNL     1      -4.757   4.273  -0.129  0.00  0.00    +0.027 A 
ATOM      3  C   UNL     1      -5.991   3.642  -0.214  0.00  0.00    +0.060 A 
ATOM      4  C   UNL     1      -6.062   2.255  -0.223  0.00  0.00    +0.149 A 
ATOM      5  C   UNL     1      -4.906   1.504  -0.149  0.00  0.00    +0.058 A 
ATOM      6  C   UNL     1      -3.672   2.136  -0.064  0.00  0.00    +0.036 A 
ENDROOT
BRANCH   3   7
ATOM      7  N   UNL     1      -7.163   4.403  -0.289  0.00  0.00    -0.332 N 
ATOM      8  C   UNL     1      -7.304   5.270   0.889  0.00  0.00    +0.086 C 
ATOM      9  C   UNL     1      -8.633   6.024   0.807  0.00  0.00    -0.063 C 
ATOM     10  N   UNL     1      -8.670   6.814  -0.431  0.00  0.00    +0.381 N 
ATOM     11  C   UNL     1      -8.529   5.947  -1.609  0.00  0.00    -0.063 C 
ATOM     12  C   UNL     1      -7.199   5.192  -1.528  0.00  0.00    +0.086 C 
ATOM     13  H   UNL     1      -9.630   7.347  -0.498  0.00  0.00    -0.086 HD
ATOM     14  H   UNL     1      -7.845   7.542  -0.427  0.00  0.00    -0.086 HD
ENDBRANCH   3   7
BRANCH   6  15
ATOM     15  N   UNL     1      -2.499   1.374   0.012  0.00  0.00    -0.281 N 
ATOM     16  C   UNL     1      -2.406   0.211  -0.662  0.00  0.00    +0.250 C 
ATOM     17  O   UNL     1      -3.368  -0.220  -1.268  0.00  0.00    -0.270 OA
ATOM     18  H   UNL     1      -1.654   1.725   0.623  0.00  0.00    +0.155 HD
BRANCH  16  19
ATOM     19  C   UNL     1      -1.134  -0.541  -0.666  0.00  0.00    +0.056 A 
ATOM     20  C   UNL     1      -0.027  -0.050   0.028  0.00  0.00    +0.029 A 
ATOM     21  C   UNL     1       1.156  -0.760   0.025  0.00  0.00    +0.014 A 
ATOM     22  C   UNL     1       1.247  -1.958  -0.663  0.00  0.00    +0.016 A 
ATOM     23  C   UNL     1       0.155  -2.451  -1.354  0.00  0.00    +0.022 A 
ATOM     24  C   UNL     1      -1.036  -1.750  -1.359  0.00  0.00    +0.053 A 
ATOM     25 CL   UNL     1      -2.406  -2.370  -2.226  0.00  0.00    -0.083 Cl
ATOM     26  I   UNL     1       2.818  -0.025   1.067  0.00  0.00    -0.044 I 
ENDBRANCH  16  19
ENDBRANCH   6  15
BRANCH   4  27
ATOM     27  N   UNL     1      -7.377   1.581  -0.314  0.00  0.00    +0.058 N 
ATOM     28  O   UNL     1      -7.448   0.368  -0.226  0.00  0.00    -0.126 OA
ATOM     29  O   UNL     1      -8.389   2.240  -0.476  0.00  0.00    -0.126 OA
ENDBRANCH   4  27
TORSDOF 4
