REMARK  Name = ZINC27739356
REMARK  5 active torsions:
REMARK  status: ('A' for Active; 'I' for Inactive)
REMARK    1  A    between atoms: C_1  and  C_2
REMARK    2  A    between atoms: C_7  and  N_8
REMARK    3  A    between atoms: C_14  and  C_16
REMARK    4  A    between atoms: C_19  and  N_22
REMARK    5  A    between atoms: C_23  and  C_25
REMARK                            x       y       z     vdW  Elec       q    Type
REMARK                         _______ _______ _______ _____ _____    ______ ____
ROOT
ATOM      1  C   UNL     1      -0.122   5.572   6.818  0.00  0.00    +0.037 A 
ATOM      2  C   UNL     1      -1.466   5.375   7.145  0.00  0.00    +0.015 A 
ATOM      3  C   UNL     1      -2.240   4.526   6.386  0.00  0.00    +0.024 A 
ATOM      4  C   UNL     1      -1.685   3.865   5.295  0.00  0.00    +0.033 A 
ATOM      5  C   UNL     1      -0.346   4.055   4.970  0.00  0.00    +0.024 A 
ATOM      6  C   UNL     1       0.432   4.907   5.721  0.00  0.00    +0.015 A 
ENDROOT
BRANCH   1  13
ATOM      7  N   UNL     1       2.967   9.355   5.823  0.00  0.00    -0.327 N 
ATOM      8  C   UNL     1       2.634   9.437   7.252  0.00  0.00    +0.124 C 
ATOM      9  C   UNL     1       2.604   8.026   7.848  0.00  0.00    +0.127 C 
ATOM     10  N   UNL     1       1.691   7.199   7.044  0.00  0.00    -0.295 N 
ATOM     11  C   UNL     1       1.881   7.170   5.586  0.00  0.00    +0.127 C 
ATOM     12  C   UNL     1       1.937   8.619   5.078  0.00  0.00    +0.124 C 
ATOM     13  C   UNL     1       0.711   6.482   7.628  0.00  0.00    +0.247 C 
ATOM     14  O   UNL     1       0.512   6.585   8.823  0.00  0.00    -0.270 OA
BRANCH   7  21
ATOM     15  C   UNL     1       5.505   9.946   4.682  0.00  0.00    +0.045 C 
ATOM     16  C   UNL     1       4.388  10.958   4.713  0.00  0.00    -0.029 A 
ATOM     17  C   UNL     1       4.582  12.216   4.177  0.00  0.00    +0.006 A 
ATOM     18  C   UNL     1       3.559  13.146   4.204  0.00  0.00    +0.020 A 
ATOM     19  C   UNL     1       2.338  12.819   4.769  0.00  0.00    +0.043 A 
ATOM     20  C   UNL     1       2.137  11.560   5.303  0.00  0.00    +0.043 A 
ATOM     21  C   UNL     1       3.165  10.626   5.281  0.00  0.00    +0.034 A 
ATOM     22 CL   UNL     1       1.056  13.989   4.801  0.00  0.00    -0.083 Cl
ENDBRANCH   7  21
ENDBRANCH   1  13
BRANCH   4  23
ATOM     23  N   UNL     1      -2.472   3.006   4.529  0.00  0.00    -0.285 N 
ATOM     24  C   UNL     1      -2.283   2.927   3.197  0.00  0.00    +0.225 C 
ATOM     25  O   UNL     1      -1.376   3.541   2.676  0.00  0.00    -0.275 OA
ATOM     26  H   UNL     1      -3.247   2.392   5.012  0.00  0.00    +0.155 HD
BRANCH  24  27
ATOM     27  C   UNL     1      -3.198   2.076   2.355  0.00  0.00    +0.129 C 
ATOM     28  C   UNL     1      -2.534   1.731   1.002  0.00  0.00    +0.137 C 
ATOM     29  C   UNL     1      -3.199   2.685   0.026  0.00  0.00    +0.308 C 
ATOM     30  O   UNL     1      -2.702   3.150  -0.972  0.00  0.00    -0.251 OA
ATOM     31  O   UNL     1      -4.444   2.915   0.481  0.00  0.00    -0.457 OA
ATOM     32  C   UNL     1      -4.448   2.872   1.934  0.00  0.00    +0.125 C 
ATOM     33  C   UNL     1      -4.373   4.286   2.505  0.00  0.00    +0.049 C 
ATOM     34  C   UNL     1      -5.617   5.074   2.085  0.00  0.00    +0.004 C 
ATOM     35  C   UNL     1      -6.868   4.366   2.609  0.00  0.00    +0.000 C 
ATOM     36  C   UNL     1      -6.943   2.957   2.019  0.00  0.00    +0.004 C 
ATOM     37  C   UNL     1      -5.703   2.163   2.438  0.00  0.00    +0.049 C 
ENDBRANCH  24  27
ENDBRANCH   4  23
TORSDOF 4
