REMARK  Name = ZINC36214784
REMARK  11 active torsions:
REMARK  status: ('A' for Active; 'I' for Inactive)
REMARK    1  A    between atoms: C_1  and  C_2
REMARK    2  A    between atoms: C_2  and  C_4
REMARK    3  A    between atoms: C_2  and  N_7
REMARK    4  A    between atoms: C_4  and  C_5
REMARK    5  A    between atoms: C_4  and  C_6
REMARK    6  A    between atoms: C_8  and  C_10
REMARK    7  A    between atoms: C_10  and  C_12
REMARK    8  A    between atoms: C_10  and  N_28
REMARK    9  A    between atoms: N_15  and  S_18
REMARK   10  A    between atoms: S_18  and  C_21
REMARK   11  A    between atoms: C_29  and  C_31
REMARK                            x       y       z     vdW  Elec       q    Type
REMARK                         _______ _______ _______ _____ _____    ______ ____
ROOT
ATOM      1  C   UNL     1      -3.465  -1.164  -1.134  0.00  0.00    +0.162 C 
ENDROOT
BRANCH   1   2
ATOM      2  C   UNL     1      -4.422  -0.036  -0.745  0.00  0.00    +0.021 C 
ATOM      3  C   UNL     1      -4.058   0.485   0.647  0.00  0.00    +0.023 C 
ATOM      4  C   UNL     1      -4.996   1.637   1.018  0.00  0.00    +0.110 C 
ATOM      5  N   UNL     1      -6.385   1.177   0.890  0.00  0.00    -0.177 NA
ATOM      6  C   UNL     1      -6.816   0.575  -0.379  0.00  0.00    +0.110 C 
ATOM      7  C   UNL     1      -5.857  -0.566  -0.735  0.00  0.00    +0.023 C 
BRANCH   5   8
ATOM      8  S   UNL     1      -7.445   1.331   2.153  0.00  0.00    +0.061 S 
ATOM      9  O   UNL     1      -8.454   0.349   1.960  0.00  0.00    -0.153 OA
ATOM     10  O   UNL     1      -6.661   1.395   3.337  0.00  0.00    -0.153 OA
BRANCH   8  11
ATOM     11  C   UNL     1      -8.231   2.899   1.985  0.00  0.00    +0.106 A 
ATOM     12  C   UNL     1      -7.674   4.018   2.576  0.00  0.00    +0.030 A 
ATOM     13  C   UNL     1      -8.290   5.248   2.444  0.00  0.00    +0.022 A 
ATOM     14  C   UNL     1      -9.463   5.360   1.721  0.00  0.00    +0.041 A 
ATOM     15  C   UNL     1     -10.020   4.240   1.130  0.00  0.00    +0.022 A 
ATOM     16  C   UNL     1      -9.401   3.011   1.257  0.00  0.00    +0.030 A 
ATOM     17 CL   UNL     1     -10.238   6.905   1.556  0.00  0.00    -0.084 Cl
ENDBRANCH   8  11
ENDBRANCH   5   8
ENDBRANCH   1   2
BRANCH   1  19
ATOM     18  N   UNL     1      -1.372  -0.511   0.012  0.00  0.00    -0.311 N 
ATOM     19  C   UNL     1      -2.051  -0.643  -1.145  0.00  0.00    +0.234 C 
ATOM     20  O   UNL     1      -1.524  -0.341  -2.194  0.00  0.00    -0.274 OA
ATOM     21  H   UNL     1      -1.794  -0.752   0.852  0.00  0.00    +0.149 HD
BRANCH  18  23
ATOM     22  C   UNL     1      -0.019   1.526   0.010  0.00  0.00    +0.028 C 
ATOM     23  C   UNL     1       0.002  -0.004   0.002  0.00  0.00    +0.072 C 
BRANCH  23  24
ATOM     24  C   UNL     1       0.742  -0.511   1.242  0.00  0.00    +0.003 C 
ATOM     25  C   UNL     1       2.178   0.019   1.231  0.00  0.00    +0.009 C 
ATOM     26  C   UNL     1       0.026  -0.018   2.500  0.00  0.00    +0.009 C 
ENDBRANCH  23  24
ENDBRANCH  18  23
ENDBRANCH   1  19
BRANCH   1  27
ATOM     27  N   UNL     1      -3.812  -1.662  -2.467  0.00  0.00    -0.299 N 
ATOM     28  C   UNL     1      -3.780  -0.829  -3.527  0.00  0.00    +0.251 C 
ATOM     29  O   UNL     1      -3.463   0.337  -3.375  0.00  0.00    -0.270 OA
ATOM     30  H   UNL     1      -4.064  -2.590  -2.588  0.00  0.00    +0.150 HD
BRANCH  28  31
ATOM     31  C   UNL     1      -4.127  -1.326  -4.861  0.00  0.00    +0.074 A 
ATOM     32  C   UNL     1      -4.153  -0.645  -6.069  0.00  0.00    +0.021 A 
ATOM     33  C   UNL     1      -4.523  -1.387  -7.165  0.00  0.00    +0.008 A 
ATOM     34  C   UNL     1      -4.831  -2.697  -7.000  0.00  0.00    +0.046 A 
ATOM     35  S   UNL     1      -4.620  -2.966  -5.356  0.00  0.00    -0.092 S 
ENDBRANCH  28  31
ENDBRANCH   1  27
TORSDOF 8
