REMARK  Name = ZINC39916658
REMARK  6 active torsions:
REMARK  status: ('A' for Active; 'I' for Inactive)
REMARK    1  A    between atoms: C_4  and  C_7
REMARK    2  A    between atoms: C_7  and  N_8
REMARK    3  A    between atoms: N_8  and  C_9
REMARK    4  A    between atoms: C_9  and  N_11
REMARK    5  A    between atoms: N_11  and  N_12
REMARK    6  A    between atoms: C_14  and  C_23
REMARK                            x       y       z     vdW  Elec       q    Type
REMARK                         _______ _______ _______ _____ _____    ______ ____
ROOT
ATOM      1  N   UNL     1       5.046  -1.268   3.877  0.00  0.00    -0.274 N 
ATOM      2  C   UNL     1       5.322  -1.622   5.103  0.00  0.00    +0.220 A 
ATOM      3  C   UNL     1       6.543  -2.395   5.417  0.00  0.00    +0.044 A 
ATOM      4  C   UNL     1       7.065  -2.260   6.677  0.00  0.00    +0.025 A 
ATOM      5  C   UNL     1       6.370  -1.362   7.609  0.00  0.00    +0.018 A 
ATOM      6  C   UNL     1       6.977  -0.966   8.804  0.00  0.00    +0.011 A 
ATOM      7  C   UNL     1       6.306  -0.120   9.662  0.00  0.00    +0.001 A 
ATOM      8  C   UNL     1       5.037   0.338   9.343  0.00  0.00    +0.004 A 
ATOM      9  C   UNL     1       4.426  -0.048   8.165  0.00  0.00    +0.047 A 
ATOM     10  C   UNL     1       5.082  -0.898   7.292  0.00  0.00    +0.137 A 
ATOM     11  O   UNL     1       4.495  -1.286   6.134  0.00  0.00    -0.438 OA
ATOM     12  H   UNL     1       4.191  -0.860   3.670  0.00  0.00    +0.187 HD
ENDROOT
BRANCH   3  13
ATOM     13  C   UNL     1       7.176  -3.279   4.411  0.00  0.00    -0.013 A 
ATOM     14  C   UNL     1       8.463  -3.004   3.949  0.00  0.00    +0.010 A 
ATOM     15  C   UNL     1       9.047  -3.831   3.012  0.00  0.00    +0.016 A 
ATOM     16  C   UNL     1       8.359  -4.932   2.531  0.00  0.00    +0.018 A 
ATOM     17  C   UNL     1       7.082  -5.209   2.986  0.00  0.00    +0.016 A 
ATOM     18  C   UNL     1       6.489  -4.392   3.927  0.00  0.00    +0.010 A 
ATOM     19 BR   UNL     1       9.167  -6.060   1.246  0.00  0.00    -0.050 Br
ENDBRANCH   3  13
BRANCH   1  20
ATOM     20  N   UNL     1       5.986  -1.479   2.859  0.00  0.00    -0.239 N 
ATOM     21  H   UNL     1       6.878  -1.791   3.079  0.00  0.00    +0.174 HD
BRANCH  20  22
ATOM     22  C   UNL     1       5.651  -1.248   1.574  0.00  0.00    +0.149 C 
ATOM     23  S   UNL     1       6.799  -1.506   0.331  0.00  0.00    -0.017 S 
BRANCH  22  24
ATOM     24  N   UNL     1       4.412  -0.815   1.268  0.00  0.00    -0.321 N 
ATOM     25  H   UNL     1       3.761  -0.669   1.973  0.00  0.00    +0.148 HD
BRANCH  24  26
ATOM     26  C   UNL     1       4.048  -0.564  -0.128  0.00  0.00    +0.138 C 
BRANCH  26  30
ATOM     27  C   UNL     1      -0.003   0.777  -0.327  0.00  0.00    +0.000 A 
ATOM     28  C   UNL     1       1.022   1.694  -0.186  0.00  0.00    +0.000 A 
ATOM     29  C   UNL     1       2.333   1.260  -0.122  0.00  0.00    +0.005 A 
ATOM     30  C   UNL     1       2.619  -0.091  -0.197  0.00  0.00    -0.030 A 
ATOM     31  C   UNL     1       1.593  -1.007  -0.337  0.00  0.00    +0.005 A 
ATOM     32  C   UNL     1       0.282  -0.573  -0.403  0.00  0.00    +0.000 A 
ENDBRANCH  26  30
ENDBRANCH  24  26
ENDBRANCH  22  24
ENDBRANCH  20  22
ENDBRANCH   1  20
TORSDOF 6
