REMARK  Name = ZINC14270938
REMARK  8 active torsions:
REMARK  status: ('A' for Active; 'I' for Inactive)
REMARK    1  A    between atoms: C_1  and  C_2
REMARK    2  A    between atoms: C_2  and  C_3
REMARK    3  A    between atoms: C_6  and  N_9
REMARK    4  A    between atoms: C_13  and  C_34
REMARK    5  A    between atoms: C_14  and  N_18
REMARK    6  A    between atoms: N_18  and  C_19
REMARK    7  A    between atoms: C_19  and  N_21
REMARK    8  A    between atoms: C_22  and  C_24
REMARK                            x       y       z     vdW  Elec       q    Type
REMARK                         _______ _______ _______ _____ _____    ______ ____
ROOT
ATOM      1  N   UNL     1      10.530  -5.247  -0.462  0.00  0.00    -0.149 N 
ATOM      2  N   UNL     1       9.848  -6.337  -0.511  0.00  0.00    -0.147 NA
ATOM      3  C   UNL     1       8.561  -6.042  -0.422  0.00  0.00    +0.114 A 
ATOM      4  C   UNL     1       7.351  -6.758  -0.415  0.00  0.00    +0.037 A 
ATOM      5  C   UNL     1       6.176  -6.087  -0.304  0.00  0.00    -0.027 A 
ATOM      6  C   UNL     1       6.134  -4.690  -0.194  0.00  0.00    +0.038 A 
ATOM      7  C   UNL     1       7.273  -3.939  -0.200  0.00  0.00    +0.055 A 
ATOM      8  C   UNL     1       8.521  -4.576  -0.308  0.00  0.00    +0.115 A 
ATOM      9  N   UNL     1       9.790  -4.200  -0.344  0.00  0.00    -0.147 NA
ATOM     10  C   UNL     1       4.884  -6.863  -0.297  0.00  0.00    +0.046 C 
ENDROOT
BRANCH   1  14
ATOM     11  C   UNL     1      14.691  -5.116  -0.662  0.00  0.00    -0.047 A 
ATOM     12  C   UNL     1      13.969  -3.943  -0.536  0.00  0.00    +0.006 A 
ATOM     13  C   UNL     1      12.590  -3.983  -0.469  0.00  0.00    +0.030 A 
ATOM     14  C   UNL     1      11.929  -5.203  -0.529  0.00  0.00    +0.086 A 
ATOM     15  C   UNL     1      12.657  -6.379  -0.650  0.00  0.00    +0.030 A 
ATOM     16  C   UNL     1      14.035  -6.332  -0.723  0.00  0.00    +0.006 A 
BRANCH  11  18
ATOM     17  C   UNL     1      16.777  -5.163   0.677  0.00  0.00    +0.009 C 
ATOM     18  C   UNL     1      16.195  -5.069  -0.735  0.00  0.00    +0.032 C 
ENDBRANCH  11  18
ENDBRANCH   1  14
BRANCH   6  19
ATOM     19  N   UNL     1       4.894  -4.051  -0.082  0.00  0.00    -0.296 N 
ATOM     20  H   UNL     1       4.161  -4.311  -0.661  0.00  0.00    +0.154 HD
BRANCH  19  21
ATOM     21  C   UNL     1       4.720  -3.074   0.830  0.00  0.00    +0.141 C 
ATOM     22  S   UNL     1       5.968  -2.711   1.944  0.00  0.00    -0.018 S 
BRANCH  21  23
ATOM     23  N   UNL     1       3.564  -2.383   0.864  0.00  0.00    -0.264 N 
ATOM     24  C   UNL     1       3.390  -1.406   1.776  0.00  0.00    +0.250 C 
ATOM     25  O   UNL     1       4.275  -1.148   2.567  0.00  0.00    -0.270 OA
ATOM     26  H   UNL     1       2.857  -2.588   0.232  0.00  0.00    +0.157 HD
BRANCH  24  27
ATOM     27  C   UNL     1       2.124  -0.649   1.814  0.00  0.00    +0.041 A 
ATOM     28  C   UNL     1       1.104  -0.944   0.905  0.00  0.00    +0.017 A 
ATOM     29  C   UNL     1      -0.076  -0.235   0.942  0.00  0.00    +0.050 A 
ATOM     30  C   UNL     1      -0.259   0.774   1.881  0.00  0.00    +0.162 A 
ATOM     31  C   UNL     1       0.753   1.071   2.791  0.00  0.00    +0.163 A 
ATOM     32  C   UNL     1       1.941   0.364   2.759  0.00  0.00    +0.062 A 
ATOM     33  O   UNL     1       0.586   2.050   3.722  0.00  0.00    -0.485 OA
ATOM     34  C   UNL     1      -0.469   2.989   3.487  0.00  0.00    +0.270 C 
ATOM     35  C   UNL     1      -1.726   2.207   3.082  0.00  0.00    +0.270 C 
ATOM     36  O   UNL     1      -1.429   1.466   1.893  0.00  0.00    -0.485 OA
ENDBRANCH  24  27
ENDBRANCH  21  23
ENDBRANCH  19  21
ENDBRANCH   6  19
TORSDOF 6
