REMARK  Name = ZINC35992899
REMARK  13 active torsions:
REMARK  status: ('A' for Active; 'I' for Inactive)
REMARK    1  A    between atoms: C_1  and  C_2
REMARK    2  A    between atoms: C_2  and  N_3
REMARK    3  A    between atoms: C_4  and  C_23
REMARK    4  A    between atoms: C_5  and  C_18
REMARK    5  A    between atoms: C_6  and  C_11
REMARK    6  A    between atoms: C_18  and  O_20
REMARK    7  A    between atoms: O_20  and  C_21
REMARK    8  A    between atoms: C_21  and  C_22
REMARK    9  A    between atoms: C_23  and  N_24
REMARK   10  A    between atoms: N_33  and  C_34
REMARK   11  A    between atoms: C_34  and  C_35
REMARK   12  A    between atoms: C_34  and  C_36
REMARK   13  A    between atoms: C_34  and  C_37
REMARK                            x       y       z     vdW  Elec       q    Type
REMARK                         _______ _______ _______ _____ _____    ______ ____
ROOT
ATOM      1  N   UNL     1      -1.791  -0.011   0.278  0.00  0.00    -0.261 N 
ATOM      2  C   UNL     1      -1.790  -0.889   1.323  0.00  0.00    +0.010 C 
ATOM      3  C   UNL     1      -2.573  -1.989   1.310  0.00  0.00    +0.076 C 
ATOM      4  C   UNL     1      -3.452  -2.215   0.097  0.00  0.00    +0.143 C 
ATOM      5  N   UNL     1      -3.379  -1.209  -0.976  0.00  0.00    -0.288 N 
ATOM      6  C   UNL     1      -2.551  -0.159  -0.815  0.00  0.00    +0.307 C 
ATOM      7  O   UNL     1      -2.486   0.680  -1.693  0.00  0.00    -0.252 OA
ATOM      8  H   UNL     1      -3.918  -1.298  -1.778  0.00  0.00    +0.151 HD
ENDROOT
BRANCH   4   9
ATOM      9  C   UNL     1      -4.882  -2.291   0.566  0.00  0.00    -0.022 A 
ATOM     10  C   UNL     1      -5.583  -1.130   0.833  0.00  0.00    +0.008 A 
ATOM     11  C   UNL     1      -6.895  -1.198   1.263  0.00  0.00    +0.038 A 
ATOM     12  C   UNL     1      -7.506  -2.429   1.427  0.00  0.00    +0.123 A 
ATOM     13  C   UNL     1      -6.803  -3.591   1.160  0.00  0.00    +0.038 A 
ATOM     14  C   UNL     1      -5.493  -3.521   0.725  0.00  0.00    +0.008 A 
ATOM     15  F   UNL     1      -8.788  -2.497   1.848  0.00  0.00    -0.205 F 
ENDBRANCH   4   9
BRANCH   1  17
ATOM     16  C   UNL     1      -1.671   2.315   1.026  0.00  0.00    +0.025 C 
ATOM     17  C   UNL     1      -0.917   1.162   0.359  0.00  0.00    +0.111 C 
ENDBRANCH   1  17
BRANCH   3  18
ATOM     18  C   UNL     1      -2.572  -2.900   2.392  0.00  0.00    +0.339 C 
ATOM     19  O   UNL     1      -1.925  -2.655   3.393  0.00  0.00    -0.245 OA
BRANCH  18  20
ATOM     20  O   UNL     1      -3.289  -4.041   2.314  0.00  0.00    -0.462 OA
BRANCH  20  21
ATOM     21  C   UNL     1      -3.242  -4.915   3.444  0.00  0.00    +0.229 C 
ATOM     22  C   UNL     1      -4.109  -6.146   3.173  0.00  0.00    +0.048 C 
ENDBRANCH  20  21
ENDBRANCH  18  20
ENDBRANCH   3  18
BRANCH   2  23
ATOM     23  C   UNL     1      -0.901  -0.626   2.511  0.00  0.00    -0.026 C 
BRANCH  23  24
ATOM     24  N   UNL     1       0.308  -1.454   2.410  0.00  0.00    +0.384 N 
ATOM     25  C   UNL     1       1.024  -1.382   3.682  0.00  0.00    -0.077 C 
ATOM     26  C   UNL     1       1.787  -2.670   3.899  0.00  0.00    +0.000 C 
ATOM     27  C   UNL     1       3.224  -2.509   3.371  0.00  0.00    +0.107 C 
ATOM     28  N   UNL     1       3.243  -1.747   2.106  0.00  0.00    -0.287 N 
ATOM     29  C   UNL     1       2.263  -1.956   1.060  0.00  0.00    +0.091 C 
ATOM     30  C   UNL     1       1.048  -1.027   1.285  0.00  0.00    -0.059 C 
ATOM     31  C   UNL     1       4.206  -0.823   1.918  0.00  0.00    +0.303 C 
ATOM     32  O   UNL     1       5.093  -0.693   2.740  0.00  0.00    -0.253 OA
ATOM     33  N   UNL     1       4.186  -0.042   0.820  0.00  0.00    -0.294 N 
ATOM     34  H   UNL     1       3.441  -0.095   0.201  0.00  0.00    +0.151 HD
ATOM     35  H   UNL     1       0.026  -2.411   2.261  0.00  0.00    -0.081 HD
BRANCH  33  36
ATOM     36  C   UNL     1       5.290   0.885   0.560  0.00  0.00    +0.028 C 
ATOM     37  C   UNL     1       6.597   0.099   0.431  0.00  0.00    +0.031 C 
ATOM     38  C   UNL     1       5.023   1.645  -0.741  0.00  0.00    +0.031 C 
ATOM     39  C   UNL     1       5.405   1.879   1.717  0.00  0.00    +0.031 C 
ENDBRANCH  33  36
ENDBRANCH  23  24
ENDBRANCH   2  23
TORSDOF 8
