REMARK  Name = ZINC20764099
REMARK  8 active torsions:
REMARK  status: ('A' for Active; 'I' for Inactive)
REMARK    1  A    between atoms: C_1  and  C_2
REMARK    2  A    between atoms: C_2  and  O_3
REMARK    3  A    between atoms: O_3  and  C_4
REMARK    4  A    between atoms: C_8  and  C_11
REMARK    5  A    between atoms: C_9  and  O_10
REMARK    6  A    between atoms: C_14  and  C_29
REMARK    7  A    between atoms: C_16  and  C_19
REMARK    8  A    between atoms: C_22  and  C_25
REMARK                            x       y       z     vdW  Elec       q    Type
REMARK                         _______ _______ _______ _____ _____    ______ ____
ROOT
ATOM      1  C   UNL     1       6.738  -1.776   3.727  0.00  0.00    -0.028 C 
ATOM      2  C   UNL     1       5.500  -1.981   2.849  0.00  0.00    +0.044 C 
ATOM      3  C   UNL     1       5.075  -0.662   2.266  0.00  0.00    +0.040 C 
ATOM      4  N   UNL     1       5.832   0.370   2.247  0.00  0.00    -0.299 NA
ATOM      5  C   UNL     1       7.180   0.406   2.800  0.00  0.00    +0.081 C 
ATOM      6  N   UNL     1       7.703  -0.954   2.977  0.00  0.00    +0.401 N 
ATOM      7  H   UNL     1       8.652  -0.905   3.530  0.00  0.00    -0.081 HD
ATOM      8  H   UNL     1       7.877  -1.404   1.988  0.00  0.00    -0.081 HD
ENDROOT
BRANCH   3   9
ATOM      9  C   UNL     1       3.725  -0.554   1.684  0.00  0.00    -0.001 A 
ATOM     10  C   UNL     1       2.872  -1.661   1.682  0.00  0.00    +0.013 A 
ATOM     11  C   UNL     1       1.610  -1.558   1.137  0.00  0.00    +0.050 A 
ATOM     12  C   UNL     1       1.181  -0.356   0.590  0.00  0.00    +0.166 A 
ATOM     13  C   UNL     1       2.028   0.752   0.588  0.00  0.00    +0.167 A 
ATOM     14  C   UNL     1       3.294   0.655   1.132  0.00  0.00    +0.059 A 
ATOM     15  O   UNL     1       1.376   1.797  -0.001  0.00  0.00    -0.453 OA
ATOM     16  C   UNL     1      -0.017   1.435   0.010  0.00  0.00    +0.466 C 
ATOM     17  O   UNL     1       0.002  -0.004   0.002  0.00  0.00    -0.453 OA
ENDBRANCH   3   9
BRANCH   1  22
ATOM     18  C   UNL     1       7.389  -5.126   5.365  0.00  0.00    +0.162 A 
ATOM     19  C   UNL     1       8.495  -5.565   4.655  0.00  0.00    +0.049 A 
ATOM     20  C   UNL     1       9.028  -4.779   3.650  0.00  0.00    +0.004 A 
ATOM     21  C   UNL     1       8.456  -3.557   3.347  0.00  0.00    +0.006 A 
ATOM     22  C   UNL     1       7.356  -3.111   4.056  0.00  0.00    -0.016 A 
ATOM     23  C   UNL     1       6.817  -3.894   5.064  0.00  0.00    +0.160 A 
BRANCH  23  24
ATOM     24  O   UNL     1       5.731  -3.460   5.758  0.00  0.00    -0.503 OA
ATOM     25  H   UNL     1       5.279  -2.486   5.519  0.00  0.00    +0.292 HD
ENDBRANCH  23  24
BRANCH  18  26
ATOM     26  O   UNL     1       6.864  -5.898   6.354  0.00  0.00    -0.489 OA
BRANCH  26  28
ATOM     27  C   UNL     1       6.779  -7.873   7.745  0.00  0.00    +0.048 C 
ATOM     28  C   UNL     1       7.504  -7.151   6.607  0.00  0.00    +0.226 C 
ENDBRANCH  26  28
ENDBRANCH  18  26
ENDBRANCH   1  22
BRANCH   5  29
ATOM     29  C   UNL     1       8.079   1.165   1.859  0.00  0.00    -0.040 A 
ATOM     30  C   UNL     1       9.428   0.869   1.801  0.00  0.00    +0.004 A 
ATOM     31  C   UNL     1      10.251   1.562   0.934  0.00  0.00    +0.012 A 
ATOM     32  C   UNL     1       9.728   2.558   0.131  0.00  0.00    +0.055 A 
ATOM     33  C   UNL     1       8.380   2.859   0.193  0.00  0.00    +0.012 A 
ATOM     34  C   UNL     1       7.556   2.162   1.056  0.00  0.00    +0.004 A 
BRANCH  32  35
ATOM     35  C   UNL     1      10.627   3.317  -0.811  0.00  0.00    +0.417 C 
ATOM     36  F   UNL     1      11.146   4.440  -0.157  0.00  0.00    -0.166 F 
ATOM     37  F   UNL     1      11.677   2.490  -1.222  0.00  0.00    -0.166 F 
ATOM     38  F   UNL     1       9.892   3.727  -1.928  0.00  0.00    -0.166 F 
ENDBRANCH  32  35
ENDBRANCH   5  29
TORSDOF 7
