REMARK  Name = ZINC14975935
REMARK  11 active torsions:
REMARK  status: ('A' for Active; 'I' for Inactive)
REMARK    1  A    between atoms: C_1  and  C_2
REMARK    2  A    between atoms: C_2  and  C_30
REMARK    3  A    between atoms: N_8  and  C_9
REMARK    4  A    between atoms: C_12  and  O_15
REMARK    5  A    between atoms: O_15  and  C_16
REMARK    6  A    between atoms: C_17  and  N_58
REMARK    7  A    between atoms: C_20  and  C_21
REMARK    8  A    between atoms: C_20  and  N_58
REMARK    9  A    between atoms: C_24  and  O_29
REMARK   10  A    between atoms: C_25  and  O_27
REMARK   11  A    between atoms: O_27  and  C_28
REMARK                            x       y       z     vdW  Elec       q    Type
REMARK                         _______ _______ _______ _____ _____    ______ ____
ROOT
ATOM      1  C   UNL     1       5.374   3.850  -3.009  0.00  0.00    +0.011 C 
ATOM      2  C   UNL     1       5.173   2.831  -1.885  0.00  0.00    -0.031 C 
ATOM      3  C   UNL     1       3.672   2.623  -1.647  0.00  0.00    +0.062 C 
ATOM      4  C   UNL     1       3.497   1.445  -0.721  0.00  0.00    +0.047 A 
ATOM      5  C   UNL     1       4.465   0.529  -0.462  0.00  0.00    -0.020 A 
ATOM      6  C   UNL     1       3.946  -0.403   0.434  0.00  0.00    +0.137 A 
ATOM      7  N   UNL     1       2.711  -0.059   0.711  0.00  0.00    -0.174 NA
ATOM      8  N   UNL     1       2.405   1.102  -0.014  0.00  0.00    -0.237 N 
ATOM      9  C   UNL     1       5.845   0.562  -1.069  0.00  0.00    -0.037 C 
ATOM     10  C   UNL     1       5.817   1.500  -2.282  0.00  0.00    -0.005 C 
ATOM     11  C   UNL     1       5.825   3.351  -0.603  0.00  0.00    +0.011 C 
ENDROOT
BRANCH   8  12
ATOM     12  C   UNL     1       1.180   1.786   0.000  0.00  0.00    +0.066 A 
ATOM     13  C   UNL     1       0.502   1.971   1.198  0.00  0.00    +0.031 A 
ATOM     14  C   UNL     1      -0.705   2.641   1.211  0.00  0.00    +0.048 A 
ATOM     15  C   UNL     1      -1.236   3.138   0.029  0.00  0.00    +0.120 A 
ATOM     16  C   UNL     1      -0.559   2.953  -1.168  0.00  0.00    +0.048 A 
ATOM     17  C   UNL     1       0.646   2.280  -1.183  0.00  0.00    +0.031 A 
BRANCH  15  18
ATOM     18  O   UNL     1      -2.422   3.802   0.043  0.00  0.00    -0.495 OA
ATOM     19  C   UNL     1      -3.064   3.956   1.310  0.00  0.00    +0.277 C 
ENDBRANCH  15  18
ENDBRANCH   8  12
BRANCH   9  20
ATOM     20  N   UNL     1       6.229  -0.793  -1.507  0.00  0.00    +0.386 N 
ATOM     21  H   UNL     1       6.909  -0.722  -2.273  0.00  0.00    -0.085 HD
ATOM     22  H   UNL     1       5.394  -1.292  -1.835  0.00  0.00    -0.085 HD
BRANCH  20  23
ATOM     23  C   UNL     1       6.833  -1.540  -0.388  0.00  0.00    -0.046 C 
BRANCH  23  24
ATOM     24  C   UNL     1       7.215  -2.918  -0.864  0.00  0.00    -0.061 A 
ATOM     25  C   UNL     1       8.472  -3.142  -1.394  0.00  0.00    +0.005 A 
ATOM     26  C   UNL     1       8.827  -4.404  -1.832  0.00  0.00    +0.049 A 
ATOM     27  C   UNL     1       7.922  -5.449  -1.739  0.00  0.00    +0.158 A 
ATOM     28  C   UNL     1       6.657  -5.225  -1.205  0.00  0.00    +0.161 A 
ATOM     29  C   UNL     1       6.309  -3.958  -0.764  0.00  0.00    +0.051 A 
BRANCH  28  30
ATOM     30  O   UNL     1       5.765  -6.247  -1.112  0.00  0.00    -0.491 OA
ATOM     31  C   UNL     1       4.485  -5.943  -0.553  0.00  0.00    +0.277 C 
ENDBRANCH  28  30
BRANCH  27  32
ATOM     32  O   UNL     1       8.269  -6.692  -2.169  0.00  0.00    -0.503 OA
ATOM     33  H   UNL     1       8.675  -7.244  -1.487  0.00  0.00    +0.292 HD
ENDBRANCH  27  32
ENDBRANCH  23  24
ENDBRANCH  20  23
ENDBRANCH   9  20
TORSDOF 7
