REMARK  Name = ZINC35350232
REMARK  8 active torsions:
REMARK  status: ('A' for Active; 'I' for Inactive)
REMARK    1  A    between atoms: C_1  and  C_2
REMARK    2  A    between atoms: C_5  and  N_9
REMARK    3  A    between atoms: C_6  and  C_8
REMARK    4  A    between atoms: C_10  and  C_12
REMARK    5  A    between atoms: C_13  and  C_39
REMARK    6  A    between atoms: C_17  and  C_19
REMARK    7  A    between atoms: C_22  and  N_25
REMARK    8  A    between atoms: N_28  and  C_29
REMARK                            x       y       z     vdW  Elec       q    Type
REMARK                         _______ _______ _______ _____ _____    ______ ____
ROOT
ATOM      1  C   UNL     1      -0.100  -6.172  -1.162  0.00  0.00    +0.058 C 
ATOM      2  C   UNL     1      -0.127  -6.846  -2.346  0.00  0.00    +0.025 C 
ATOM      3  N   UNL     1      -0.269  -8.172  -2.374  0.00  0.00    -0.341 N 
ATOM      4  C   UNL     1      -0.657  -8.842  -1.307  0.00  0.00    +0.135 C 
ATOM      5  N   UNL     1      -0.912  -8.200  -0.126  0.00  0.00    -0.300 N 
ATOM      6  C   UNL     1      -0.178  -6.944   0.134  0.00  0.00    +0.142 C 
ATOM      7  C   UNL     1      -1.886  -8.664   0.842  0.00  0.00    +0.109 C 
ATOM      8  C   UNL     1      -1.962 -10.160   1.038  0.00  0.00    +0.030 C 
ATOM      9  C   UNL     1      -2.235 -10.896  -0.274  0.00  0.00    +0.078 C 
ATOM     10  S   UNL     1      -0.814 -10.602  -1.376  0.00  0.00    -0.092 S 
ATOM     11  C   UNL     1       0.005  -6.084  -3.639  0.00  0.00    +0.064 C 
ATOM     12  H   UNL     1      -0.084  -8.652  -3.196  0.00  0.00    +0.167 HD
ENDROOT
BRANCH   6  13
ATOM     13  C   UNL     1       1.213  -7.253   0.626  0.00  0.00    -0.022 A 
ATOM     14  C   UNL     1       1.919  -8.308   0.078  0.00  0.00    +0.007 A 
ATOM     15  C   UNL     1       3.194  -8.595   0.527  0.00  0.00    +0.024 A 
ATOM     16  C   UNL     1       3.765  -7.822   1.529  0.00  0.00    +0.035 A 
ATOM     17  C   UNL     1       3.053  -6.764   2.078  0.00  0.00    +0.024 A 
ATOM     18  C   UNL     1       1.781  -6.479   1.621  0.00  0.00    +0.007 A 
BRANCH  16  19
ATOM     19  N   UNL     1       5.056  -8.110   1.986  0.00  0.00    -0.269 N 
ATOM     20  C   UNL     1       5.983  -8.588   1.132  0.00  0.00    +0.308 C 
ATOM     21  O   UNL     1       5.732  -8.665  -0.055  0.00  0.00    -0.252 OA
ATOM     22  N   UNL     1       7.187  -8.979   1.594  0.00  0.00    -0.269 N 
ATOM     23  H   UNL     1       5.284  -7.966   2.918  0.00  0.00    +0.156 HD
ATOM     24  H   UNL     1       7.357  -9.001   2.549  0.00  0.00    +0.156 HD
BRANCH  22  25
ATOM     25  C   UNL     1       8.192  -9.356   0.696  0.00  0.00    +0.035 A 
ATOM     26  C   UNL     1       8.294  -8.726  -0.538  0.00  0.00    +0.023 A 
ATOM     27  C   UNL     1       9.287  -9.100  -1.422  0.00  0.00    +0.002 A 
ATOM     28  C   UNL     1      10.179 -10.100  -1.080  0.00  0.00    +0.000 A 
ATOM     29  C   UNL     1      10.080 -10.729   0.147  0.00  0.00    +0.002 A 
ATOM     30  C   UNL     1       9.092 -10.356   1.038  0.00  0.00    +0.023 A 
ENDBRANCH  22  25
ENDBRANCH  16  19
ENDBRANCH   6  13
BRANCH   1  32
ATOM     31  N   UNL     1       0.060  -4.110   0.027  0.00  0.00    -0.281 N 
ATOM     32  C   UNL     1       0.005  -4.769  -1.147  0.00  0.00    +0.248 C 
ATOM     33  O   UNL     1       0.046  -4.150  -2.196  0.00  0.00    -0.270 OA
ATOM     34  H   UNL     1       0.082  -4.606   0.861  0.00  0.00    +0.155 HD
BRANCH  31  39
ATOM     35  C   UNL     1       0.165   1.561   0.093  0.00  0.00    +0.044 C 
ATOM     36  C   UNL     1       0.137   0.054   0.076  0.00  0.00    -0.050 A 
ATOM     37  C   UNL     1       0.758  -0.636  -0.949  0.00  0.00    +0.005 A 
ATOM     38  C   UNL     1       0.735  -2.016  -0.968  0.00  0.00    +0.024 A 
ATOM     39  C   UNL     1       0.086  -2.712   0.044  0.00  0.00    +0.037 A 
ATOM     40  C   UNL     1      -0.536  -2.017   1.072  0.00  0.00    -0.029 A 
ATOM     41  C   UNL     1      -0.505  -0.636   1.088  0.00  0.00    +0.008 A 
ATOM     42  C   UNL     1      -1.241  -2.768   2.172  0.00  0.00    +0.045 C 
ENDBRANCH  31  39
ENDBRANCH   1  32
TORSDOF 5
