REMARK  Name = ZINC27107188
REMARK  8 active torsions:
REMARK  status: ('A' for Active; 'I' for Inactive)
REMARK    1  A    between atoms: C_1  and  C_2
REMARK    2  A    between atoms: C_3  and  C_14
REMARK    3  A    between atoms: N_8  and  C_11
REMARK    4  A    between atoms: C_11  and  C_12
REMARK    5  A    between atoms: C_11  and  C_13
REMARK    6  A    between atoms: N_16  and  N_17
REMARK    7  A    between atoms: C_18  and  C_20
REMARK    8  A    between atoms: C_23  and  C_25
REMARK                            x       y       z     vdW  Elec       q    Type
REMARK                         _______ _______ _______ _____ _____    ______ ____
ROOT
ATOM      1  C   UNL     1      -3.474  -1.063   5.238  0.00  0.00    +0.262 C 
ATOM      2  O   UNL     1      -3.545  -2.276   5.237  0.00  0.00    -0.269 OA
ATOM      3  N   UNL     1      -4.155  -0.349   6.157  0.00  0.00    -0.230 N 
ATOM      4  H   UNL     1      -4.091   0.749   6.157  0.00  0.00    +0.173 HD
ENDROOT
BRANCH   1   7
ATOM      5  C   UNL     1      -1.812  -2.608   3.454  0.00  0.00    +0.066 C 
ATOM      6  C   UNL     1      -1.829  -1.105   3.358  0.00  0.00    +0.053 A 
ATOM      7  C   UNL     1      -2.643  -0.371   4.233  0.00  0.00    +0.060 A 
ATOM      8  C   UNL     1      -2.657   1.021   4.142  0.00  0.00    +0.028 A 
ATOM      9  C   UNL     1      -1.851   1.622   3.173  0.00  0.00    +0.039 A 
ATOM     10  C   UNL     1      -1.597   3.004   2.776  0.00  0.00    +0.144 A 
ATOM     11  N   UNL     1      -0.739   2.981   1.797  0.00  0.00    -0.177 NA
ATOM     12  N   UNL     1      -0.387   1.662   1.496  0.00  0.00    -0.244 N 
ATOM     13  C   UNL     1      -1.064   0.813   2.326  0.00  0.00    +0.159 A 
ATOM     14  N   UNL     1      -1.083  -0.509   2.459  0.00  0.00    -0.232 NA
BRANCH  12  15
ATOM     15  C   UNL     1       0.554   1.253   0.451  0.00  0.00    +0.103 C 
ATOM     16  C   UNL     1       1.927   1.865   0.734  0.00  0.00    +0.032 C 
ATOM     17  C   UNL     1       0.049   1.740  -0.909  0.00  0.00    +0.032 C 
ENDBRANCH  12  15
ENDBRANCH   1   7
BRANCH   3  18
ATOM     18  N   UNL     1      -4.944  -1.005   7.110  0.00  0.00    -0.230 N 
ATOM     19  C   UNL     1      -5.624  -0.291   8.029  0.00  0.00    +0.267 C 
ATOM     20  O   UNL     1      -5.553   0.924   8.030  0.00  0.00    -0.268 OA
ATOM     21  H   UNL     1      -5.008  -2.103   7.109  0.00  0.00    +0.173 HD
BRANCH  19  22
ATOM     22  C   UNL     1      -6.449  -0.978   9.026  0.00  0.00    +0.076 A 
ATOM     23  C   UNL     1      -7.214  -0.434  10.048  0.00  0.00    +0.021 A 
ATOM     24  C   UNL     1      -7.913  -1.278  10.864  0.00  0.00    +0.017 A 
ATOM     25  C   UNL     1      -7.822  -2.643  10.646  0.00  0.00    +0.020 A 
ATOM     26  S   UNL     1      -6.722  -2.728   9.243  0.00  0.00    -0.084 S 
BRANCH  25  27
ATOM     27  C   UNL     1      -8.469  -3.747  11.386  0.00  0.00    -0.011 A 
ATOM     28  C   UNL     1      -9.301  -3.468  12.473  0.00  0.00    +0.012 A 
ATOM     29  C   UNL     1      -9.906  -4.501  13.157  0.00  0.00    +0.039 A 
ATOM     30  C   UNL     1      -9.681  -5.814  12.774  0.00  0.00    +0.123 A 
ATOM     31  C   UNL     1      -8.852  -6.097  11.700  0.00  0.00    +0.039 A 
ATOM     32  C   UNL     1      -8.246  -5.071  11.006  0.00  0.00    +0.012 A 
ATOM     33  F   UNL     1     -10.272  -6.823  13.451  0.00  0.00    -0.205 F 
ENDBRANCH  25  27
ENDBRANCH  19  22
ENDBRANCH   3  18
TORSDOF 5
