REMARK  Name = ZINC40877627
REMARK  6 active torsions:
REMARK  status: ('A' for Active; 'I' for Inactive)
REMARK    1  A    between atoms: C_3  and  N_16
REMARK    2  A    between atoms: C_6  and  C_7
REMARK    3  A    between atoms: C_9  and  C_12
REMARK    4  A    between atoms: C_20  and  C_23
REMARK    5  A    between atoms: C_28  and  C_31
REMARK    6  A    between atoms: C_28  and  N_34
REMARK                            x       y       z     vdW  Elec       q    Type
REMARK                         _______ _______ _______ _____ _____    ______ ____
ROOT
ATOM      1  N   UNL     1       2.141   3.107   0.348  0.00  0.00    -0.327 N 
ATOM      2  C   UNL     1       2.986   2.627  -0.753  0.00  0.00    +0.105 C 
ATOM      3  C   UNL     1       4.060   3.680  -1.046  0.00  0.00    +0.020 C 
ATOM      4  C   UNL     1       4.824   3.995   0.243  0.00  0.00    +0.016 C 
ATOM      5  C   UNL     1       3.858   4.566   1.284  0.00  0.00    +0.092 C 
ATOM      6  C   UNL     1       2.783   3.529   1.600  0.00  0.00    +0.118 C 
ENDROOT
BRANCH   5   7
ATOM      7  C   UNL     1       4.617   4.906   2.540  0.00  0.00    +0.220 C 
ATOM      8  O   UNL     1       4.633   4.127   3.469  0.00  0.00    -0.275 OA
ATOM      9  N   UNL     1       5.279   6.077   2.632  0.00  0.00    -0.301 N 
ATOM     10  C   UNL     1       5.180   7.078   1.561  0.00  0.00    +0.107 C 
ATOM     11  C   UNL     1       6.594   7.457   1.109  0.00  0.00    +0.016 C 
ATOM     12  C   UNL     1       7.408   7.913   2.322  0.00  0.00    +0.015 C 
ATOM     13  C   UNL     1       7.514   6.764   3.327  0.00  0.00    +0.016 C 
ATOM     14  C   UNL     1       6.107   6.379   3.807  0.00  0.00    +0.107 C 
BRANCH  12  15
ATOM     15  N   UNL     1       8.754   8.309   1.887  0.00  0.00    +0.389 N 
ATOM     16  C   UNL     1       8.650   9.399   0.910  0.00  0.00    -0.077 C 
ATOM     17  C   UNL     1      10.044   9.761   0.393  0.00  0.00    -0.019 C 
ATOM     18  C   UNL     1      10.918  10.208   1.568  0.00  0.00    -0.004 C 
ATOM     19  C   UNL     1      10.959   9.091   2.615  0.00  0.00    -0.019 C 
ATOM     20  C   UNL     1       9.531   8.754   3.050  0.00  0.00    -0.077 C 
ATOM     21  H   UNL     1       9.214   7.519   1.459  0.00  0.00    -0.080 HD
ENDBRANCH  12  15
BRANCH  12  22
ATOM     22  C   UNL     1       6.725   9.088   2.973  0.00  0.00    +0.200 C 
ATOM     23  O   UNL     1       5.876   9.707   2.368  0.00  0.00    -0.278 OA
ATOM     24  N   UNL     1       7.058   9.451   4.227  0.00  0.00    -0.330 N 
ATOM     25  H   UNL     1       7.787   9.003   4.684  0.00  0.00    +0.145 HD
ATOM     26  H   UNL     1       6.570  10.161   4.672  0.00  0.00    +0.145 HD
ENDBRANCH  12  22
ENDBRANCH   5   7
BRANCH   1  29
ATOM     27  C   UNL     1      -1.214   4.381  -0.434  0.00  0.00    +0.013 A 
ATOM     28  C   UNL     1       0.156   4.320  -0.291  0.00  0.00    +0.027 A 
ATOM     29  C   UNL     1       0.753   3.167   0.205  0.00  0.00    +0.065 A 
ATOM     30  C   UNL     1      -0.030   2.072   0.559  0.00  0.00    +0.145 A 
ATOM     31  C   UNL     1      -1.401   2.130   0.418  0.00  0.00    +0.052 A 
ATOM     32  C   UNL     1      -2.001   3.287  -0.081  0.00  0.00    +0.025 A 
ATOM     33  F   UNL     1       0.552   0.952   1.041  0.00  0.00    -0.204 F 
BRANCH  32  34
ATOM     34  C   UNL     1      -3.475   3.352  -0.233  0.00  0.00    +0.202 A 
ATOM     35  N   UNL     1      -4.340   2.369   0.076  0.00  0.00    -0.191 NA
ATOM     36  C   UNL     1      -5.559   2.752  -0.179  0.00  0.00    +0.231 A 
ATOM     37  O   UNL     1      -5.520   4.000  -0.664  0.00  0.00    -0.337 OA
ATOM     38  N   UNL     1      -4.152   4.378  -0.687  0.00  0.00    -0.056 NA
BRANCH  36  39
ATOM     39  C   UNL     1      -6.803   1.929   0.035  0.00  0.00    +0.078 C 
ATOM     40  C   UNL     1      -8.119   2.482  -0.515  0.00  0.00    +0.014 C 
ATOM     41  C   UNL     1      -7.860   2.481   0.993  0.00  0.00    +0.014 C 
ENDBRANCH  36  39
ENDBRANCH  32  34
ENDBRANCH   1  29
TORSDOF 6
