REMARK  Name = ZINC61692112
REMARK  6 active torsions:
REMARK  status: ('A' for Active; 'I' for Inactive)
REMARK    1  A    between atoms: C_4  and  N_11
REMARK    2  A    between atoms: C_6  and  C_7
REMARK    3  A    between atoms: C_8  and  C_9
REMARK    4  A    between atoms: C_9  and  N_10
REMARK    5  A    between atoms: N_11  and  S_12
REMARK    6  A    between atoms: S_12  and  N_15
REMARK                            x       y       z     vdW  Elec       q    Type
REMARK                         _______ _______ _______ _____ _____    ______ ____
ROOT
ATOM      1  C   UNL     1      -0.032   1.362   0.059  0.00  0.00    +0.018 A 
ATOM      2  C   UNL     1       0.004  -0.017   0.004  0.00  0.00    +0.023 A 
ATOM      3  C   UNL     1       1.217  -0.681  -0.027  0.00  0.00    +0.066 A 
ATOM      4  C   UNL     1       2.408   0.038  -0.005  0.00  0.00    +0.095 A 
ATOM      5  C   UNL     1       2.381   1.422   0.049  0.00  0.00    +0.045 A 
ATOM      6  C   UNL     1       1.158   2.091   0.081  0.00  0.00    +0.027 A 
ATOM      7 CL   UNL     1       1.253  -2.415  -0.095  0.00  0.00    -0.082 Cl
ENDROOT
BRANCH   6   8
ATOM      8  C   UNL     1       1.122   3.521   0.137  0.00  0.00    -0.068 C 
ATOM      9  C   UNL     1       1.093   4.694   0.183  0.00  0.00    -0.117 C 
BRANCH   9  10
ATOM     10  C   UNL     1       1.057   6.165   0.240  0.00  0.00    +0.005 C 
BRANCH  10  11
ATOM     11  N   UNL     1       2.430   6.688   0.254  0.00  0.00    +0.385 N 
ATOM     12  H   UNL     1       2.910   6.396  -0.584  0.00  0.00    -0.089 HD
ATOM     13  H   UNL     1       2.405   7.696   0.293  0.00  0.00    -0.089 HD
ATOM     14  H   UNL     1       2.917   6.332   1.062  0.00  0.00    -0.089 HD
ENDBRANCH  10  11
ENDBRANCH   9  10
ENDBRANCH   6   8
BRANCH   4  15
ATOM     15  N   UNL     1       3.632  -0.637  -0.037  0.00  0.00    -0.086 NA
BRANCH  15  16
ATOM     16  S   UNL     1       5.045   0.216  -0.171  0.00  0.00    +0.131 S 
ATOM     17  O   UNL     1       4.988   0.902  -1.414  0.00  0.00    -0.136 OA
ATOM     18  O   UNL     1       5.229   0.893   1.065  0.00  0.00    -0.136 OA
BRANCH  16  19
ATOM     19  N   UNL     1       6.273  -0.887  -0.295  0.00  0.00    -0.162 NA
ATOM     20  C   UNL     1       6.947  -1.395   0.908  0.00  0.00    +0.111 C 
ATOM     21  C   UNL     1       6.906  -2.926   0.886  0.00  0.00    +0.017 C 
ATOM     22  C   UNL     1       7.504  -3.430  -0.429  0.00  0.00    +0.003 C 
ATOM     23  C   UNL     1       6.672  -2.908  -1.603  0.00  0.00    +0.017 C 
ATOM     24  C   UNL     1       6.706  -1.381  -1.609  0.00  0.00    +0.111 C 
ENDBRANCH  16  19
ENDBRANCH  15  16
ENDBRANCH   4  15
TORSDOF 6
