REMARK  Name = ZINC09318450
REMARK  7 active torsions:
REMARK  status: ('A' for Active; 'I' for Inactive)
REMARK    1  A    between atoms: C_1  and  C_2
REMARK    2  A    between atoms: C_6  and  N_8
REMARK    3  A    between atoms: C_14  and  C_17
REMARK    4  A    between atoms: N_19  and  C_20
REMARK    5  A    between atoms: C_23  and  C_30
REMARK    6  A    between atoms: C_26  and  C_28
REMARK    7  A    between atoms: C_26  and  C_29
REMARK                            x       y       z     vdW  Elec       q    Type
REMARK                         _______ _______ _______ _____ _____    ______ ____
ROOT
ATOM      1  N   UNL     1       2.323   0.998  -0.015  0.00  0.00    -0.269 N 
ATOM      2  C   UNL     1       1.161   1.657   0.165  0.00  0.00    +0.310 C 
ATOM      3  O   UNL     1       1.165   2.862   0.326  0.00  0.00    -0.252 OA
ATOM      4  N   UNL     1      -0.004   0.981   0.167  0.00  0.00    -0.248 N 
ATOM      5  C   UNL     1      -1.202   1.661   0.347  0.00  0.00    +0.166 A 
ATOM      6  N   UNL     1      -2.430   1.187   0.375  0.00  0.00    -0.220 NA
ATOM      7  C   UNL     1      -3.458   2.019   0.563  0.00  0.00    +0.135 A 
ATOM      8  C   UNL     1      -3.209   3.356   0.724  0.00  0.00    +0.081 A 
ATOM      9  S   UNL     1      -1.477   3.405   0.609  0.00  0.00    -0.060 S 
ATOM     10  H   UNL     1       2.328   0.029  -0.066  0.00  0.00    +0.156 HD
ATOM     11  H   UNL     1      -0.007   0.019   0.039  0.00  0.00    +0.158 HD
ENDROOT
BRANCH   1  17
ATOM     12  C   UNL     1       4.731   5.023  -1.488  0.00  0.00    +0.044 C 
ATOM     13  C   UNL     1       4.718   3.664  -0.838  0.00  0.00    -0.049 A 
ATOM     14  C   UNL     1       5.893   3.119  -0.352  0.00  0.00    +0.003 A 
ATOM     15  C   UNL     1       5.885   1.872   0.245  0.00  0.00    +0.002 A 
ATOM     16  C   UNL     1       4.703   1.166   0.359  0.00  0.00    +0.023 A 
ATOM     17  C   UNL     1       3.522   1.710  -0.128  0.00  0.00    +0.035 A 
ATOM     18  C   UNL     1       3.534   2.961  -0.733  0.00  0.00    +0.026 A 
ENDBRANCH   1  17
BRANCH   7  19
ATOM     19  C   UNL     1      -4.837   1.506   0.597  0.00  0.00    +0.263 C 
ATOM     20  O   UNL     1      -5.766   2.272   0.768  0.00  0.00    -0.269 OA
ATOM     21  N   UNL     1      -5.070   0.188   0.437  0.00  0.00    -0.307 N 
ATOM     22  H   UNL     1      -4.329  -0.422   0.301  0.00  0.00    +0.149 HD
BRANCH  21  23
ATOM     23  C   UNL     1      -6.443  -0.322   0.471  0.00  0.00    +0.074 C 
ATOM     24  C   UNL     1      -7.069  -0.193  -0.919  0.00  0.00    +0.025 C 
ATOM     25  C   UNL     1      -8.503  -0.725  -0.884  0.00  0.00    -0.012 C 
ATOM     26  C   UNL     1      -8.490  -2.197  -0.466  0.00  0.00    +0.009 C 
ATOM     27  C   UNL     1      -7.864  -2.326   0.924  0.00  0.00    -0.033 C 
ATOM     28  C   UNL     1      -6.431  -1.793   0.890  0.00  0.00    +0.028 C 
ATOM     29  C   UNL     1      -7.852  -3.798   1.343  0.00  0.00    +0.011 C 
ATOM     30  C   UNL     1      -8.685  -1.517   1.931  0.00  0.00    +0.011 C 
ATOM     31  C   UNL     1      -9.129  -0.596  -2.275  0.00  0.00    +0.007 C 
ENDBRANCH  21  23
ENDBRANCH   7  19
TORSDOF 3
