REMARK  Name = ZINC40984335
REMARK  12 active torsions:
REMARK  status: ('A' for Active; 'I' for Inactive)
REMARK    1  A    between atoms: C_1  and  C_2
REMARK    2  A    between atoms: C_3  and  C_17
REMARK    3  A    between atoms: C_5  and  C_7
REMARK    4  A    between atoms: C_10  and  O_15
REMARK    5  A    between atoms: C_11  and  O_13
REMARK    6  A    between atoms: O_13  and  C_14
REMARK    7  A    between atoms: O_15  and  C_16
REMARK    8  A    between atoms: C_17  and  N_18
REMARK    9  A    between atoms: C_21  and  C_24
REMARK   10  A    between atoms: N_26  and  C_27
REMARK   11  A    between atoms: C_27  and  C_28
REMARK   12  A    between atoms: C_32  and  C_34
REMARK                            x       y       z     vdW  Elec       q    Type
REMARK                         _______ _______ _______ _____ _____    ______ ____
ROOT
ATOM      1  N   UNL     1      -2.989  -0.231  -1.369  0.00  0.00    +0.383 N 
ATOM      2  C   UNL     1      -2.974  -1.539  -2.035  0.00  0.00    -0.078 C 
ATOM      3  C   UNL     1      -3.391  -1.375  -3.498  0.00  0.00    -0.006 C 
ATOM      4  C   UNL     1      -4.804  -0.787  -3.557  0.00  0.00    +0.071 C 
ATOM      5  C   UNL     1      -4.825   0.542  -2.796  0.00  0.00    -0.006 C 
ATOM      6  C   UNL     1      -4.354   0.307  -1.359  0.00  0.00    -0.078 C 
ATOM      7  H   UNL     1      -2.382   0.404  -1.866  0.00  0.00    -0.081 HD
ENDROOT
BRANCH   4   8
ATOM      8  C   UNL     1      -5.191  -0.550  -4.994  0.00  0.00    +0.216 C 
ATOM      9  O   UNL     1      -4.415  -0.825  -5.885  0.00  0.00    -0.276 OA
ATOM     10  N   UNL     1      -6.400  -0.033  -5.290  0.00  0.00    -0.311 N 
ATOM     11  H   UNL     1      -7.021   0.186  -4.578  0.00  0.00    +0.149 HD
BRANCH  10  12
ATOM     12  C   UNL     1      -6.777   0.197  -6.687  0.00  0.00    +0.139 C 
BRANCH  12  13
ATOM     13  C   UNL     1      -8.167   0.776  -6.744  0.00  0.00    -0.030 A 
ATOM     14  C   UNL     1      -9.263  -0.064  -6.822  0.00  0.00    +0.005 A 
ATOM     15  C   UNL     1     -10.538   0.468  -6.875  0.00  0.00    +0.001 A 
ATOM     16  C   UNL     1     -10.717   1.838  -6.847  0.00  0.00    +0.012 A 
ATOM     17  C   UNL     1      -9.622   2.677  -6.768  0.00  0.00    +0.055 A 
ATOM     18  C   UNL     1      -8.347   2.146  -6.711  0.00  0.00    +0.017 A 
BRANCH  17  19
ATOM     19  C   UNL     1      -9.818   4.171  -6.739  0.00  0.00    +0.417 C 
ATOM     20  F   UNL     1     -11.184   4.464  -6.803  0.00  0.00    -0.166 F 
ATOM     21  F   UNL     1      -9.285   4.688  -5.553  0.00  0.00    -0.166 F 
ATOM     22  F   UNL     1      -9.165   4.748  -7.833  0.00  0.00    -0.166 F 
ENDBRANCH  17  19
ENDBRANCH  12  13
ENDBRANCH  10  12
ENDBRANCH   4   8
BRANCH   1  23
ATOM     23  C   UNL     1      -2.513  -0.381   0.013  0.00  0.00    -0.019 C 
BRANCH  23  26
ATOM     24  C   UNL     1      -0.018   1.503   0.010  0.00  0.00    +0.088 C 
ATOM     25  C   UNL     1       0.002  -0.004   0.002  0.00  0.00    +0.124 A 
ATOM     26  C   UNL     1      -1.070  -0.816   0.003  0.00  0.00    +0.066 A 
ATOM     27  N   UNL     1      -0.627  -2.083  -0.007  0.00  0.00    -0.216 NA
ATOM     28  C   UNL     1       0.686  -2.068  -0.013  0.00  0.00    +0.228 A 
ATOM     29  O   UNL     1       1.099  -0.788  -0.013  0.00  0.00    -0.440 OA
BRANCH  28  30
ATOM     30  C   UNL     1       1.562  -3.257  -0.024  0.00  0.00    +0.041 A 
ATOM     31  C   UNL     1       1.004  -4.537  -0.035  0.00  0.00    +0.017 A 
ATOM     32  C   UNL     1       1.823  -5.646  -0.044  0.00  0.00    +0.050 A 
ATOM     33  C   UNL     1       3.202  -5.494  -0.044  0.00  0.00    +0.162 A 
ATOM     34  C   UNL     1       3.765  -4.220  -0.034  0.00  0.00    +0.162 A 
ATOM     35  C   UNL     1       2.950  -3.104  -0.030  0.00  0.00    +0.062 A 
BRANCH  34  36
ATOM     36  O   UNL     1       5.118  -4.074  -0.033  0.00  0.00    -0.491 OA
ATOM     37  C   UNL     1       5.626  -2.739  -0.022  0.00  0.00    +0.277 C 
ENDBRANCH  34  36
BRANCH  33  38
ATOM     38  O   UNL     1       4.006  -6.591  -0.052  0.00  0.00    -0.491 OA
ATOM     39  C   UNL     1       3.362  -7.866  -0.062  0.00  0.00    +0.277 C 
ENDBRANCH  33  38
ENDBRANCH  28  30
ENDBRANCH  23  26
ENDBRANCH   1  23
TORSDOF 9
