REMARK  Name = ZINC35987364
REMARK  7 active torsions:
REMARK  status: ('A' for Active; 'I' for Inactive)
REMARK    1  A    between atoms: C_1  and  C_2
REMARK    2  A    between atoms: C_7  and  C_8
REMARK    3  A    between atoms: C_11  and  C_28
REMARK    4  A    between atoms: C_21  and  C_23
REMARK    5  A    between atoms: N_30  and  C_31
REMARK    6  A    between atoms: C_31  and  C_33
REMARK    7  A    between atoms: C_31  and  C_34
REMARK                            x       y       z     vdW  Elec       q    Type
REMARK                         _______ _______ _______ _____ _____    ______ ____
ROOT
ATOM      1  C   UNL     1      -0.216  -0.097   2.593  0.00  0.00    +0.250 C 
ATOM      2  O   UNL     1      -0.929   0.869   2.406  0.00  0.00    -0.270 OA
ATOM      3  N   UNL     1       0.082  -0.482   3.850  0.00  0.00    -0.255 N 
ATOM      4  C   UNL     1       0.985  -1.583   4.253  0.00  0.00    +0.190 C 
ATOM      5  C   UNL     1       1.359  -1.204   5.708  0.00  0.00    +0.194 C 
ATOM      6  O   UNL     1       0.129  -0.625   6.203  0.00  0.00    -0.353 OA
ATOM      7  C   UNL     1      -0.418   0.113   5.098  0.00  0.00    +0.142 C 
ATOM      8  C   UNL     1      -1.944   0.025   5.135  0.00  0.00    +0.074 C 
ATOM      9  C   UNL     1      -2.525   0.785   3.937  0.00  0.00    +0.112 C 
ATOM     10  N   UNL     1      -1.994   2.154   3.943  0.00  0.00    -0.297 N 
ATOM     11  C   UNL     1      -0.538   2.347   3.989  0.00  0.00    +0.112 C 
ATOM     12  C   UNL     1       0.025   1.574   5.186  0.00  0.00    +0.074 C 
ATOM     13  C   UNL     1      -2.826   3.214   3.907  0.00  0.00    +0.253 C 
ATOM     14  O   UNL     1      -4.028   3.047   3.997  0.00  0.00    -0.269 OA
ENDROOT
BRANCH   1  21
ATOM     15  C   UNL     1       1.299   1.291   0.556  0.00  0.00    +0.044 C 
ATOM     16  C   UNL     1       1.056  -0.193   0.453  0.00  0.00    -0.038 A 
ATOM     17  C   UNL     1       1.561  -0.904  -0.616  0.00  0.00    +0.004 A 
ATOM     18  C   UNL     1       1.339  -2.266  -0.712  0.00  0.00    +0.000 A 
ATOM     19  C   UNL     1       0.609  -2.924   0.262  0.00  0.00    +0.001 A 
ATOM     20  C   UNL     1       0.098  -2.225   1.335  0.00  0.00    +0.013 A 
ATOM     21  C   UNL     1       0.323  -0.852   1.441  0.00  0.00    +0.040 A 
ENDBRANCH   1  21
BRANCH  13  22
ATOM     22  C   UNL     1      -2.283   4.567   3.758  0.00  0.00    +0.074 A 
ATOM     23  C   UNL     1      -2.934   5.787   3.864  0.00  0.00    +0.021 A 
ATOM     24  C   UNL     1      -2.152   6.900   3.671  0.00  0.00    +0.008 A 
ATOM     25  C   UNL     1      -0.834   6.740   3.397  0.00  0.00    +0.046 A 
ATOM     26  S   UNL     1      -0.612   5.075   3.401  0.00  0.00    -0.092 S 
ENDBRANCH  13  22
BRANCH   4  27
ATOM     27  C   UNL     1       2.209  -1.619   3.375  0.00  0.00    +0.236 C 
ATOM     28  O   UNL     1       2.548  -0.626   2.766  0.00  0.00    -0.274 OA
ATOM     29  N   UNL     1       2.927  -2.754   3.265  0.00  0.00    -0.307 N 
ATOM     30  H   UNL     1       2.655  -3.548   3.752  0.00  0.00    +0.149 HD
BRANCH  29  31
ATOM     31  C   UNL     1       4.117  -2.789   2.411  0.00  0.00    +0.100 C 
ATOM     32  C   UNL     1       5.324  -2.275   3.198  0.00  0.00    +0.033 C 
BRANCH  31  33
ATOM     33  C   UNL     1       4.374  -4.205   1.965  0.00  0.00    -0.027 A 
ATOM     34  C   UNL     1       4.193  -5.252   2.850  0.00  0.00    +0.005 A 
ATOM     35  C   UNL     1       4.428  -6.551   2.441  0.00  0.00    +0.000 A 
ATOM     36  C   UNL     1       4.845  -6.804   1.147  0.00  0.00    +0.000 A 
ATOM     37  C   UNL     1       5.025  -5.757   0.262  0.00  0.00    +0.000 A 
ATOM     38  C   UNL     1       4.785  -4.458   0.670  0.00  0.00    +0.005 A 
ENDBRANCH  31  33
ENDBRANCH  29  31
ENDBRANCH   4  27
TORSDOF 5
