REMARK  Name = ZINC39672238
REMARK  8 active torsions:
REMARK  status: ('A' for Active; 'I' for Inactive)
REMARK    1  A    between atoms: C_1  and  C_2
REMARK    2  A    between atoms: C_2  and  C_3
REMARK    3  A    between atoms: C_3  and  C_5
REMARK    4  A    between atoms: C_3  and  C_11
REMARK    5  A    between atoms: C_15  and  C_24
REMARK    6  A    between atoms: N_26  and  C_27
REMARK    7  A    between atoms: C_27  and  C_28
REMARK    8  A    between atoms: N_37  and  C_38
REMARK                            x       y       z     vdW  Elec       q    Type
REMARK                         _______ _______ _______ _____ _____    ______ ____
ROOT
ATOM      1  C   UNL     1      -1.391  -2.187   0.095  0.00  0.00    +0.223 C 
ATOM      2  O   UNL     1      -1.926  -2.890  -0.736  0.00  0.00    -0.275 OA
ATOM      3  N   UNL     1      -0.842  -2.741   1.194  0.00  0.00    -0.300 N 
ATOM      4  C   UNL     1      -0.156  -2.052   2.312  0.00  0.00    +0.121 C 
ATOM      5  C   UNL     1      -0.621  -2.806   3.578  0.00  0.00    +0.100 C 
ATOM      6  C   UNL     1      -1.032  -4.200   3.076  0.00  0.00    -0.004 C 
ATOM      7  C   UNL     1      -0.793  -4.177   1.560  0.00  0.00    +0.115 C 
ATOM      8  C   UNL     1      -0.169  -5.274   3.732  0.00  0.00    -0.010 C 
ATOM      9  C   UNL     1      -0.634  -6.654   3.262  0.00  0.00    -0.082 C 
ATOM     10  N   UNL     1      -2.045  -6.846   3.621  0.00  0.00    +0.379 N 
ATOM     11  C   UNL     1      -2.879  -5.867   2.913  0.00  0.00    -0.082 C 
ATOM     12  C   UNL     1      -2.508  -4.453   3.369  0.00  0.00    -0.010 C 
ATOM     13  H   UNL     1      -2.332  -7.778   3.365  0.00  0.00    -0.086 HD
ATOM     14  H   UNL     1      -2.157  -6.724   4.616  0.00  0.00    -0.086 HD
ENDROOT
BRANCH   5  15
ATOM     15  C   UNL     1       0.509  -2.914   4.569  0.00  0.00    +0.218 C 
ATOM     16  O   UNL     1       1.655  -2.980   4.177  0.00  0.00    -0.275 OA
ATOM     17  N   UNL     1       0.247  -2.938   5.891  0.00  0.00    -0.311 N 
ATOM     18  H   UNL     1      -0.669  -2.885   6.205  0.00  0.00    +0.149 HD
BRANCH  17  19
ATOM     19  C   UNL     1       1.346  -3.044   6.854  0.00  0.00    +0.139 C 
BRANCH  19  20
ATOM     20  C   UNL     1       0.788  -3.050   8.254  0.00  0.00    -0.030 A 
ATOM     21  C   UNL     1       0.610  -1.857   8.930  0.00  0.00    +0.007 A 
ATOM     22  C   UNL     1       0.100  -1.863  10.213  0.00  0.00    +0.024 A 
ATOM     23  C   UNL     1      -0.234  -3.067  10.824  0.00  0.00    +0.033 A 
ATOM     24  C   UNL     1      -0.057  -4.262  10.144  0.00  0.00    -0.026 A 
ATOM     25  C   UNL     1       0.452  -4.247   8.856  0.00  0.00    +0.010 A 
ATOM     26  C   UNL     1      -0.417  -5.584  10.770  0.00  0.00    +0.038 C 
ATOM     27  C   UNL     1      -0.474  -5.458  12.292  0.00  0.00    +0.024 C 
ATOM     28  C   UNL     1      -1.372  -4.269  12.658  0.00  0.00    +0.105 C 
ATOM     29  N   UNL     1      -0.744  -3.051  12.127  0.00  0.00    -0.333 N 
ATOM     30  C   UNL     1      -0.654  -1.841  12.947  0.00  0.00    +0.129 C 
ENDBRANCH  19  20
ENDBRANCH  17  19
ENDBRANCH   5  15
BRANCH   1  31
ATOM     31  C   UNL     1      -1.340  -0.694  -0.102  0.00  0.00    +0.105 C 
BRANCH  31  32
ATOM     32  C   UNL     1      -2.019  -0.334  -1.399  0.00  0.00    -0.036 A 
ATOM     33  C   UNL     1      -1.548  -0.849  -2.592  0.00  0.00    +0.004 A 
ATOM     34  C   UNL     1      -2.171  -0.520  -3.781  0.00  0.00    +0.000 A 
ATOM     35  C   UNL     1      -3.265   0.325  -3.777  0.00  0.00    +0.000 A 
ATOM     36  C   UNL     1      -3.737   0.839  -2.584  0.00  0.00    +0.000 A 
ATOM     37  C   UNL     1      -3.117   0.506  -1.394  0.00  0.00    +0.004 A 
ENDBRANCH  31  32
BRANCH  31  39
ATOM     38  C   UNL     1       0.171   1.292  -0.221  0.00  0.00    +0.005 C 
ATOM     39  C   UNL     1       0.119  -0.235  -0.146  0.00  0.00    +0.014 C 
ENDBRANCH  31  39
ENDBRANCH   1  31
TORSDOF 6
