REMARK  Name = ZINC48160987
REMARK  6 active torsions:
REMARK  status: ('A' for Active; 'I' for Inactive)
REMARK    1  A    between atoms: C_2  and  C_3
REMARK    2  A    between atoms: C_3  and  N_4
REMARK    3  A    between atoms: C_5  and  C_7
REMARK    4  A    between atoms: C_10  and  N_13
REMARK    5  A    between atoms: N_16  and  C_17
REMARK    6  A    between atoms: C_17  and  C_18
REMARK                            x       y       z     vdW  Elec       q    Type
REMARK                         _______ _______ _______ _____ _____    ______ ____
ROOT
ATOM      1  C   UNL     1       2.485  -3.401   2.425  0.00  0.00    +0.037 A 
ATOM      2  C   UNL     1       1.403  -3.506   3.303  0.00  0.00    +0.015 A 
ATOM      3  C   UNL     1       1.460  -4.383   4.362  0.00  0.00    +0.024 A 
ATOM      4  C   UNL     1       2.594  -5.164   4.559  0.00  0.00    +0.035 A 
ATOM      5  C   UNL     1       3.674  -5.062   3.688  0.00  0.00    +0.024 A 
ATOM      6  C   UNL     1       3.620  -4.191   2.623  0.00  0.00    +0.015 A 
ENDROOT
BRANCH   4   7
ATOM      7  N   UNL     1       2.650  -6.051   5.634  0.00  0.00    -0.269 N 
ATOM      8  C   UNL     1       2.066  -5.729   6.805  0.00  0.00    +0.304 C 
ATOM      9  O   UNL     1       1.421  -4.703   6.900  0.00  0.00    -0.252 OA
ATOM     10  N   UNL     1       2.197  -6.544   7.870  0.00  0.00    -0.295 N 
ATOM     11  H   UNL     1       3.108  -6.901   5.538  0.00  0.00    +0.156 HD
ATOM     12  H   UNL     1       2.712  -7.362   7.794  0.00  0.00    +0.151 HD
BRANCH  10  13
ATOM     13  C   UNL     1       1.563  -6.193   9.143  0.00  0.00    +0.148 C 
BRANCH  13  14
ATOM     14  C   UNL     1       1.861  -7.261  10.164  0.00  0.00    +0.008 A 
ATOM     15  C   UNL     1       2.896  -7.344  11.036  0.00  0.00    +0.028 A 
ATOM     16  C   UNL     1       2.967  -8.428  11.891  0.00  0.00    +0.025 A 
ATOM     17  C   UNL     1       1.999  -9.376  11.832  0.00  0.00    +0.060 A 
ATOM     18  S   UNL     1       0.938  -8.742  10.544  0.00  0.00    -0.099 S 
ATOM     19 BR   UNL     1       4.392  -8.586  13.124  0.00  0.00    -0.050 Br
ENDBRANCH  13  14
ENDBRANCH  10  13
ENDBRANCH   4   7
BRANCH   1  21
ATOM     20  N   UNL     1       1.330  -1.700   1.098  0.00  0.00    -0.308 N 
ATOM     21  C   UNL     1       2.426  -2.462   1.288  0.00  0.00    +0.244 C 
ATOM     22  O   UNL     1       3.366  -2.375   0.522  0.00  0.00    -0.270 OA
ATOM     23  H   UNL     1       0.580  -1.770   1.709  0.00  0.00    +0.149 HD
BRANCH  20  24
ATOM     24  C   UNL     1       1.272  -0.769  -0.031  0.00  0.00    +0.131 C 
BRANCH  24  26
ATOM     25  C   UNL     1      -0.078   1.266  -0.013  0.00  0.00    +0.005 C 
ATOM     26  C   UNL     1      -0.049  -0.044  -0.016  0.00  0.00    -0.016 C 
ENDBRANCH  24  26
ENDBRANCH  20  24
ENDBRANCH   1  21
TORSDOF 6
