REMARK  Name = ZINC37064630
REMARK  6 active torsions:
REMARK  status: ('A' for Active; 'I' for Inactive)
REMARK    1  A    between atoms: C_1  and  C_2
REMARK    2  A    between atoms: C_5  and  N_9
REMARK    3  A    between atoms: C_6  and  N_8
REMARK    4  A    between atoms: C_10  and  C_12
REMARK    5  A    between atoms: C_15  and  S_18
REMARK    6  A    between atoms: S_18  and  C_21
REMARK                            x       y       z     vdW  Elec       q    Type
REMARK                         _______ _______ _______ _____ _____    ______ ____
ROOT
ATOM      1  N   UNL     1       0.057  -4.176  -0.035  0.00  0.00    -0.280 N 
ATOM      2  C   UNL     1      -0.042  -4.840  -1.203  0.00  0.00    +0.248 C 
ATOM      3  O   UNL     1      -0.055  -4.227  -2.252  0.00  0.00    -0.270 OA
ATOM      4  H   UNL     1       0.149  -4.667   0.797  0.00  0.00    +0.155 HD
ENDROOT
BRANCH   1   9
ATOM      5  C   UNL     1      -0.067   1.502   0.017  0.00  0.00    +0.044 C 
ATOM      6  C   UNL     1      -0.032  -0.005   0.006  0.00  0.00    -0.049 A 
ATOM      7  C   UNL     1      -0.622  -0.701  -1.033  0.00  0.00    +0.005 A 
ATOM      8  C   UNL     1      -0.594  -2.083  -1.049  0.00  0.00    +0.025 A 
ATOM      9  C   UNL     1       0.028  -2.775  -0.021  0.00  0.00    +0.055 A 
ATOM     10  C   UNL     1       0.624  -2.074   1.027  0.00  0.00    +0.046 A 
ATOM     11  C   UNL     1       0.595  -0.687   1.032  0.00  0.00    +0.028 A 
BRANCH  10  12
ATOM     12  N   UNL     1       1.252  -2.766   2.068  0.00  0.00    -0.357 N 
ATOM     13  H   UNL     1       1.274  -3.736   2.061  0.00  0.00    +0.142 HD
ATOM     14  H   UNL     1       1.666  -2.276   2.796  0.00  0.00    +0.142 HD
ENDBRANCH  10  12
ENDBRANCH   1   9
BRANCH   2  15
ATOM     15  C   UNL     1      -0.134  -6.316  -1.208  0.00  0.00    +0.037 A 
ATOM     16  C   UNL     1      -0.125  -7.023  -0.005  0.00  0.00    +0.015 A 
ATOM     17  C   UNL     1      -0.212  -8.400  -0.017  0.00  0.00    +0.027 A 
ATOM     18  C   UNL     1      -0.308  -9.079  -1.218  0.00  0.00    +0.088 A 
ATOM     19  C   UNL     1      -0.318  -8.384  -2.415  0.00  0.00    +0.027 A 
ATOM     20  C   UNL     1      -0.237  -7.007  -2.417  0.00  0.00    +0.015 A 
BRANCH  18  21
ATOM     21  S   UNL     1      -0.418 -10.838  -1.225  0.00  0.00    -0.006 S 
ATOM     22  O   UNL     1       0.105 -11.229  -2.487  0.00  0.00    -0.170 OA
ATOM     23  O   UNL     1       0.215 -11.245  -0.020  0.00  0.00    -0.170 OA
ATOM     24  C   UNL     1      -2.195 -11.194  -1.148  0.00  0.00    +0.200 C 
ENDBRANCH  18  21
ENDBRANCH   2  15
TORSDOF 4
