REMARK  Name = ZINC35980668
REMARK  7 active torsions:
REMARK  status: ('A' for Active; 'I' for Inactive)
REMARK    1  A    between atoms: C_1  and  S_2
REMARK    2  A    between atoms: S_2  and  C_3
REMARK    3  A    between atoms: C_6  and  C_9
REMARK    4  A    between atoms: C_11  and  C_23
REMARK    5  A    between atoms: C_13  and  C_18
REMARK    6  A    between atoms: C_13  and  O_22
REMARK    7  A    between atoms: C_23  and  C_25
REMARK                            x       y       z     vdW  Elec       q    Type
REMARK                         _______ _______ _______ _____ _____    ______ ____
ROOT
ATOM      1  C   UNL     1       2.571  -1.127  -5.292  0.00  0.00    +0.120 C 
ATOM      2  C   UNL     1       1.885  -1.734  -6.521  0.00  0.00    +0.144 C 
ATOM      3  C   UNL     1       2.955  -2.380  -7.407  0.00  0.00    +0.243 C 
ATOM      4  N   UNL     1       3.713  -3.350  -6.615  0.00  0.00    -0.264 N 
ATOM      5  C   UNL     1       3.874  -3.197  -5.293  0.00  0.00    +0.302 C 
ATOM      6  O   UNL     1       4.521  -4.027  -4.684  0.00  0.00    -0.253 OA
ATOM      7  N   UNL     1       3.351  -2.164  -4.615  0.00  0.00    -0.292 N 
ATOM      8  H   UNL     1       4.106  -4.120  -7.056  0.00  0.00    +0.153 HD
ATOM      9  H   UNL     1       3.491  -2.104  -3.657  0.00  0.00    +0.151 HD
ENDROOT
BRANCH   1  13
ATOM     10  C   UNL     1      -0.388   0.412  -2.618  0.00  0.00    +0.008 A 
ATOM     11  C   UNL     1       0.211   1.250  -3.552  0.00  0.00    +0.015 A 
ATOM     12  C   UNL     1       1.166   0.749  -4.414  0.00  0.00    +0.006 A 
ATOM     13  C   UNL     1       1.528  -0.584  -4.349  0.00  0.00    -0.026 A 
ATOM     14  C   UNL     1       0.934  -1.421  -3.422  0.00  0.00    +0.006 A 
ATOM     15  C   UNL     1      -0.018  -0.926  -2.553  0.00  0.00    +0.015 A 
BRANCH  10  17
ATOM     16  C   UNL     1      -1.747   2.795  -1.976  0.00  0.00    +0.090 C 
ATOM     17  S   UNL     1      -1.607   1.046  -1.516  0.00  0.00    -0.129 S 
ENDBRANCH  10  17
ENDBRANCH   1  13
BRANCH   3  18
ATOM     18  C   UNL     1       2.283  -3.093  -8.582  0.00  0.00    +0.436 C 
ATOM     19  F   UNL     1       1.447  -2.195  -9.256  0.00  0.00    -0.166 F 
ATOM     20  F   UNL     1       3.262  -3.568  -9.461  0.00  0.00    -0.166 F 
ATOM     21  F   UNL     1       1.524  -4.167  -8.104  0.00  0.00    -0.166 F 
ENDBRANCH   3  18
BRANCH   3  22
ATOM     22  O   UNL     1       3.839  -1.372  -7.901  0.00  0.00    -0.364 OA
ATOM     23  H   UNL     1       4.543  -1.711  -8.471  0.00  0.00    +0.212 HD
ENDBRANCH   3  22
BRANCH   2  24
ATOM     24  C   UNL     1       0.889  -2.776  -6.081  0.00  0.00    +0.173 C 
ATOM     25  O   UNL     1       1.267  -3.764  -5.489  0.00  0.00    -0.292 OA
BRANCH  24  26
ATOM     26  C   UNL     1      -0.541  -2.594  -6.371  0.00  0.00    +0.018 A 
ATOM     27  C   UNL     1      -0.996  -1.405  -6.951  0.00  0.00    +0.013 A 
ATOM     28  C   UNL     1      -2.338  -1.242  -7.220  0.00  0.00    +0.020 A 
ATOM     29  C   UNL     1      -3.236  -2.253  -6.917  0.00  0.00    +0.041 A 
ATOM     30  C   UNL     1      -2.793  -3.433  -6.342  0.00  0.00    +0.020 A 
ATOM     31  C   UNL     1      -1.454  -3.612  -6.073  0.00  0.00    +0.013 A 
ATOM     32 CL   UNL     1      -4.925  -2.038  -7.258  0.00  0.00    -0.084 Cl
ENDBRANCH  24  26
ENDBRANCH   2  24
TORSDOF 6
