REMARK  Name = ZINC01628535
REMARK  11 active torsions:
REMARK  status: ('A' for Active; 'I' for Inactive)
REMARK    1  A    between atoms: C_1  and  C_2
REMARK    2  A    between atoms: C_2  and  C_3
REMARK    3  A    between atoms: C_2  and  C_4
REMARK    4  A    between atoms: C_2  and  N_5
REMARK    5  A    between atoms: N_5  and  N_6
REMARK    6  A    between atoms: C_7  and  C_9
REMARK    7  A    between atoms: C_9  and  N_26
REMARK    8  A    between atoms: C_10  and  C_11
REMARK    9  A    between atoms: C_14  and  O_17
REMARK   10  A    between atoms: O_17  and  C_18
REMARK   11  A    between atoms: C_27  and  C_29
REMARK                            x       y       z     vdW  Elec       q    Type
REMARK                         _______ _______ _______ _____ _____    ______ ____
ROOT
ATOM      1  C   UNL     1      -6.738  -0.913   0.112  0.00  0.00    +0.098 C 
ATOM      2  C   UNL     1      -6.894   0.431   0.068  0.00  0.00    +0.036 C 
ENDROOT
BRANCH   2   3
ATOM      3  C   UNL     1      -5.717   1.310   0.099  0.00  0.00    -0.023 A 
ATOM      4  C   UNL     1      -4.481   0.844  -0.366  0.00  0.00    +0.011 A 
ATOM      5  C   UNL     1      -3.381   1.671  -0.334  0.00  0.00    +0.047 A 
ATOM      6  C   UNL     1      -3.496   2.966   0.158  0.00  0.00    +0.128 A 
ATOM      7  C   UNL     1      -4.719   3.432   0.626  0.00  0.00    +0.047 A 
ATOM      8  C   UNL     1      -5.827   2.614   0.594  0.00  0.00    +0.011 A 
BRANCH   6   9
ATOM      9  O   UNL     1      -2.408   3.778   0.187  0.00  0.00    -0.456 OA
BRANCH   9  10
ATOM     10  C   UNL     1      -1.777   3.958   1.377  0.00  0.00    +0.130 A 
ATOM     11  C   UNL     1      -2.291   3.381   2.530  0.00  0.00    +0.048 A 
ATOM     12  C   UNL     1      -1.652   3.568   3.740  0.00  0.00    +0.025 A 
ATOM     13  C   UNL     1      -0.493   4.322   3.802  0.00  0.00    +0.059 A 
ATOM     14  C   UNL     1       0.025   4.894   2.652  0.00  0.00    +0.063 A 
ATOM     15  C   UNL     1      -0.615   4.713   1.440  0.00  0.00    +0.067 A 
ATOM     16 CL   UNL     1       1.479   5.840   2.733  0.00  0.00    -0.082 Cl
ATOM     17 CL   UNL     1       0.312   4.551   5.323  0.00  0.00    -0.082 Cl
ENDBRANCH   9  10
ENDBRANCH   6   9
ENDBRANCH   2   3
BRANCH   1  19
ATOM     18  N   UNL     1      -7.766  -3.119   0.282  0.00  0.00    -0.245 N 
ATOM     19  C   UNL     1      -7.916  -1.790   0.113  0.00  0.00    +0.272 C 
ATOM     20  O   UNL     1      -9.027  -1.317  -0.038  0.00  0.00    -0.268 OA
ATOM     21  H   UNL     1      -6.890  -3.488   0.476  0.00  0.00    +0.169 HD
BRANCH  18  22
ATOM     22  N   UNL     1      -8.848  -3.946   0.181  0.00  0.00    -0.235 NA
ATOM     23  H   UNL     1      -9.309  -3.833  -0.710  0.00  0.00    +0.145 HD
BRANCH  22  25
ATOM     24  C   UNL     1      -7.859  -5.498   1.797  0.00  0.00    +0.029 C 
ATOM     25  C   UNL     1      -8.463  -5.347   0.399  0.00  0.00    +0.028 C 
ATOM     26  C   UNL     1      -9.698  -6.241   0.278  0.00  0.00    +0.029 C 
ATOM     27  C   UNL     1      -7.429  -5.761  -0.650  0.00  0.00    +0.029 C 
ENDBRANCH  22  25
ENDBRANCH  18  22
ENDBRANCH   1  19
BRANCH   1  28
ATOM     28  N   UNL     1      -5.453  -1.467   0.158  0.00  0.00    -0.277 N 
ATOM     29  C   UNL     1      -5.070  -2.358  -0.778  0.00  0.00    +0.248 C 
ATOM     30  O   UNL     1      -5.811  -2.622  -1.706  0.00  0.00    -0.270 OA
ATOM     31  H   UNL     1      -4.839  -1.209   0.862  0.00  0.00    +0.155 HD
BRANCH  29  32
ATOM     32  C   UNL     1      -3.750  -3.015  -0.676  0.00  0.00    +0.037 A 
ATOM     33  C   UNL     1      -2.895  -2.710   0.384  0.00  0.00    +0.013 A 
ATOM     34  C   UNL     1      -1.667  -3.330   0.476  0.00  0.00    +0.001 A 
ATOM     35  C   UNL     1      -1.277  -4.245  -0.486  0.00  0.00    +0.000 A 
ATOM     36  C   UNL     1      -2.117  -4.548  -1.543  0.00  0.00    +0.001 A 
ATOM     37  C   UNL     1      -3.350  -3.939  -1.644  0.00  0.00    +0.013 A 
ENDBRANCH  29  32
ENDBRANCH   1  28
TORSDOF 8
