REMARK  Name = ZINC12419939
REMARK  13 active torsions:
REMARK  status: ('A' for Active; 'I' for Inactive)
REMARK    1  A    between atoms: C_1  and  O_2
REMARK    2  A    between atoms: O_2  and  C_3
REMARK    3  A    between atoms: C_6  and  C_11
REMARK    4  A    between atoms: C_7  and  O_9
REMARK    5  A    between atoms: O_9  and  C_10
REMARK    6  A    between atoms: C_17  and  C_35
REMARK    7  A    between atoms: C_18  and  C_25
REMARK    8  A    between atoms: C_20  and  C_23
REMARK    9  A    between atoms: C_21  and  N_22
REMARK   10  A    between atoms: C_28  and  O_33
REMARK   11  A    between atoms: C_30  and  O_31
REMARK   12  A    between atoms: O_31  and  C_32
REMARK   13  A    between atoms: O_33  and  C_34
REMARK                            x       y       z     vdW  Elec       q    Type
REMARK                         _______ _______ _______ _____ _____    ______ ____
ROOT
ATOM      1  C   UNL     1      -1.885   1.883  -0.559  0.00  0.00    +0.032 C 
ATOM      2  C   UNL     1      -0.722   1.239  -0.274  0.00  0.00    +0.080 A 
ATOM      3  C   UNL     1      -0.480  -0.189  -0.054  0.00  0.00    +0.271 A 
ATOM      4  O   UNL     1      -1.394  -0.991  -0.111  0.00  0.00    -0.266 OA
ATOM      5  N   UNL     1       0.777  -0.594   0.213  0.00  0.00    -0.256 N 
ATOM      6  C   UNL     1       1.765   0.371   0.263  0.00  0.00    +0.104 A 
ATOM      7  C   UNL     1       3.073   0.116   0.520  0.00  0.00    +0.073 C 
ATOM      8  C   UNL     1       3.489  -1.320   0.771  0.00  0.00    +0.109 C 
ATOM      9  C   UNL     1       2.378  -2.348   0.708  0.00  0.00    +0.080 C 
ATOM     10  C   UNL     1       1.121  -1.932   0.439  0.00  0.00    +0.119 C 
ATOM     11  S   UNL     1       0.922   1.905  -0.073  0.00  0.00    -0.065 S 
ENDROOT
BRANCH   1  15
ATOM     12  C   UNL     1      -2.017   6.123  -0.554  0.00  0.00    +0.124 A 
ATOM     13  C   UNL     1      -0.983   5.458   0.098  0.00  0.00    +0.046 A 
ATOM     14  C   UNL     1      -0.935   4.083   0.100  0.00  0.00    +0.015 A 
ATOM     15  C   UNL     1      -1.931   3.349  -0.557  0.00  0.00    +0.018 A 
ATOM     16  C   UNL     1      -2.970   4.024  -1.221  0.00  0.00    +0.131 A 
ATOM     17  C   UNL     1      -3.008   5.406  -1.208  0.00  0.00    +0.091 A 
BRANCH  12  19
ATOM     18  C   UNL     1      -1.004   8.157   0.142  0.00  0.00    +0.277 C 
ATOM     19  O   UNL     1      -2.055   7.481  -0.550  0.00  0.00    -0.495 OA
ENDBRANCH  12  19
BRANCH  16  20
ATOM     20  O   UNL     1      -3.936   3.321  -1.866  0.00  0.00    -0.494 OA
ATOM     21  C   UNL     1      -4.960   4.075  -2.518  0.00  0.00    +0.277 C 
ENDBRANCH  16  20
ENDBRANCH   1  15
BRANCH   8  22
ATOM     22  C   UNL     1       4.535  -1.692  -0.248  0.00  0.00    +0.008 A 
ATOM     23  C   UNL     1       4.197  -1.772  -1.586  0.00  0.00    +0.012 A 
ATOM     24  C   UNL     1       5.155  -2.108  -2.523  0.00  0.00    +0.046 A 
ATOM     25  C   UNL     1       6.456  -2.377  -2.122  0.00  0.00    +0.124 A 
ATOM     26  C   UNL     1       6.796  -2.304  -0.780  0.00  0.00    +0.091 A 
ATOM     27  C   UNL     1       5.834  -1.961   0.158  0.00  0.00    +0.128 A 
BRANCH  27  28
ATOM     28  O   UNL     1       6.164  -1.888   1.474  0.00  0.00    -0.495 OA
ATOM     29  C   UNL     1       7.520  -2.177   1.820  0.00  0.00    +0.277 C 
ENDBRANCH  27  28
BRANCH  25  30
ATOM     30  O   UNL     1       7.396  -2.713  -3.044  0.00  0.00    -0.495 OA
ATOM     31  C   UNL     1       6.976  -2.770  -4.409  0.00  0.00    +0.277 C 
ENDBRANCH  25  30
ENDBRANCH   8  22
BRANCH  10  32
ATOM     32  N   UNL     1       0.123  -2.875   0.385  0.00  0.00    -0.343 N 
ATOM     33  H   UNL     1      -0.655  -2.726  -0.173  0.00  0.00    +0.144 HD
ATOM     34  H   UNL     1       0.198  -3.690   0.906  0.00  0.00    +0.144 HD
ENDBRANCH  10  32
BRANCH   9  35
ATOM     35  C   UNL     1       2.655  -3.735   0.929  0.00  0.00    +0.099 C 
ATOM     36  N   UNL     1       2.875  -4.836   1.105  0.00  0.00    -0.191 NA
ENDBRANCH   9  35
BRANCH   7  37
ATOM     37  C   UNL     1       4.035   1.176   0.554  0.00  0.00    +0.098 C 
ATOM     38  N   UNL     1       4.798   2.017   0.580  0.00  0.00    -0.191 NA
ENDBRANCH   7  37
TORSDOF 9
