REMARK  Name = ZINC36570126
REMARK  12 active torsions:
REMARK  status: ('A' for Active; 'I' for Inactive)
REMARK    1  A    between atoms: C_1  and  C_2
REMARK    2  A    between atoms: C_2  and  C_3
REMARK    3  A    between atoms: C_3  and  N_4
REMARK    4  A    between atoms: N_4  and  C_5
REMARK    5  A    between atoms: C_5  and  C_7
REMARK    6  A    between atoms: C_5  and  C_21
REMARK    7  A    between atoms: N_23  and  C_24
REMARK    8  A    between atoms: C_24  and  C_25
REMARK    9  A    between atoms: C_24  and  C_26
REMARK   10  A    between atoms: C_24  and  C_27
REMARK   11  A    between atoms: C_28  and  C_30
REMARK   12  A    between atoms: C_32  and  N_37
REMARK                            x       y       z     vdW  Elec       q    Type
REMARK                         _______ _______ _______ _____ _____    ______ ____
ROOT
ATOM      1  C   UNL     1       0.900  -3.054  -0.255  0.00  0.00    +0.193 C 
ENDROOT
BRANCH   1   2
ATOM      2  C   UNL     1      -0.000  -3.536  -1.363  0.00  0.00    -0.010 A 
ATOM      3  C   UNL     1      -0.923  -2.697  -1.876  0.00  0.00    +0.015 A 
ATOM      4  C   UNL     1      -1.791  -3.102  -2.916  0.00  0.00    -0.017 A 
ATOM      5  C   UNL     1      -2.747  -2.222  -3.443  0.00  0.00    +0.008 A 
ATOM      6  C   UNL     1      -3.571  -2.639  -4.447  0.00  0.00    +0.001 A 
ATOM      7  C   UNL     1      -3.478  -3.928  -4.957  0.00  0.00    +0.001 A 
ATOM      8  C   UNL     1      -2.558  -4.810  -4.465  0.00  0.00    +0.009 A 
ATOM      9  C   UNL     1      -1.700  -4.412  -3.438  0.00  0.00    -0.010 A 
ATOM     10  C   UNL     1      -0.698  -5.324  -2.880  0.00  0.00    -0.010 A 
ATOM     11  C   UNL     1       0.144  -4.857  -1.846  0.00  0.00    -0.012 A 
ATOM     12  C   UNL     1       1.110  -5.721  -1.310  0.00  0.00    +0.009 A 
ATOM     13  C   UNL     1       1.227  -6.990  -1.794  0.00  0.00    +0.001 A 
ATOM     14  C   UNL     1       0.401  -7.444  -2.816  0.00  0.00    +0.001 A 
ATOM     15  C   UNL     1      -0.557  -6.631  -3.351  0.00  0.00    +0.009 A 
ENDBRANCH   1   2
BRANCH   1  16
ATOM     16  C   UNL     1       2.202  -2.570  -0.840  0.00  0.00    +0.239 C 
ATOM     17  O   UNL     1       2.550  -1.420  -0.676  0.00  0.00    -0.273 OA
ATOM     18  N   UNL     1       2.978  -3.415  -1.546  0.00  0.00    -0.309 N 
ATOM     19  H   UNL     1       2.700  -4.335  -1.678  0.00  0.00    +0.149 HD
BRANCH  18  20
ATOM     20  C   UNL     1       4.244  -2.945  -2.115  0.00  0.00    +0.026 C 
ATOM     21  C   UNL     1       5.158  -2.455  -0.990  0.00  0.00    +0.031 C 
ATOM     22  C   UNL     1       4.925  -4.093  -2.863  0.00  0.00    +0.031 C 
ATOM     23  C   UNL     1       3.970  -1.795  -3.087  0.00  0.00    +0.031 C 
ENDBRANCH  18  20
ENDBRANCH   1  16
BRANCH   1  24
ATOM     24  N   UNL     1       0.248  -1.955   0.461  0.00  0.00    -0.282 N 
ATOM     25  C   UNL     1      -0.731  -2.216   1.349  0.00  0.00    +0.251 C 
ATOM     26  O   UNL     1      -0.839  -3.330   1.825  0.00  0.00    -0.270 OA
BRANCH  25  27
ATOM     27  C   UNL     1      -1.672  -1.151   1.745  0.00  0.00    +0.086 A 
ATOM     28  C   UNL     1      -1.191   0.089   2.174  0.00  0.00    +0.049 A 
ATOM     29  C   UNL     1      -2.075   1.079   2.542  0.00  0.00    +0.127 A 
ATOM     30  C   UNL     1      -3.441   0.852   2.488  0.00  0.00    +0.036 A 
ATOM     31  C   UNL     1      -3.930  -0.368   2.067  0.00  0.00    +0.054 A 
ATOM     32  C   UNL     1      -3.055  -1.374   1.687  0.00  0.00    +0.191 A 
ATOM     33  O   UNL     1      -3.534  -2.572   1.267  0.00  0.00    -0.287 OA
BRANCH  29  34
ATOM     34  N   UNL     1      -1.563   2.392   2.996  0.00  0.00    +0.056 N 
ATOM     35  O   UNL     1      -0.385   2.646   2.904  0.00  0.00    -0.126 OA
ATOM     36  O   UNL     1      -2.324   3.209   3.459  0.00  0.00    -0.126 OA
ENDBRANCH  29  34
ENDBRANCH  25  27
BRANCH  24  37
ATOM     37  C   UNL     1       0.659  -0.571   0.210  0.00  0.00    +0.109 C 
BRANCH  37  39
ATOM     38  C   UNL     1       2.348   1.175   0.797  0.00  0.00    +0.005 C 
ATOM     39  C   UNL     1       1.759  -0.179   1.199  0.00  0.00    +0.016 C 
ENDBRANCH  37  39
ENDBRANCH  24  37
ENDBRANCH   1  24
TORSDOF 8
