REMARK  Name = ZINC12470086
REMARK  8 active torsions:
REMARK  status: ('A' for Active; 'I' for Inactive)
REMARK    1  A    between atoms: C_1  and  C_2
REMARK    2  A    between atoms: C_7  and  O_32
REMARK    3  A    between atoms: C_14  and  S_15
REMARK    4  A    between atoms: S_15  and  C_16
REMARK    5  A    between atoms: C_16  and  C_17
REMARK    6  A    between atoms: N_19  and  C_20
REMARK    7  A    between atoms: C_21  and  C_29
REMARK    8  A    between atoms: O_32  and  C_33
REMARK                            x       y       z     vdW  Elec       q    Type
REMARK                         _______ _______ _______ _____ _____    ______ ____
ROOT
ATOM      1  C   UNL     1      -3.267   3.941   6.738  0.00  0.00    +0.173 C 
ENDROOT
BRANCH   1   2
ATOM      2  C   UNL     1      -2.056   4.691   7.230  0.00  0.00    +0.228 C 
ATOM      3  O   UNL     1      -1.032   4.682   6.581  0.00  0.00    -0.275 OA
ATOM      4  N   UNL     1      -2.112   5.373   8.392  0.00  0.00    -0.279 N 
ATOM      5  H   UNL     1      -2.931   5.381   8.911  0.00  0.00    +0.155 HD
BRANCH   4   6
ATOM      6  C   UNL     1      -0.998   6.063   8.845  0.00  0.00    +0.084 A 
ATOM      7  C   UNL     1      -0.863   6.820  10.000  0.00  0.00    +0.068 A 
ATOM      8  C   UNL     1       0.425   7.445  10.248  0.00  0.00    -0.023 A 
ATOM      9  C   UNL     1       1.363   7.224   9.301  0.00  0.00    -0.004 A 
ATOM     10  S   UNL     1       0.561   6.197   8.101  0.00  0.00    -0.077 S 
ATOM     11  C   UNL     1       2.768   7.741   9.284  0.00  0.00    +0.043 C 
ATOM     12  C   UNL     1       2.880   8.872  10.316  0.00  0.00    +0.005 C 
ATOM     13  C   UNL     1       2.249   8.404  11.631  0.00  0.00    +0.005 C 
ATOM     14  C   UNL     1       0.731   8.300  11.471  0.00  0.00    +0.037 C 
BRANCH   7  15
ATOM     15  C   UNL     1      -1.978   6.979  10.939  0.00  0.00    +0.244 C 
ATOM     16  O   UNL     1      -2.122   6.188  11.853  0.00  0.00    -0.270 OA
ATOM     17  N   UNL     1      -2.844   8.001  10.790  0.00  0.00    -0.325 N 
ATOM     18  H   UNL     1      -2.730   8.631  10.062  0.00  0.00    +0.145 HD
ATOM     19  H   UNL     1      -3.582   8.106  11.411  0.00  0.00    +0.145 HD
ENDBRANCH   7  15
ENDBRANCH   4   6
ENDBRANCH   1   2
BRANCH   1  20
ATOM     20  S   UNL     1      -2.878   3.135   5.165  0.00  0.00    -0.076 S 
BRANCH  20  34
ATOM     21  C   UNL     1      -8.107  -0.037   3.152  0.00  0.00    +0.047 C 
ATOM     22  C   UNL     1      -6.672   0.376   2.949  0.00  0.00    -0.005 A 
ATOM     23  C   UNL     1      -6.003  -0.039   1.849  0.00  0.00    +0.017 A 
ATOM     24  C   UNL     1      -4.608   0.371   1.665  0.00  0.00    -0.000 A 
ATOM     25  C   UNL     1      -3.882  -0.038   0.541  0.00  0.00    +0.013 A 
ATOM     26  C   UNL     1      -2.585   0.361   0.388  0.00  0.00    +0.046 A 
ATOM     27  C   UNL     1      -1.974   1.163   1.348  0.00  0.00    +0.122 A 
ATOM     28  C   UNL     1      -2.677   1.577   2.467  0.00  0.00    +0.072 A 
ATOM     29  C   UNL     1      -3.998   1.186   2.636  0.00  0.00    +0.061 A 
ATOM     30  N   UNL     1      -4.723   1.585   3.745  0.00  0.00    -0.270 N 
ATOM     31  C   UNL     1      -6.033   1.195   3.909  0.00  0.00    +0.165 A 
ATOM     32  N   UNL     1      -6.450   1.727   5.043  0.00  0.00    -0.128 NA
ATOM     33  N   UNL     1      -5.501   2.407   5.581  0.00  0.00    -0.122 NA
ATOM     34  C   UNL     1      -4.423   2.355   4.831  0.00  0.00    +0.197 A 
BRANCH  27  35
ATOM     35  O   UNL     1      -0.682   1.547   1.184  0.00  0.00    -0.495 OA
ATOM     36  C   UNL     1      -0.013   1.086   0.008  0.00  0.00    +0.277 C 
ENDBRANCH  27  35
ENDBRANCH  20  34
ENDBRANCH   1  20
TORSDOF 6
