REMARK  Name = ZINC21734403
REMARK  9 active torsions:
REMARK  status: ('A' for Active; 'I' for Inactive)
REMARK    1  A    between atoms: C_1  and  C_2
REMARK    2  A    between atoms: C_2  and  C_3
REMARK    3  A    between atoms: C_2  and  C_4
REMARK    4  A    between atoms: C_4  and  C_6
REMARK    5  A    between atoms: C_4  and  N_17
REMARK    6  A    between atoms: C_18  and  C_20
REMARK    7  A    between atoms: C_20  and  N_21
REMARK    8  A    between atoms: C_24  and  C_28
REMARK    9  A    between atoms: C_24  and  C_29
REMARK                            x       y       z     vdW  Elec       q    Type
REMARK                         _______ _______ _______ _____ _____    ______ ____
ROOT
ATOM      1  N   UNL     1       2.425   6.992  -5.053  0.00  0.00    -0.307 N 
ATOM      2  C   UNL     1       2.427   6.167  -3.988  0.00  0.00    +0.231 C 
ATOM      3  O   UNL     1       1.675   5.215  -3.956  0.00  0.00    -0.274 OA
ATOM      4  H   UNL     1       3.106   7.855  -5.081  0.00  0.00    +0.149 HD
ENDROOT
BRANCH   1   5
ATOM      5  C   UNL     1       1.514   6.741  -6.173  0.00  0.00    +0.106 C 
BRANCH   5   6
ATOM      6  C   UNL     1       1.243   8.033  -6.899  0.00  0.00    -0.023 A 
ATOM      7  C   UNL     1       2.267   8.940  -7.098  0.00  0.00    +0.009 A 
ATOM      8  C   UNL     1       2.027  10.126  -7.769  0.00  0.00    +0.050 A 
ATOM      9  C   UNL     1       0.752  10.407  -8.230  0.00  0.00    +0.162 A 
ATOM     10  C   UNL     1      -0.278   9.499  -8.025  0.00  0.00    +0.162 A 
ATOM     11  C   UNL     1      -0.032   8.311  -7.359  0.00  0.00    +0.055 A 
ATOM     12  O   UNL     1      -1.530   9.785  -8.485  0.00  0.00    -0.488 OA
ATOM     13  C   UNL     1      -2.206  10.860  -7.830  0.00  0.00    +0.232 C 
ATOM     14  C   UNL     1      -1.802  12.198  -8.430  0.00  0.00    +0.082 C 
ATOM     15  C   UNL     1      -0.331  12.513  -8.203  0.00  0.00    +0.232 C 
ATOM     16  O   UNL     1       0.500  11.575  -8.889  0.00  0.00    -0.488 OA
ENDBRANCH   5   6
BRANCH   5  18
ATOM     17  C   UNL     1       2.431   4.428  -6.398  0.00  0.00    +0.009 C 
ATOM     18  C   UNL     1       2.155   5.740  -7.136  0.00  0.00    +0.008 C 
ATOM     19  C   UNL     1       1.204   5.477  -8.305  0.00  0.00    +0.009 C 
ENDBRANCH   5  18
ENDBRANCH   1   5
BRANCH   2  20
ATOM     20  C   UNL     1       3.364   6.425  -2.836  0.00  0.00    +0.213 C 
BRANCH  20  21
ATOM     21  N   UNL     1       3.174   5.395  -1.812  0.00  0.00    -0.215 N 
ATOM     22  C   UNL     1       2.299   5.492  -0.792  0.00  0.00    +0.251 C 
ATOM     23  O   UNL     1       1.547   6.415  -0.558  0.00  0.00    -0.272 OA
ATOM     24  C   UNL     1       2.448   4.209   0.001  0.00  0.00    +0.135 C 
ATOM     25  N   UNL     1       3.487   3.467  -0.733  0.00  0.00    -0.281 N 
ATOM     26  C   UNL     1       3.849   4.240  -1.774  0.00  0.00    +0.310 C 
ATOM     27  O   UNL     1       4.694   3.924  -2.588  0.00  0.00    -0.252 OA
ATOM     28  C   UNL     1       2.905   4.505   1.430  0.00  0.00    +0.047 C 
ATOM     29  H   UNL     1       3.809   2.477  -0.380  0.00  0.00    +0.152 HD
BRANCH  24  30
ATOM     30  C   UNL     1       1.153   3.438   0.010  0.00  0.00    -0.013 A 
ATOM     31  C   UNL     1      -0.053   4.113   0.025  0.00  0.00    +0.009 A 
ATOM     32  C   UNL     1      -1.242   3.408   0.032  0.00  0.00    +0.041 A 
ATOM     33  C   UNL     1      -1.226   2.024   0.019  0.00  0.00    +0.158 A 
ATOM     34  C   UNL     1      -0.016   1.347   0.009  0.00  0.00    +0.159 A 
ATOM     35  C   UNL     1       1.172   2.056   0.002  0.00  0.00    +0.047 A 
ATOM     36  F   UNL     1       0.002  -0.004   0.002  0.00  0.00    -0.202 F 
ATOM     37  F   UNL     1      -2.387   1.335   0.021  0.00  0.00    -0.202 F 
ENDBRANCH  24  30
ENDBRANCH  20  21
ENDBRANCH   2  20
TORSDOF 6
