REMARK  Name = ZINC34681179
REMARK  4 active torsions:
REMARK  status: ('A' for Active; 'I' for Inactive)
REMARK    1  A    between atoms: C_1  and  C_2
REMARK    2  A    between atoms: C_6  and  N_8
REMARK    3  A    between atoms: N_11  and  C_12
REMARK    4  A    between atoms: C_25  and  C_27
REMARK                            x       y       z     vdW  Elec       q    Type
REMARK                         _______ _______ _______ _____ _____    ______ ____
ROOT
ATOM      1  C   UNL     1      -1.404  -5.827   2.804  0.00  0.00    +0.051 A 
ATOM      2  C   UNL     1      -1.133  -6.676   1.731  0.00  0.00    +0.028 A 
ATOM      3  C   UNL     1      -0.906  -8.015   1.992  0.00  0.00    +0.043 A 
ATOM      4  C   UNL     1      -0.957  -8.468   3.306  0.00  0.00    +0.099 A 
ATOM      5  N   UNL     1      -1.217  -7.633   4.300  0.00  0.00    -0.348 N 
ATOM      6  C   UNL     1      -1.433  -6.348   4.088  0.00  0.00    +0.107 A 
ATOM      7  N   UNL     1      -0.731  -9.814   3.580  0.00  0.00    -0.315 N 
ATOM      8  C   UNL     1      -0.934 -10.291   4.956  0.00  0.00    +0.108 C 
ATOM      9  C   UNL     1      -1.669 -11.633   5.010  0.00  0.00    +0.038 C 
ATOM     10  C   UNL     1      -2.795 -11.659   3.995  0.00  0.00    +0.109 C 
ATOM     11  N   UNL     1      -2.241 -12.104   2.717  0.00  0.00    -0.296 N 
ATOM     12  C   UNL     1      -1.565 -11.260   1.794  0.00  0.00    +0.127 C 
ATOM     13  C   UNL     1      -0.311 -10.678   2.490  0.00  0.00    +0.125 C 
ATOM     14  C   UNL     1      -2.381 -13.405   2.391  0.00  0.00    +0.247 C 
ATOM     15  O   UNL     1      -1.836 -13.845   1.398  0.00  0.00    -0.270 OA
ATOM     16  H   UNL     1      -1.246  -7.973   5.208  0.00  0.00    +0.167 HD
ENDROOT
BRANCH   1  20
ATOM     17  N   UNL     1      -2.263  -2.725   1.157  0.00  0.00    -0.269 N 
ATOM     18  C   UNL     1      -2.136  -4.044   1.405  0.00  0.00    +0.308 C 
ATOM     19  O   UNL     1      -2.471  -4.856   0.564  0.00  0.00    -0.252 OA
ATOM     20  N   UNL     1      -1.639  -4.462   2.586  0.00  0.00    -0.268 N 
ATOM     21  H   UNL     1      -1.927  -2.077   1.795  0.00  0.00    +0.156 HD
ATOM     22  H   UNL     1      -1.444  -3.819   3.285  0.00  0.00    +0.156 HD
BRANCH  17  28
ATOM     23  C   UNL     1      -2.792   0.702  -2.329  0.00  0.00    +0.044 C 
ATOM     24  C   UNL     1      -3.155  -0.634  -1.734  0.00  0.00    -0.049 A 
ATOM     25  C   UNL     1      -4.098  -1.434  -2.354  0.00  0.00    +0.003 A 
ATOM     26  C   UNL     1      -4.433  -2.660  -1.811  0.00  0.00    +0.002 A 
ATOM     27  C   UNL     1      -3.827  -3.091  -0.647  0.00  0.00    +0.023 A 
ATOM     28  C   UNL     1      -2.879  -2.291  -0.022  0.00  0.00    +0.035 A 
ATOM     29  C   UNL     1      -2.541  -1.062  -0.573  0.00  0.00    +0.026 A 
ENDBRANCH  17  28
ENDBRANCH   1  20
BRANCH  14  30
ATOM     30  C   UNL     1      -3.196 -14.296   3.243  0.00  0.00    +0.037 A 
ATOM     31  C   UNL     1      -4.032 -15.250   2.660  0.00  0.00    +0.013 A 
ATOM     32  C   UNL     1      -4.791 -16.079   3.461  0.00  0.00    +0.001 A 
ATOM     33  C   UNL     1      -4.724 -15.967   4.838  0.00  0.00    +0.000 A 
ATOM     34  C   UNL     1      -3.898 -15.023   5.422  0.00  0.00    +0.001 A 
ATOM     35  C   UNL     1      -3.130 -14.192   4.633  0.00  0.00    +0.013 A 
ENDBRANCH  14  30
TORSDOF 3
