REMARK  Name = ZINC08854870
REMARK  8 active torsions:
REMARK  status: ('A' for Active; 'I' for Inactive)
REMARK    1  A    between atoms: C_1  and  C_2
REMARK    2  A    between atoms: C_2  and  C_3
REMARK    3  A    between atoms: C_3  and  O_4
REMARK    4  A    between atoms: O_4  and  C_5
REMARK    5  A    between atoms: C_10  and  C_11
REMARK    6  A    between atoms: C_14  and  C_25
REMARK    7  A    between atoms: C_20  and  N_24
REMARK    8  A    between atoms: C_21  and  C_22
REMARK                            x       y       z     vdW  Elec       q    Type
REMARK                         _______ _______ _______ _____ _____    ______ ____
ROOT
ATOM      1  C   UNL     1       1.081  -4.691   1.763  0.00  0.00    +0.105 C 
ATOM      2  C   UNL     1       2.003  -5.509   0.896  0.00  0.00    +0.054 A 
ATOM      3  C   UNL     1       2.893  -5.085  -0.095  0.00  0.00    +0.100 A 
ATOM      4  N   UNL     1       3.491  -6.153  -0.588  0.00  0.00    -0.171 NA
ATOM      5  N   UNL     1       2.994  -7.284   0.079  0.00  0.00    -0.246 N 
ATOM      6  H   UNL     1       3.260  -8.203  -0.082  0.00  0.00    +0.192 HD
ATOM      7  C   UNL     1       2.083  -6.869   0.983  0.00  0.00    +0.223 A 
ATOM      8  O   UNL     1       1.338  -7.592   1.856  0.00  0.00    -0.423 OA
ATOM      9  C   UNL     1       0.305  -6.971   2.459  0.00  0.00    +0.200 C 
ATOM     10  C   UNL     1       0.123  -5.631   2.452  0.00  0.00    +0.098 C 
ENDROOT
BRANCH   3  11
ATOM     11  C   UNL     1       3.124  -3.682  -0.519  0.00  0.00    +0.003 A 
ATOM     12  C   UNL     1       2.046  -2.814  -0.684  0.00  0.00    +0.011 A 
ATOM     13  C   UNL     1       2.267  -1.510  -1.077  0.00  0.00    +0.016 A 
ATOM     14  C   UNL     1       3.557  -1.063  -1.308  0.00  0.00    +0.018 A 
ATOM     15  C   UNL     1       4.631  -1.921  -1.146  0.00  0.00    +0.016 A 
ATOM     16  C   UNL     1       4.421  -3.225  -0.747  0.00  0.00    +0.011 A 
ATOM     17 BR   UNL     1       3.852   0.725  -1.847  0.00  0.00    -0.050 Br
ENDBRANCH   3  11
BRANCH   1  23
ATOM     18  C   UNL     1       1.733  -2.567   2.925  0.00  0.00    +0.125 A 
ATOM     19  C   UNL     1       2.471  -1.878   3.877  0.00  0.00    +0.046 A 
ATOM     20  C   UNL     1       3.359  -2.560   4.687  0.00  0.00    +0.004 A 
ATOM     21  C   UNL     1       3.512  -3.927   4.549  0.00  0.00    +0.001 A 
ATOM     22  C   UNL     1       2.778  -4.615   3.600  0.00  0.00    +0.008 A 
ATOM     23  C   UNL     1       1.885  -3.939   2.792  0.00  0.00    +0.007 A 
BRANCH  18  24
ATOM     24  O   UNL     1       0.859  -1.898   2.127  0.00  0.00    -0.492 OA
BRANCH  24  25
ATOM     25  C   UNL     1       0.801  -0.478   2.275  0.00  0.00    +0.229 C 
BRANCH  25  27
ATOM     26  C   UNL     1      -0.363   1.601   1.523  0.00  0.00    +0.007 C 
ATOM     27  C   UNL     1      -0.215   0.097   1.286  0.00  0.00    +0.038 C 
ENDBRANCH  25  27
ENDBRANCH  24  25
ENDBRANCH  18  24
ENDBRANCH   1  23
BRANCH   9  28
ATOM     28  N   UNL     1      -0.619  -7.744   3.118  0.00  0.00    -0.328 N 
ATOM     29  H   UNL     1      -0.516  -8.708   3.140  0.00  0.00    +0.145 HD
ATOM     30  H   UNL     1      -1.373  -7.326   3.562  0.00  0.00    +0.145 HD
ENDBRANCH   9  28
BRANCH  10  31
ATOM     31  C   UNL     1      -1.017  -5.084   3.123  0.00  0.00    +0.101 C 
ATOM     32  N   UNL     1      -1.922  -4.650   3.656  0.00  0.00    -0.191 NA
ENDBRANCH  10  31
TORSDOF 7
