REMARK  Name = ZINC63386366
REMARK  1 active torsions:
REMARK  status: ('A' for Active; 'I' for Inactive)
REMARK    1  A    between atoms: C_7  and  C_17
REMARK                            x       y       z     vdW  Elec       q    Type
REMARK                         _______ _______ _______ _____ _____    ______ ____
ROOT
ATOM      1  C   UNL     1      -0.048   0.909  -0.029  0.00  0.00    +0.022 A 
ATOM      2  C   UNL     1       1.018   1.737   0.009  0.00  0.00    +0.027 A 
ATOM      3  C   UNL     1       2.339   1.215  -0.020  0.00  0.00    +0.043 A 
ATOM      4  N   UNL     1       3.512   1.808  -0.018  0.00  0.00    -0.376 N 
ATOM      5  C   UNL     1       4.548   0.781   0.035  0.00  0.00    +0.128 C 
ATOM      6  C   UNL     1       5.549   0.893  -1.118  0.00  0.00    +0.121 C 
ATOM      7  N   UNL     1       6.361  -0.334  -1.146  0.00  0.00    -0.307 NA
ATOM      8  C   UNL     1       5.592  -1.529  -1.504  0.00  0.00    +0.086 C 
ATOM      9  C   UNL     1       4.549  -1.832  -0.413  0.00  0.00    +0.048 C 
ATOM     10  C   UNL     1       3.813  -0.539  -0.135  0.00  0.00    -0.035 C 
ATOM     11  C   UNL     1       2.505  -0.258  -0.103  0.00  0.00    +0.001 A 
ATOM     12  C   UNL     1       1.293  -1.087  -0.136  0.00  0.00    +0.030 A 
ATOM     13  C   UNL     1       0.082  -0.486  -0.099  0.00  0.00    +0.042 A 
ATOM     14 CL   UNL     1      -1.350  -1.467  -0.137  0.00  0.00    -0.084 Cl
ATOM     15  H   UNL     1       7.161  -0.224  -1.752  0.00  0.00    +0.123 HD
ATOM     16  H   UNL     1       3.664   2.765  -0.048  0.00  0.00    +0.160 HD
ENDROOT
BRANCH   6  17
ATOM     17  C   UNL     1       4.807   1.042  -2.421  0.00  0.00    +0.100 A 
ATOM     18  C   UNL     1       5.076   2.109  -3.268  0.00  0.00    +0.261 A 
ATOM     19  O   UNL     1       5.998   3.017  -2.936  0.00  0.00    -0.267 OA
ATOM     20  N   UNL     1       4.394   2.223  -4.439  0.00  0.00    -0.302 N 
ATOM     21  C   UNL     1       3.465   1.311  -4.779  0.00  0.00    +0.161 A 
ATOM     22  S   UNL     1       2.623   1.480  -6.260  0.00  0.00    -0.013 S 
ATOM     23  N   UNL     1       3.188   0.268  -3.975  0.00  0.00    -0.302 N 
ATOM     24  C   UNL     1       3.848   0.110  -2.797  0.00  0.00    +0.261 A 
ATOM     25  O   UNL     1       3.572  -0.929  -2.006  0.00  0.00    -0.267 OA
ATOM     26  H   UNL     1       4.579   2.967  -5.033  0.00  0.00    +0.171 HD
ATOM     27  H   UNL     1       2.514  -0.378  -4.240  0.00  0.00    +0.171 HD
ENDBRANCH   6  17
TORSDOF 1
