REMARK  Name = ZINC39637231
REMARK  6 active torsions:
REMARK  status: ('A' for Active; 'I' for Inactive)
REMARK    1  A    between atoms: C_1  and  C_2
REMARK    2  A    between atoms: C_7  and  N_12
REMARK    3  A    between atoms: C_9  and  C_11
REMARK    4  A    between atoms: C_13  and  C_15
REMARK    5  A    between atoms: C_26  and  C_28
REMARK    6  A    between atoms: C_31  and  C_35
REMARK                            x       y       z     vdW  Elec       q    Type
REMARK                         _______ _______ _______ _____ _____    ______ ____
ROOT
ATOM      1  C   UNL     1       0.719  -0.414   6.025  0.00  0.00    +0.100 C 
ATOM      2  C   UNL     1       0.446  -1.837   6.562  0.00  0.00    +0.121 C 
ATOM      3  N   UNL     1       0.552  -1.709   8.034  0.00  0.00    -0.296 N 
ATOM      4  C   UNL     1      -0.086  -0.406   8.338  0.00  0.00    +0.115 C 
ATOM      5  C   UNL     1       0.368   0.522   7.193  0.00  0.00    -0.004 C 
ATOM      6  C   UNL     1       1.596   1.321   7.618  0.00  0.00    -0.010 C 
ATOM      7  C   UNL     1       1.209   2.286   8.742  0.00  0.00    -0.082 C 
ATOM      8  N   UNL     1       0.151   3.189   8.272  0.00  0.00    +0.379 N 
ATOM      9  C   UNL     1      -1.058   2.421   7.953  0.00  0.00    -0.082 C 
ATOM     10  C   UNL     1      -0.766   1.462   6.795  0.00  0.00    -0.010 C 
ATOM     11  C   UNL     1       1.104  -2.580   8.902  0.00  0.00    +0.247 C 
ATOM     12  O   UNL     1       1.689  -3.562   8.488  0.00  0.00    -0.270 OA
ATOM     13  H   UNL     1      -0.060   3.862   8.993  0.00  0.00    -0.086 HD
ATOM     14  H   UNL     1       0.468   3.674   7.446  0.00  0.00    -0.086 HD
ENDROOT
BRANCH  11  15
ATOM     15  C   UNL     1       0.997  -2.342  10.357  0.00  0.00    +0.040 A 
ATOM     16  C   UNL     1      -0.011  -1.517  10.860  0.00  0.00    +0.014 A 
ATOM     17  C   UNL     1      -0.106  -1.299  12.219  0.00  0.00    +0.016 A 
ATOM     18  C   UNL     1       0.794  -1.895  13.084  0.00  0.00    +0.090 A 
ATOM     19  C   UNL     1       1.797  -2.715  12.592  0.00  0.00    +0.136 A 
ATOM     20  C   UNL     1       1.899  -2.946  11.234  0.00  0.00    +0.052 A 
ATOM     21  F   UNL     1       2.672  -3.293  13.443  0.00  0.00    -0.205 F 
BRANCH  18  22
ATOM     22  C   UNL     1       0.683  -1.652  14.567  0.00  0.00    +0.420 C 
ATOM     23  F   UNL     1      -0.397  -0.798  14.820  0.00  0.00    -0.166 F 
ATOM     24  F   UNL     1       0.479  -2.869  15.226  0.00  0.00    -0.166 F 
ATOM     25  F   UNL     1       1.863  -1.062  15.032  0.00  0.00    -0.166 F 
ENDBRANCH  18  22
ENDBRANCH  11  15
BRANCH   1  27
ATOM     26  N   UNL     1       0.258   0.729   3.880  0.00  0.00    -0.312 N 
ATOM     27  C   UNL     1      -0.161  -0.123   4.837  0.00  0.00    +0.218 C 
ATOM     28  O   UNL     1      -1.246  -0.656   4.741  0.00  0.00    -0.275 OA
ATOM     29  H   UNL     1       1.126   1.155   3.957  0.00  0.00    +0.149 HD
BRANCH  26  35
ATOM     30  C   UNL     1      -2.600   2.675   1.381  0.00  0.00    +0.008 C 
ATOM     31  C   UNL     1      -1.134   2.677   0.942  0.00  0.00    -0.009 C 
ATOM     32  C   UNL     1      -0.919   1.603  -0.126  0.00  0.00    +0.003 C 
ATOM     33  C   UNL     1      -1.276   0.232   0.450  0.00  0.00    +0.002 C 
ATOM     34  C   UNL     1      -0.383  -0.063   1.657  0.00  0.00    +0.022 C 
ATOM     35  C   UNL     1      -0.598   1.011   2.725  0.00  0.00    +0.076 C 
ATOM     36  C   UNL     1      -0.240   2.382   2.149  0.00  0.00    +0.009 C 
ATOM     37  C   UNL     1      -0.455   3.456   3.217  0.00  0.00    +0.009 C 
ENDBRANCH  26  35
ENDBRANCH   1  27
TORSDOF 4
