REMARK  Name = ZINC44551576
REMARK  4 active torsions:
REMARK  status: ('A' for Active; 'I' for Inactive)
REMARK    1  A    between atoms: C_3  and  N_11
REMARK    2  A    between atoms: C_6  and  C_7
REMARK    3  A    between atoms: N_8  and  O_9
REMARK    4  A    between atoms: N_14  and  C_17
REMARK                            x       y       z     vdW  Elec       q    Type
REMARK                         _______ _______ _______ _____ _____    ______ ____
ROOT
ATOM      1  C   UNL     1       1.231  -0.698  -0.012  0.00  0.00    +0.013 A 
ATOM      2  C   UNL     1       2.412   0.011  -0.020  0.00  0.00    +0.024 A 
ATOM      3  C   UNL     1       2.390   1.402  -0.012  0.00  0.00    +0.030 A 
ATOM      4  C   UNL     1       1.176   2.081   0.004  0.00  0.00    +0.024 A 
ATOM      5  C   UNL     1      -0.008   1.377   0.012  0.00  0.00    +0.013 A 
ATOM      6  C   UNL     1       0.011  -0.019   0.003  0.00  0.00    +0.018 A 
ENDROOT
BRANCH   3   7
ATOM      7  N   UNL     1       3.587   2.116  -0.019  0.00  0.00    -0.327 N 
ATOM      8  C   UNL     1       3.582   3.581  -0.134  0.00  0.00    +0.124 C 
ATOM      9  C   UNL     1       4.361   4.168   1.050  0.00  0.00    +0.124 C 
ATOM     10  N   UNL     1       5.649   3.469   1.157  0.00  0.00    -0.327 N 
ATOM     11  C   UNL     1       5.654   2.004   1.272  0.00  0.00    +0.124 C 
ATOM     12  C   UNL     1       4.875   1.418   0.093  0.00  0.00    +0.124 C 
BRANCH  10  13
ATOM     13  C   UNL     1       6.850   4.186   1.150  0.00  0.00    +0.030 A 
ATOM     14  C   UNL     1       8.063   3.510   1.123  0.00  0.00    +0.026 A 
ATOM     15  C   UNL     1       9.248   4.221   1.115  0.00  0.00    +0.040 A 
ATOM     16  C   UNL     1       9.226   5.605   1.134  0.00  0.00    +0.124 A 
ATOM     17  C   UNL     1       8.018   6.280   1.160  0.00  0.00    +0.040 A 
ATOM     18  C   UNL     1       6.831   5.575   1.163  0.00  0.00    +0.026 A 
ATOM     19  F   UNL     1      10.386   6.298   1.126  0.00  0.00    -0.205 F 
ENDBRANCH  10  13
ENDBRANCH   3   7
BRANCH   6  20
ATOM     20  C   UNL     1      -1.259  -0.777   0.011  0.00  0.00    +0.162 C 
ATOM     21  N   UNL     1      -1.240  -2.078   0.003  0.00  0.00    -0.072 NA
ATOM     22  N   UNL     1      -2.468  -0.102   0.026  0.00  0.00    -0.340 N 
ATOM     23  H   UNL     1      -2.482   0.868   0.032  0.00  0.00    +0.144 HD
ATOM     24  H   UNL     1      -3.301  -0.600   0.031  0.00  0.00    +0.144 HD
BRANCH  21  25
ATOM     25  O   UNL     1      -2.456  -2.804   0.010  0.00  0.00    -0.408 OA
ATOM     26  H   UNL     1      -2.341  -3.764   0.004  0.00  0.00    +0.328 HD
ENDBRANCH  21  25
ENDBRANCH   6  20
TORSDOF 4
