REMARK  Name = ZINC48861924
REMARK  5 active torsions:
REMARK  status: ('A' for Active; 'I' for Inactive)
REMARK    1  A    between atoms: C_1  and  C_2
REMARK    2  A    between atoms: C_8  and  N_10
REMARK    3  A    between atoms: N_13  and  C_14
REMARK    4  A    between atoms: C_19  and  O_20
REMARK    5  A    between atoms: O_20  and  C_21
REMARK                            x       y       z     vdW  Elec       q    Type
REMARK                         _______ _______ _______ _____ _____    ______ ____
ROOT
ATOM      1  N   UNL     1       0.061  -0.021   2.443  0.00  0.00    -0.296 N 
ATOM      2  C   UNL     1       0.740   0.100   3.601  0.00  0.00    +0.304 C 
ATOM      3  O   UNL     1       1.923  -0.177   3.644  0.00  0.00    -0.252 OA
ATOM      4  N   UNL     1       0.107   0.528   4.711  0.00  0.00    -0.266 N 
ATOM      5  H   UNL     1      -0.882   0.199   2.408  0.00  0.00    +0.151 HD
ATOM      6  H   UNL     1      -0.820   0.810   4.663  0.00  0.00    +0.156 HD
ENDROOT
BRANCH   1  13
ATOM      7  C   UNL     1      -0.003   1.561   0.018  0.00  0.00    +0.009 C 
ATOM      8  C   UNL     1       0.014   0.031  -0.002  0.00  0.00    +0.006 C 
ATOM      9  C   UNL     1      -1.422  -0.495   0.001  0.00  0.00    +0.005 C 
ATOM     10  C   UNL     1      -1.405  -2.025  -0.019  0.00  0.00    +0.000 C 
ATOM     11  C   UNL     1      -0.670  -2.542   1.219  0.00  0.00    +0.002 C 
ATOM     12  C   UNL     1       0.767  -2.016   1.216  0.00  0.00    +0.022 C 
ATOM     13  C   UNL     1       0.750  -0.487   1.236  0.00  0.00    +0.077 C 
ENDBRANCH   1  13
BRANCH   4  14
ATOM     14  C   UNL     1       0.788   0.565   5.936  0.00  0.00    +0.078 A 
ATOM     15  C   UNL     1       2.139   0.876   5.970  0.00  0.00    +0.042 A 
ATOM     16  C   UNL     1       2.809   0.912   7.180  0.00  0.00    +0.020 A 
ATOM     17  C   UNL     1       2.134   0.638   8.356  0.00  0.00    +0.019 A 
ATOM     18  C   UNL     1       0.787   0.328   8.328  0.00  0.00    +0.048 A 
ATOM     19  C   UNL     1       0.108   0.296   7.121  0.00  0.00    +0.141 A 
ATOM     20 BR   UNL     1       4.652   1.335   7.226  0.00  0.00    -0.050 Br
BRANCH  19  21
ATOM     21  O   UNL     1      -1.218  -0.003   7.093  0.00  0.00    -0.493 OA
ATOM     22  C   UNL     1      -1.850  -0.267   8.347  0.00  0.00    +0.277 C 
ENDBRANCH  19  21
ENDBRANCH   4  14
TORSDOF 3
