REMARK  Name = ZINC21113002
REMARK  5 active torsions:
REMARK  status: ('A' for Active; 'I' for Inactive)
REMARK    1  A    between atoms: C_1  and  C_2
REMARK    2  A    between atoms: C_4  and  N_24
REMARK    3  A    between atoms: N_14  and  C_17
REMARK    4  A    between atoms: C_25  and  C_27
REMARK    5  A    between atoms: C_30  and  N_33
REMARK                            x       y       z     vdW  Elec       q    Type
REMARK                         _______ _______ _______ _____ _____    ______ ____
ROOT
ATOM      1  C   UNL     1       8.576  -2.368  -0.686  0.00  0.00    +0.067 C 
ATOM      2  C   UNL     1       7.421  -1.419  -0.496  0.00  0.00    +0.062 A 
ATOM      3  C   UNL     1       7.522  -0.037  -0.298  0.00  0.00    +0.068 A 
ATOM      4  C   UNL     1       6.263   0.460  -0.170  0.00  0.00    +0.132 A 
ATOM      5  N   UNL     1       5.396  -0.588  -0.286  0.00  0.00    -0.183 N 
ATOM      6  N   UNL     1       6.155  -1.748  -0.484  0.00  0.00    -0.167 NA
ATOM      7  C   UNL     1       4.016  -0.517  -0.214  0.00  0.00    +0.258 A 
ATOM      8  N   UNL     1       3.308  -0.413  -1.374  0.00  0.00    -0.171 NA
ATOM      9  C   UNL     1       1.957  -0.342  -1.343  0.00  0.00    +0.286 A 
ATOM     10  O   UNL     1       1.306  -0.249  -2.369  0.00  0.00    -0.265 OA
ATOM     11  C   UNL     1       1.306  -0.380  -0.035  0.00  0.00    +0.105 A 
ATOM     12  C   UNL     1      -0.031  -0.332   0.405  0.00  0.00    +0.150 A 
ATOM     13  N   UNL     1      -0.039  -0.406   1.708  0.00  0.00    -0.172 NA
ATOM     14  N   UNL     1       1.276  -0.504   2.179  0.00  0.00    -0.214 N 
ATOM     15  C   UNL     1       2.116  -0.489   1.108  0.00  0.00    +0.172 A 
ATOM     16  N   UNL     1       3.447  -0.553   0.964  0.00  0.00    -0.191 NA
ENDROOT
BRANCH  14  17
ATOM     17  C   UNL     1       1.661  -0.601   3.523  0.00  0.00    +0.068 A 
ATOM     18  C   UNL     1       2.688  -1.460   3.892  0.00  0.00    +0.030 A 
ATOM     19  C   UNL     1       3.069  -1.551   5.216  0.00  0.00    +0.040 A 
ATOM     20  C   UNL     1       2.421  -0.794   6.178  0.00  0.00    +0.124 A 
ATOM     21  C   UNL     1       1.392   0.059   5.813  0.00  0.00    +0.040 A 
ATOM     22  C   UNL     1       1.012   0.156   4.489  0.00  0.00    +0.030 A 
ATOM     23  F   UNL     1       2.791  -0.888   7.474  0.00  0.00    -0.205 F 
ENDBRANCH  14  17
BRANCH   4  24
ATOM     24  N   UNL     1       5.921   1.793   0.042  0.00  0.00    -0.266 N 
ATOM     25  C   UNL     1       6.875   2.744   0.028  0.00  0.00    +0.249 C 
ATOM     26  O   UNL     1       8.045   2.430  -0.073  0.00  0.00    -0.270 OA
ATOM     27  H   UNL     1       4.871   2.070   0.219  0.00  0.00    +0.157 HD
BRANCH  25  28
ATOM     28  C   UNL     1       6.500   4.170   0.136  0.00  0.00    +0.037 A 
ATOM     29  C   UNL     1       5.169   4.529   0.354  0.00  0.00    +0.015 A 
ATOM     30  C   UNL     1       4.826   5.862   0.460  0.00  0.00    +0.033 A 
ATOM     31  C   UNL     1       5.797   6.840   0.339  0.00  0.00    +0.126 A 
ATOM     32  C   UNL     1       7.117   6.491   0.118  0.00  0.00    +0.033 A 
ATOM     33  C   UNL     1       7.474   5.162   0.016  0.00  0.00    +0.015 A 
BRANCH  31  34
ATOM     34  N   UNL     1       5.421   8.268   0.448  0.00  0.00    +0.056 N 
ATOM     35  O   UNL     1       6.273   9.132   0.343  0.00  0.00    -0.126 OA
ATOM     36  O   UNL     1       4.260   8.579   0.643  0.00  0.00    -0.126 OA
ENDBRANCH  31  34
ENDBRANCH  25  28
ENDBRANCH   4  24
TORSDOF 4
