REMARK  Name = ZINC13031436
REMARK  6 active torsions:
REMARK  status: ('A' for Active; 'I' for Inactive)
REMARK    1  A    between atoms: C_1  and  C_2
REMARK    2  A    between atoms: C_4  and  C_29
REMARK    3  A    between atoms: C_6  and  S_9
REMARK    4  A    between atoms: C_7  and  C_8
REMARK    5  A    between atoms: S_9  and  N_12
REMARK    6  A    between atoms: C_15  and  C_18
REMARK                            x       y       z     vdW  Elec       q    Type
REMARK                         _______ _______ _______ _____ _____    ______ ____
ROOT
ATOM      1  N   UNL     1       1.489  -2.605   3.478  0.00  0.00    -0.103 NA
ATOM      2  C   UNL     1       1.765  -3.130   4.646  0.00  0.00    +0.192 A 
ATOM      3  N   UNL     1       2.883  -2.962   5.434  0.00  0.00    -0.332 N 
ATOM      4  C   UNL     1       2.945  -3.625   6.631  0.00  0.00    +0.055 A 
ATOM      5  C   UNL     1       1.923  -4.418   7.009  0.00  0.00    +0.075 A 
ATOM      6  S   UNL     1       0.788  -4.246   5.640  0.00  0.00    -0.056 S 
ATOM      7  H   UNL     1       3.610  -2.388   5.147  0.00  0.00    +0.168 HD
ENDROOT
BRANCH   4   8
ATOM      8  C   UNL     1       4.128  -3.471   7.505  0.00  0.00    +0.001 A 
ATOM      9  C   UNL     1       5.183  -2.645   7.115  0.00  0.00    +0.013 A 
ATOM     10  C   UNL     1       6.287  -2.500   7.930  0.00  0.00    +0.048 A 
ATOM     11  C   UNL     1       6.352  -3.175   9.138  0.00  0.00    +0.142 A 
ATOM     12  C   UNL     1       5.301  -4.003   9.534  0.00  0.00    +0.076 A 
ATOM     13  C   UNL     1       4.189  -4.147   8.725  0.00  0.00    +0.037 A 
ATOM     14  N   UNL     1       5.386  -4.680  10.760  0.00  0.00    -0.280 N 
ATOM     15  C   UNL     1       6.308  -4.285  11.664  0.00  0.00    +0.255 C 
ATOM     16  O   UNL     1       6.420  -4.874  12.718  0.00  0.00    -0.272 OA
ATOM     17  C   UNL     1       7.199  -3.108  11.357  0.00  0.00    +0.325 C 
ATOM     18  O   UNL     1       7.436  -3.039   9.949  0.00  0.00    -0.481 OA
ATOM     19  H   UNL     1       4.790  -5.420  10.955  0.00  0.00    +0.155 HD
ENDBRANCH   4   8
BRANCH   1  20
ATOM     20  S   UNL     1       0.057  -2.961   2.728  0.00  0.00    +0.101 S 
ATOM     21  O   UNL     1      -0.973  -2.400   3.531  0.00  0.00    -0.146 OA
ATOM     22  O   UNL     1       0.101  -4.344   2.403  0.00  0.00    -0.146 OA
BRANCH  20  28
ATOM     23  C   UNL     1      -0.018   1.503   0.010  0.00  0.00    +0.044 C 
ATOM     24  C   UNL     1       0.002  -0.004   0.002  0.00  0.00    -0.045 A 
ATOM     25  C   UNL     1       0.006  -0.685  -1.197  0.00  0.00    +0.018 A 
ATOM     26  C   UNL     1       0.025  -2.082  -1.203  0.00  0.00    +0.065 A 
ATOM     27  C   UNL     1       0.041  -2.779   0.008  0.00  0.00    +0.044 A 
ATOM     28  C   UNL     1       0.037  -2.085   1.200  0.00  0.00    +0.116 A 
ATOM     29  C   UNL     1       0.023  -0.701   1.197  0.00  0.00    -0.021 A 
ATOM     30  C   UNL     1       0.025   0.051   2.503  0.00  0.00    +0.046 C 
BRANCH  26  31
ATOM     31  C   UNL     1       0.029  -2.818  -2.482  0.00  0.00    +0.387 C 
ATOM     32  O   UNL     1       0.015  -2.206  -3.540  0.00  0.00    -0.241 OA
ATOM     33  O   UNL     1       0.046  -4.041  -2.483  0.00  0.00    -0.241 OA
ENDBRANCH  26  31
ENDBRANCH  20  28
ENDBRANCH   1  20
TORSDOF 4
