REMARK  Name = ZINC34974539
REMARK  8 active torsions:
REMARK  status: ('A' for Active; 'I' for Inactive)
REMARK    1  A    between atoms: C_1  and  C_2
REMARK    2  A    between atoms: C_9  and  C_11
REMARK    3  A    between atoms: C_14  and  C_16
REMARK    4  A    between atoms: C_16  and  C_18
REMARK    5  A    between atoms: C_16  and  N_21
REMARK    6  A    between atoms: C_18  and  C_19
REMARK    7  A    between atoms: C_18  and  C_20
REMARK    8  A    between atoms: N_24  and  C_25
REMARK                            x       y       z     vdW  Elec       q    Type
REMARK                         _______ _______ _______ _____ _____    ______ ____
ROOT
ATOM      1  C   UNL     1       0.694  -4.356  -1.565  0.00  0.00    +0.163 C 
ENDROOT
BRANCH   1  11
ATOM      2  C   UNL     1       0.326   1.737  -0.849  0.00  0.00    +0.029 C 
ATOM      3  C   UNL     1       0.578   0.254  -0.569  0.00  0.00    +0.090 C 
ATOM      4  C   UNL     1       0.493  -0.539  -1.880  0.00  0.00    +0.130 C 
ATOM      5  N   UNL     1       0.989  -1.901  -1.638  0.00  0.00    -0.297 N 
ATOM      6  C   UNL     1       2.333  -2.075  -1.071  0.00  0.00    +0.127 C 
ATOM      7  C   UNL     1       2.418  -1.282   0.240  0.00  0.00    +0.127 C 
ATOM      8  N   UNL     1       1.921   0.080   0.002  0.00  0.00    -0.295 N 
ATOM      9  C   UNL     1       2.684   1.151   0.298  0.00  0.00    +0.219 C 
ATOM     10  O   UNL     1       2.224   2.269   0.200  0.00  0.00    -0.275 OA
ATOM     11  C   UNL     1       0.224  -2.971  -1.932  0.00  0.00    +0.236 C 
ATOM     12  O   UNL     1      -0.841  -2.821  -2.491  0.00  0.00    -0.274 OA
BRANCH   9  13
ATOM     13  C   UNL     1       4.109   0.959   0.750  0.00  0.00    +0.075 C 
ATOM     14  C   UNL     1       4.442   1.305   2.202  0.00  0.00    +0.013 C 
ATOM     15  C   UNL     1       4.923   2.214   1.070  0.00  0.00    +0.013 C 
ENDBRANCH   9  13
ENDBRANCH   1  11
BRANCH   1  16
ATOM     16  N   UNL     1       0.223  -5.313  -2.570  0.00  0.00    -0.288 N 
ATOM     17  C   UNL     1       0.889  -6.468  -2.763  0.00  0.00    +0.305 C 
ATOM     18  O   UNL     1       1.880  -6.717  -2.104  0.00  0.00    -0.252 OA
ATOM     19  N   UNL     1       0.456  -7.349  -3.687  0.00  0.00    -0.268 N 
ATOM     20  H   UNL     1      -0.567  -5.115  -3.095  0.00  0.00    +0.151 HD
ATOM     21  H   UNL     1      -0.311  -7.134  -4.240  0.00  0.00    +0.156 HD
BRANCH  19  22
ATOM     22  C   UNL     1       1.115  -8.575  -3.849  0.00  0.00    +0.053 A 
ATOM     23  C   UNL     1       2.468  -8.681  -3.558  0.00  0.00    +0.026 A 
ATOM     24  C   UNL     1       3.115  -9.890  -3.719  0.00  0.00    +0.022 A 
ATOM     25  C   UNL     1       2.416 -10.997  -4.169  0.00  0.00    +0.042 A 
ATOM     26  C   UNL     1       1.067 -10.894  -4.460  0.00  0.00    +0.041 A 
ATOM     27  C   UNL     1       0.413  -9.688  -4.295  0.00  0.00    +0.064 A 
ATOM     28 CL   UNL     1      -1.281  -9.561  -4.653  0.00  0.00    -0.082 Cl
ATOM     29 CL   UNL     1       3.232 -12.515  -4.369  0.00  0.00    -0.083 Cl
ENDBRANCH  19  22
ENDBRANCH   1  16
BRANCH   1  30
ATOM     30  C   UNL     1       0.133  -4.738  -0.194  0.00  0.00    +0.012 C 
ATOM     31  C   UNL     1       0.701  -3.797   0.870  0.00  0.00    +0.009 C 
ATOM     32  C   UNL     1      -1.393  -4.621  -0.216  0.00  0.00    +0.009 C 
ENDBRANCH   1  30
TORSDOF 5
