REMARK  Name = ZINC39324902
REMARK  11 active torsions:
REMARK  status: ('A' for Active; 'I' for Inactive)
REMARK    1  A    between atoms: C_1  and  O_2
REMARK    2  A    between atoms: O_2  and  C_3
REMARK    3  A    between atoms: C_6  and  C_9
REMARK    4  A    between atoms: C_16  and  N_38
REMARK    5  A    between atoms: C_17  and  C_36
REMARK    6  A    between atoms: C_18  and  C_20
REMARK    7  A    between atoms: C_23  and  O_34
REMARK    8  A    between atoms: C_24  and  O_26
REMARK    9  A    between atoms: O_26  and  C_27
REMARK   10  A    between atoms: C_27  and  C_28
REMARK   11  A    between atoms: O_34  and  C_35
REMARK                            x       y       z     vdW  Elec       q    Type
REMARK                         _______ _______ _______ _____ _____    ______ ____
ROOT
ATOM      1  C   UNL     1      -4.917  -2.587   0.059  0.00  0.00    +0.074 A 
ATOM      2  C   UNL     1      -5.257  -3.705   0.744  0.00  0.00    +0.054 A 
ATOM      3  C   UNL     1      -6.600  -4.008   0.448  0.00  0.00    +0.245 A 
ATOM      4  N   UNL     1      -7.050  -3.110  -0.382  0.00  0.00    -0.135 NA
ATOM      5  N   UNL     1      -6.020  -2.193  -0.645  0.00  0.00    -0.273 N 
ATOM      6  H   UNL     1      -6.080  -1.419  -1.226  0.00  0.00    +0.189 HD
ATOM      7  O   UNL     1      -7.233  -5.083   0.991  0.00  0.00    -0.421 OA
ATOM      8  C   UNL     1      -6.633  -5.699   2.029  0.00  0.00    +0.201 C 
ATOM      9  C   UNL     1      -5.350  -5.498   2.399  0.00  0.00    +0.098 C 
ATOM     10  C   UNL     1      -4.427  -4.549   1.678  0.00  0.00    +0.102 C 
ENDROOT
BRANCH   1  14
ATOM     11  C   UNL     1      -1.134  -0.650   0.108  0.00  0.00    +0.120 A 
ATOM     12  C   UNL     1      -1.772  -0.893  -1.101  0.00  0.00    +0.046 A 
ATOM     13  C   UNL     1      -3.000  -1.521  -1.120  0.00  0.00    +0.013 A 
ATOM     14  C   UNL     1      -3.600  -1.913   0.076  0.00  0.00    +0.000 A 
ATOM     15  C   UNL     1      -2.955  -1.668   1.290  0.00  0.00    +0.013 A 
ATOM     16  C   UNL     1      -1.726  -1.044   1.301  0.00  0.00    +0.046 A 
BRANCH  11  18
ATOM     17  C   UNL     1       0.627   0.347  -1.139  0.00  0.00    +0.277 C 
ATOM     18  O   UNL     1       0.075  -0.031   0.124  0.00  0.00    -0.495 OA
ENDBRANCH  11  18
ENDBRANCH   1  14
BRANCH  10  19
ATOM     19  C   UNL     1      -3.409  -5.331   0.888  0.00  0.00    -0.031 A 
ATOM     20  C   UNL     1      -3.822  -6.162  -0.137  0.00  0.00    +0.008 A 
ATOM     21  C   UNL     1      -2.892  -6.881  -0.865  0.00  0.00    +0.050 A 
ATOM     22  C   UNL     1      -1.543  -6.770  -0.567  0.00  0.00    +0.162 A 
ATOM     23  C   UNL     1      -1.128  -5.933   0.464  0.00  0.00    +0.163 A 
ATOM     24  C   UNL     1      -2.065  -5.211   1.186  0.00  0.00    +0.054 A 
BRANCH  22  25
ATOM     25  O   UNL     1      -0.628  -7.477  -1.282  0.00  0.00    -0.491 OA
ATOM     26  C   UNL     1      -1.126  -8.316  -2.326  0.00  0.00    +0.277 C 
ENDBRANCH  22  25
BRANCH  23  27
ATOM     27  O   UNL     1       0.195  -5.821   0.760  0.00  0.00    -0.484 OA
BRANCH  27  28
ATOM     28  C   UNL     1       0.548  -4.943   1.831  0.00  0.00    +0.264 C 
BRANCH  28  29
ATOM     29  C   UNL     1       2.044  -4.947   2.011  0.00  0.00    -0.010 A 
ATOM     30  C   UNL     1       2.635  -5.861   2.865  0.00  0.00    +0.007 A 
ATOM     31  C   UNL     1       4.007  -5.864   3.030  0.00  0.00    +0.000 A 
ATOM     32  C   UNL     1       4.789  -4.955   2.342  0.00  0.00    +0.000 A 
ATOM     33  C   UNL     1       4.198  -4.043   1.488  0.00  0.00    +0.000 A 
ATOM     34  C   UNL     1       2.826  -4.042   1.319  0.00  0.00    +0.007 A 
ENDBRANCH  28  29
ENDBRANCH  27  28
ENDBRANCH  23  27
ENDBRANCH  10  19
BRANCH   8  35
ATOM     35  N   UNL     1      -7.376  -6.591   2.760  0.00  0.00    -0.328 N 
ATOM     36  H   UNL     1      -8.302  -6.761   2.523  0.00  0.00    +0.145 HD
ATOM     37  H   UNL     1      -6.977  -7.053   3.514  0.00  0.00    +0.145 HD
ENDBRANCH   8  35
BRANCH   9  38
ATOM     38  C   UNL     1      -4.844  -6.219   3.528  0.00  0.00    +0.101 C 
ATOM     39  N   UNL     1      -4.442  -6.791   4.423  0.00  0.00    -0.191 NA
ENDBRANCH   9  38
TORSDOF 9
