REMARK  Name = ZINC12850440
REMARK  5 active torsions:
REMARK  status: ('A' for Active; 'I' for Inactive)
REMARK    1  A    between atoms: C_1  and  C_2
REMARK    2  A    between atoms: C_2  and  C_3
REMARK    3  A    between atoms: C_10  and  C_12
REMARK    4  A    between atoms: C_16  and  C_27
REMARK    5  A    between atoms: C_19  and  C_23
REMARK                            x       y       z     vdW  Elec       q    Type
REMARK                         _______ _______ _______ _____ _____    ______ ____
ROOT
ATOM      1  C   UNL     1       4.069   0.879  -0.103  0.00  0.00    +0.110 C 
ATOM      2  C   UNL     1       5.021   0.399  -0.941  0.00  0.00    +0.072 C 
ATOM      3  C   UNL     1       6.285   1.032  -0.567  0.00  0.00    +0.114 C 
ATOM      4  N   UNL     1       7.477   0.881  -1.072  0.00  0.00    -0.365 N 
ATOM      5  C   UNL     1       8.600   1.618  -0.481  0.00  0.00    +0.113 C 
ATOM      6  C   UNL     1       8.130   2.964   0.072  0.00  0.00    +0.062 C 
ATOM      7  C   UNL     1       7.023   2.738   1.114  0.00  0.00    +0.201 C 
ATOM      8  N   UNL     1       6.003   1.892   0.487  0.00  0.00    -0.226 N 
ATOM      9  N   UNL     1       4.647   1.781   0.775  0.00  0.00    -0.258 N 
ATOM     10  H   UNL     1       4.181   2.258   1.479  0.00  0.00    +0.170 HD
ATOM     11  H   UNL     1       7.619   0.291  -1.829  0.00  0.00    +0.161 HD
ENDROOT
BRANCH   1  18
ATOM     12  C   UNL     1       0.858  -1.111  -0.595  0.00  0.00    +0.076 C 
ATOM     13  C   UNL     1       0.574  -2.333   0.284  0.00  0.00    +0.022 C 
ATOM     14  C   UNL     1       1.544  -3.458  -0.083  0.00  0.00    +0.003 C 
ATOM     15  C   UNL     1       2.981  -3.000   0.177  0.00  0.00    +0.019 C 
ATOM     16  C   UNL     1       3.293  -1.786  -0.703  0.00  0.00    +0.108 C 
ATOM     17  N   UNL     1       2.277  -0.751  -0.464  0.00  0.00    -0.293 N 
ATOM     18  C   UNL     1       2.638   0.503  -0.128  0.00  0.00    +0.262 C 
ATOM     19  O   UNL     1       1.789   1.325   0.155  0.00  0.00    -0.269 OA
BRANCH  12  21
ATOM     20  C   UNL     1      -1.489  -0.318  -0.274  0.00  0.00    +0.006 C 
ATOM     21  C   UNL     1      -0.013   0.061  -0.141  0.00  0.00    +0.019 C 
ENDBRANCH  12  21
ENDBRANCH   1  18
BRANCH   5  22
ATOM     22  C   UNL     1       9.195   0.802   0.638  0.00  0.00    -0.024 A 
ATOM     23  C   UNL     1       8.368   0.097   1.494  0.00  0.00    +0.007 A 
ATOM     24  C   UNL     1       8.912  -0.651   2.521  0.00  0.00    +0.022 A 
ATOM     25  C   UNL     1      10.284  -0.694   2.694  0.00  0.00    +0.059 A 
ATOM     26  C   UNL     1      11.112   0.012   1.837  0.00  0.00    +0.060 A 
ATOM     27  C   UNL     1      10.566   0.755   0.806  0.00  0.00    +0.027 A 
ATOM     28 CL   UNL     1      12.833  -0.042   2.053  0.00  0.00    -0.082 Cl
ATOM     29 CL   UNL     1      10.968  -1.633   3.984  0.00  0.00    -0.082 Cl
ENDBRANCH   5  22
BRANCH   7  30
ATOM     30  C   UNL     1       6.411   4.079   1.523  0.00  0.00    +0.410 C 
ATOM     31  F   UNL     1       5.864   4.705   0.397  0.00  0.00    -0.169 F 
ATOM     32  F   UNL     1       5.406   3.864   2.471  0.00  0.00    -0.169 F 
ATOM     33  F   UNL     1       7.404   4.897   2.073  0.00  0.00    -0.169 F 
ENDBRANCH   7  30
TORSDOF 4
