REMARK  Name = ZINC39974628
REMARK  11 active torsions:
REMARK  status: ('A' for Active; 'I' for Inactive)
REMARK    1  A    between atoms: C_1  and  C_2
REMARK    2  A    between atoms: C_2  and  C_3
REMARK    3  A    between atoms: N_5  and  C_6
REMARK    4  A    between atoms: C_10  and  N_12
REMARK    5  A    between atoms: N_12  and  C_13
REMARK    6  A    between atoms: C_13  and  N_15
REMARK    7  A    between atoms: N_15  and  C_16
REMARK    8  A    between atoms: C_19  and  S_22
REMARK    9  A    between atoms: S_22  and  N_25
REMARK   10  A    between atoms: C_27  and  C_34
REMARK   11  A    between atoms: C_30  and  C_33
REMARK                            x       y       z     vdW  Elec       q    Type
REMARK                         _______ _______ _______ _____ _____    ______ ____
ROOT
ATOM      1  N   UNL     1       2.884  -6.725  -5.786  0.00  0.00    -0.297 N 
ATOM      2  H   UNL     1       3.341  -6.140  -5.161  0.00  0.00    +0.154 HD
ENDROOT
BRANCH   1   3
ATOM      3  C   UNL     1       3.396  -6.909  -7.074  0.00  0.00    +0.033 A 
ATOM      4  C   UNL     1       3.855  -5.819  -7.803  0.00  0.00    +0.025 A 
ATOM      5  C   UNL     1       4.360  -6.004  -9.075  0.00  0.00    +0.030 A 
ATOM      6  C   UNL     1       4.409  -7.272  -9.623  0.00  0.00    +0.106 A 
ATOM      7  C   UNL     1       3.953  -8.360  -8.901  0.00  0.00    +0.030 A 
ATOM      8  C   UNL     1       3.452  -8.182  -7.626  0.00  0.00    +0.025 A 
BRANCH   6   9
ATOM      9  S   UNL     1       5.054  -7.503 -11.247  0.00  0.00    +0.061 S 
ATOM     10  O   UNL     1       4.487  -8.709 -11.741  0.00  0.00    -0.153 OA
ATOM     11  O   UNL     1       4.910  -6.261 -11.922  0.00  0.00    -0.153 OA
BRANCH   9  12
ATOM     12  N   UNL     1       6.681  -7.773 -11.094  0.00  0.00    -0.176 NA
ATOM     13  C   UNL     1       7.630  -6.652 -11.111  0.00  0.00    +0.112 C 
ATOM     14  C   UNL     1       8.509  -6.731  -9.859  0.00  0.00    +0.002 C 
ATOM     15  C   UNL     1       9.167  -8.111  -9.789  0.00  0.00    +0.009 C 
ATOM     16  C   UNL     1       8.085  -9.189  -9.689  0.00  0.00    +0.002 C 
ATOM     17  C   UNL     1       7.201  -9.137 -10.933  0.00  0.00    +0.112 C 
ATOM     18  C   UNL     1       7.228  -8.940  -8.447  0.00  0.00    +0.009 C 
ATOM     19  C   UNL     1       9.591  -5.651  -9.925  0.00  0.00    +0.009 C 
ENDBRANCH   9  12
ENDBRANCH   6   9
ENDBRANCH   1   3
BRANCH   1  20
ATOM     20  C   UNL     1       1.756  -7.361  -5.412  0.00  0.00    +0.139 C 
ATOM     21  S   UNL     1       1.006  -8.472  -6.478  0.00  0.00    -0.018 S 
BRANCH  20  22
ATOM     22  N   UNL     1       1.219  -7.124  -4.199  0.00  0.00    -0.297 N 
ATOM     23  H   UNL     1       1.687  -6.559  -3.563  0.00  0.00    +0.154 HD
BRANCH  22  28
ATOM     24  C   UNL     1      -1.428  -8.781  -2.251  0.00  0.00    +0.035 A 
ATOM     25  C   UNL     1      -2.456  -8.815  -3.185  0.00  0.00    +0.023 A 
ATOM     26  C   UNL     1      -2.261  -8.288  -4.448  0.00  0.00    +0.004 A 
ATOM     27  C   UNL     1      -1.044  -7.728  -4.785  0.00  0.00    +0.023 A 
ATOM     28  C   UNL     1      -0.013  -7.691  -3.856  0.00  0.00    +0.034 A 
ATOM     29  C   UNL     1      -0.207  -8.213  -2.585  0.00  0.00    +0.046 A 
BRANCH  24  32
ATOM     30  C   UNL     1      -1.057  -8.727   0.099  0.00  0.00    +0.217 C 
ATOM     31  O   UNL     1      -0.312  -7.782  -0.053  0.00  0.00    -0.275 OA
ATOM     32  N   UNL     1      -1.626  -9.315  -0.973  0.00  0.00    -0.285 N 
ATOM     33  H   UNL     1      -2.173 -10.108  -0.857  0.00  0.00    +0.155 HD
BRANCH  30  35
ATOM     34  C   UNL     1      -0.582  -8.406   2.511  0.00  0.00    +0.013 C 
ATOM     35  C   UNL     1      -1.347  -9.243   1.484  0.00  0.00    +0.093 C 
ENDBRANCH  30  35
ENDBRANCH  24  32
ENDBRANCH  22  28
ENDBRANCH  20  22
ENDBRANCH   1  20
TORSDOF 8
