REMARK  Name = ZINC12492055
REMARK  10 active torsions:
REMARK  status: ('A' for Active; 'I' for Inactive)
REMARK    1  A    between atoms: C_1  and  C_2
REMARK    2  A    between atoms: C_2  and  C_3
REMARK    3  A    between atoms: C_2  and  C_4
REMARK    4  A    between atoms: C_2  and  C_5
REMARK    5  A    between atoms: C_8  and  C_11
REMARK    6  A    between atoms: N_13  and  C_14
REMARK    7  A    between atoms: C_17  and  C_20
REMARK    8  A    between atoms: N_22  and  N_23
REMARK    9  A    between atoms: C_24  and  C_26
REMARK   10  A    between atoms: C_27  and  C_28
REMARK                            x       y       z     vdW  Elec       q    Type
REMARK                         _______ _______ _______ _____ _____    ______ ____
ROOT
ATOM      1  C   UNL     1       1.100   2.174   0.091  0.00  0.00    +0.034 A 
ATOM      2  C   UNL     1       2.378   1.629   0.018  0.00  0.00    +0.024 A 
ATOM      3  C   UNL     1       3.482   2.448   0.092  0.00  0.00    +0.015 A 
ATOM      4  C   UNL     1       3.318   3.827   0.253  0.00  0.00    +0.038 A 
ATOM      5  C   UNL     1       2.033   4.370   0.331  0.00  0.00    +0.015 A 
ATOM      6  C   UNL     1       0.933   3.547   0.251  0.00  0.00    +0.024 A 
ENDROOT
BRANCH   1   9
ATOM      7  C   UNL     1       0.019   0.241  -0.765  0.00  0.00    +0.248 C 
ATOM      8  O   UNL     1       0.988   0.023  -1.467  0.00  0.00    -0.270 OA
ATOM      9  N   UNL     1      -0.016   1.344   0.009  0.00  0.00    -0.282 N 
ATOM     10  H   UNL     1      -0.820   1.561   0.507  0.00  0.00    +0.155 HD
BRANCH   7  14
ATOM     11  C   UNL     1      -3.251  -2.469  -0.754  0.00  0.00    -0.042 A 
ATOM     12  C   UNL     1      -2.151  -2.720  -1.555  0.00  0.00    +0.005 A 
ATOM     13  C   UNL     1      -1.085  -1.844  -1.563  0.00  0.00    +0.013 A 
ATOM     14  C   UNL     1      -1.119  -0.702  -0.762  0.00  0.00    +0.037 A 
ATOM     15  C   UNL     1      -2.230  -0.457   0.047  0.00  0.00    +0.013 A 
ATOM     16  C   UNL     1      -3.291  -1.338   0.042  0.00  0.00    +0.005 A 
BRANCH  11  18
ATOM     17  C   UNL     1      -3.929  -4.810  -0.297  0.00  0.00    +0.015 C 
ATOM     18  C   UNL     1      -4.411  -3.431  -0.750  0.00  0.00    -0.013 C 
ATOM     19  C   UNL     1      -5.489  -2.925   0.211  0.00  0.00    +0.015 C 
ATOM     20  C   UNL     1      -4.994  -3.533  -2.162  0.00  0.00    +0.015 C 
ENDBRANCH  11  18
ENDBRANCH   7  14
ENDBRANCH   1   9
BRANCH   4  21
ATOM     21  C   UNL     1       4.500   4.707   0.338  0.00  0.00    +0.260 C 
ATOM     22  O   UNL     1       4.356   5.906   0.478  0.00  0.00    -0.269 OA
ATOM     23  N   UNL     1       5.739   4.181   0.262  0.00  0.00    -0.230 N 
ATOM     24  H   UNL     1       5.854   3.224   0.151  0.00  0.00    +0.173 HD
BRANCH  23  25
ATOM     25  N   UNL     1       6.861   5.016   0.344  0.00  0.00    -0.231 N 
ATOM     26  C   UNL     1       8.099   4.491   0.267  0.00  0.00    +0.253 C 
ATOM     27  O   UNL     1       8.243   3.290   0.128  0.00  0.00    -0.269 OA
ATOM     28  H   UNL     1       6.746   5.973   0.455  0.00  0.00    +0.173 HD
BRANCH  26  29
ATOM     29  C   UNL     1       9.270   5.363   0.352  0.00  0.00    +0.069 C 
ATOM     30  C   UNL     1      10.512   4.836   0.276  0.00  0.00    +0.013 C 
BRANCH  30  31
ATOM     31  C   UNL     1      11.687   5.710   0.361  0.00  0.00    -0.017 A 
ATOM     32  C   UNL     1      11.540   7.085   0.521  0.00  0.00    +0.008 A 
ATOM     33  C   UNL     1      12.653   7.909   0.601  0.00  0.00    +0.001 A 
ATOM     34  C   UNL     1      13.920   7.415   0.528  0.00  0.00    +0.008 A 
ATOM     35  C   UNL     1      14.144   6.037   0.367  0.00  0.00    -0.017 A 
ATOM     36  C   UNL     1      13.039   5.156   0.286  0.00  0.00    -0.011 A 
ATOM     37  C   UNL     1      13.258   3.783   0.133  0.00  0.00    +0.009 A 
ATOM     38  C   UNL     1      14.534   3.307   0.067  0.00  0.00    +0.001 A 
ATOM     39  C   UNL     1      15.624   4.170   0.151  0.00  0.00    +0.001 A 
ATOM     40  C   UNL     1      15.446   5.513   0.291  0.00  0.00    +0.008 A 
ENDBRANCH  30  31
ENDBRANCH  26  29
ENDBRANCH  23  25
ENDBRANCH   4  21
TORSDOF 7
