REMARK  Name = ZINC09407261
REMARK  4 active torsions:
REMARK  status: ('A' for Active; 'I' for Inactive)
REMARK    1  A    between atoms: C_1  and  C_2
REMARK    2  A    between atoms: C_9  and  C_11
REMARK    3  A    between atoms: N_14  and  S_17
REMARK    4  A    between atoms: S_17  and  C_20
REMARK                            x       y       z     vdW  Elec       q    Type
REMARK                         _______ _______ _______ _____ _____    ______ ____
ROOT
ATOM      1  C   UNL     1      -1.459   2.181   4.104  0.00  0.00    +0.078 C 
ATOM      2  C   UNL     1      -1.526   0.800   3.448  0.00  0.00    +0.030 C 
ATOM      3  C   UNL     1      -1.859   0.961   1.962  0.00  0.00    +0.110 C 
ATOM      4  N   UNL     1      -0.879   1.871   1.353  0.00  0.00    -0.177 NA
ATOM      5  C   UNL     1      -0.666   3.190   1.964  0.00  0.00    +0.110 C 
ATOM      6  C   UNL     1      -0.350   3.006   3.447  0.00  0.00    +0.030 C 
ENDROOT
BRANCH   1  15
ATOM      7  C   UNL     1      -0.383   2.427  11.899  0.00  0.00    +0.045 C 
ATOM      8  C   UNL     1      -0.567   2.649  10.420  0.00  0.00    -0.032 A 
ATOM      9  C   UNL     1      -0.726   3.933   9.918  0.00  0.00    +0.008 A 
ATOM     10  C   UNL     1      -0.892   4.093   8.553  0.00  0.00    +0.044 A 
ATOM     11  C   UNL     1      -0.893   2.968   7.736  0.00  0.00    +0.125 A 
ATOM     12  N   UNL     1      -0.744   1.759   8.254  0.00  0.00    -0.240 NA
ATOM     13  C   UNL     1      -0.578   1.577   9.550  0.00  0.00    +0.116 A 
ATOM     14  N   UNL     1      -1.060   3.114   6.360  0.00  0.00    -0.270 N 
ATOM     15  C   UNL     1      -1.165   2.024   5.574  0.00  0.00    +0.221 C 
ATOM     16  O   UNL     1      -1.023   0.918   6.050  0.00  0.00    -0.275 OA
ATOM     17  H   UNL     1      -1.100   4.001   5.968  0.00  0.00    +0.156 HD
ENDBRANCH   1  15
BRANCH   4  18
ATOM     18  S   UNL     1      -0.026   1.416   0.009  0.00  0.00    +0.061 S 
ATOM     19  O   UNL     1      -0.008  -0.005   0.001  0.00  0.00    -0.153 OA
ATOM     20  O   UNL     1       1.163   2.193  -0.000  0.00  0.00    -0.153 OA
BRANCH  18  21
ATOM     21  C   UNL     1      -0.965   1.915  -1.397  0.00  0.00    +0.106 A 
ATOM     22  C   UNL     1      -0.764   3.174  -1.946  0.00  0.00    +0.030 A 
ATOM     23  C   UNL     1      -1.486   3.585  -3.045  0.00  0.00    +0.028 A 
ATOM     24  C   UNL     1      -2.427   2.731  -3.612  0.00  0.00    +0.049 A 
ATOM     25  C   UNL     1      -2.628   1.456  -3.052  0.00  0.00    +0.000 A 
ATOM     26  C   UNL     1      -1.879   1.057  -1.940  0.00  0.00    +0.038 A 
ATOM     27  C   UNL     1      -3.620   0.564  -3.656  0.00  0.00    +0.015 A 
ATOM     28  C   UNL     1      -4.312   1.002  -4.736  0.00  0.00    +0.071 A 
ATOM     29  C   UNL     1      -4.073   2.291  -5.259  0.00  0.00    +0.249 A 
ATOM     30  O   UNL     1      -4.706   2.665  -6.231  0.00  0.00    -0.268 OA
ATOM     31  N   UNL     1      -3.163   3.117  -4.712  0.00  0.00    -0.322 N 
ATOM     32  H   UNL     1      -3.024   3.996  -5.096  0.00  0.00    +0.169 HD
ENDBRANCH  18  21
ENDBRANCH   4  18
TORSDOF 3
