REMARK  Name = ZINC39689382
REMARK  9 active torsions:
REMARK  status: ('A' for Active; 'I' for Inactive)
REMARK    1  A    between atoms: C_1  and  C_2
REMARK    2  A    between atoms: C_6  and  C_8
REMARK    3  A    between atoms: C_8  and  C_9
REMARK    4  A    between atoms: C_9  and  N_10
REMARK    5  A    between atoms: C_11  and  C_13
REMARK    6  A    between atoms: C_24  and  C_26
REMARK    7  A    between atoms: C_26  and  C_28
REMARK    8  A    between atoms: C_26  and  O_29
REMARK    9  A    between atoms: O_29  and  C_30
REMARK                            x       y       z     vdW  Elec       q    Type
REMARK                         _______ _______ _______ _____ _____    ______ ____
ROOT
ATOM      1  C   UNL     1       3.352  -5.405   6.367  0.00  0.00    +0.100 C 
ATOM      2  C   UNL     1       2.503  -4.489   7.277  0.00  0.00    +0.121 C 
ATOM      3  N   UNL     1       3.245  -4.444   8.559  0.00  0.00    -0.297 N 
ATOM      4  C   UNL     1       4.671  -4.382   8.159  0.00  0.00    +0.115 C 
ATOM      5  C   UNL     1       4.774  -5.331   6.948  0.00  0.00    -0.004 C 
ATOM      6  C   UNL     1       5.739  -4.762   5.913  0.00  0.00    -0.010 C 
ATOM      7  C   UNL     1       7.156  -4.753   6.493  0.00  0.00    -0.082 C 
ATOM      8  N   UNL     1       7.546  -6.121   6.856  0.00  0.00    +0.379 N 
ATOM      9  C   UNL     1       6.670  -6.626   7.920  0.00  0.00    -0.082 C 
ATOM     10  C   UNL     1       5.232  -6.715   7.400  0.00  0.00    -0.010 C 
ATOM     11  C   UNL     1       2.737  -4.458   9.808  0.00  0.00    +0.256 C 
ATOM     12  O   UNL     1       3.481  -4.415  10.765  0.00  0.00    -0.272 OA
ATOM     13  H   UNL     1       7.469  -6.718   6.046  0.00  0.00    -0.086 HD
ATOM     14  H   UNL     1       8.502  -6.121   7.181  0.00  0.00    -0.086 HD
ENDROOT
BRANCH   1  16
ATOM     15  N   UNL     1       3.504  -5.752   3.923  0.00  0.00    -0.315 N 
ATOM     16  C   UNL     1       3.337  -4.895   4.949  0.00  0.00    +0.218 C 
ATOM     17  O   UNL     1       3.175  -3.713   4.732  0.00  0.00    -0.275 OA
ATOM     18  H   UNL     1       3.634  -6.697   4.097  0.00  0.00    +0.149 HD
BRANCH  15  19
ATOM     19  C   UNL     1       3.490  -5.256   2.545  0.00  0.00    +0.109 C 
BRANCH  19  20
ATOM     20  C   UNL     1       3.700  -6.425   1.580  0.00  0.00    +0.054 C 
BRANCH  20  26
ATOM     21  C   UNL     1       1.185  -5.319  -2.603  0.00  0.00    +0.044 C 
ATOM     22  C   UNL     1       2.482  -5.386  -1.839  0.00  0.00    -0.050 A 
ATOM     23  C   UNL     1       3.659  -4.979  -2.440  0.00  0.00    +0.003 A 
ATOM     24  C   UNL     1       4.849  -5.041  -1.740  0.00  0.00    +0.001 A 
ATOM     25  C   UNL     1       4.863  -5.509  -0.439  0.00  0.00    +0.004 A 
ATOM     26  C   UNL     1       3.686  -5.914   0.162  0.00  0.00    -0.046 A 
ATOM     27  C   UNL     1       2.495  -5.849  -0.537  0.00  0.00    +0.007 A 
ENDBRANCH  20  26
ENDBRANCH  19  20
ENDBRANCH  15  19
ENDBRANCH   1  16
BRANCH  11  28
ATOM     28  C   UNL     1       1.246  -4.526  10.015  0.00  0.00    +0.256 C 
ATOM     29  C   UNL     1       0.597  -3.252   9.471  0.00  0.00    +0.062 C 
BRANCH  28  30
ATOM     30  O   UNL     1       0.964  -4.646  11.411  0.00  0.00    -0.480 OA
BRANCH  30  31
ATOM     31  C   UNL     1      -0.215  -5.227  11.754  0.00  0.00    +0.122 A 
ATOM     32  C   UNL     1      -1.126  -5.584  10.771  0.00  0.00    +0.045 A 
ATOM     33  C   UNL     1      -2.324  -6.176  11.122  0.00  0.00    +0.004 A 
ATOM     34  C   UNL     1      -2.615  -6.412  12.453  0.00  0.00    +0.000 A 
ATOM     35  C   UNL     1      -1.709  -6.057  13.435  0.00  0.00    +0.004 A 
ATOM     36  C   UNL     1      -0.507  -5.471  13.088  0.00  0.00    +0.045 A 
ENDBRANCH  30  31
ENDBRANCH  28  30
ENDBRANCH  11  28
TORSDOF 7
