REMARK  Name = ZINC44938759
REMARK  11 active torsions:
REMARK  status: ('A' for Active; 'I' for Inactive)
REMARK    1  A    between atoms: C_1  and  C_2
REMARK    2  A    between atoms: C_7  and  C_8
REMARK    3  A    between atoms: C_8  and  N_9
REMARK    4  A    between atoms: C_13  and  C_16
REMARK    5  A    between atoms: N_18  and  C_19
REMARK    6  A    between atoms: C_23  and  C_25
REMARK    7  A    between atoms: C_25  and  C_27
REMARK    8  A    between atoms: C_30  and  C_33
REMARK    9  A    between atoms: C_33  and  C_34
REMARK   10  A    between atoms: C_33  and  C_35
REMARK   11  A    between atoms: C_33  and  C_36
REMARK                            x       y       z     vdW  Elec       q    Type
REMARK                         _______ _______ _______ _____ _____    ______ ____
ROOT
ATOM      1  C   UNL     1      -4.631   3.188   5.276  0.00  0.00    +0.219 C 
ATOM      2  O   UNL     1      -3.475   3.332   5.612  0.00  0.00    -0.275 OA
ATOM      3  N   UNL     1      -5.623   3.413   6.161  0.00  0.00    -0.285 N 
ATOM      4  H   UNL     1      -6.548   3.367   5.874  0.00  0.00    +0.155 HD
ENDROOT
BRANCH   1   9
ATOM      5  N   UNL     1      -3.983   2.155   1.705  0.00  0.00    +0.383 N 
ATOM      6  C   UNL     1      -4.747   3.209   1.027  0.00  0.00    -0.078 C 
ATOM      7  C   UNL     1      -6.084   3.416   1.743  0.00  0.00    -0.018 C 
ATOM      8  C   UNL     1      -5.821   3.827   3.195  0.00  0.00    +0.009 C 
ATOM      9  C   UNL     1      -4.960   2.756   3.870  0.00  0.00    +0.059 C 
ATOM     10  C   UNL     1      -3.665   2.574   3.075  0.00  0.00    -0.066 C 
ATOM     11  H   UNL     1      -4.532   1.309   1.731  0.00  0.00    -0.081 HD
BRANCH   5  12
ATOM     12  C   UNL     1      -2.736   1.907   0.969  0.00  0.00    -0.043 C 
BRANCH  12  19
ATOM     13  C   UNL     1      -3.570  -0.845   0.680  0.00  0.00    +0.044 C 
ATOM     14  C   UNL     1      -3.459   0.041  -0.535  0.00  0.00    -0.049 A 
ATOM     15  C   UNL     1      -3.762  -0.462  -1.786  0.00  0.00    +0.003 A 
ATOM     16  C   UNL     1      -3.660   0.350  -2.900  0.00  0.00    +0.000 A 
ATOM     17  C   UNL     1      -3.256   1.665  -2.763  0.00  0.00    +0.000 A 
ATOM     18  C   UNL     1      -2.954   2.168  -1.511  0.00  0.00    +0.002 A 
ATOM     19  C   UNL     1      -3.060   1.357  -0.397  0.00  0.00    -0.061 A 
ENDBRANCH  12  19
ENDBRANCH   5  12
ENDBRANCH   1   9
BRANCH   3  20
ATOM     20  C   UNL     1      -5.317   3.714   7.493  0.00  0.00    +0.034 A 
ATOM     21  C   UNL     1      -6.132   3.244   8.517  0.00  0.00    +0.023 A 
ATOM     22  C   UNL     1      -5.835   3.539   9.834  0.00  0.00    +0.002 A 
ATOM     23  C   UNL     1      -4.728   4.301  10.143  0.00  0.00    +0.012 A 
ATOM     24  C   UNL     1      -3.902   4.779   9.122  0.00  0.00    +0.024 A 
ATOM     25  C   UNL     1      -4.199   4.476   7.792  0.00  0.00    +0.035 A 
BRANCH  24  26
ATOM     26  C   UNL     1      -2.715   5.596   9.449  0.00  0.00    +0.193 C 
ATOM     27  O   UNL     1      -2.216   5.527  10.555  0.00  0.00    -0.287 OA
BRANCH  26  28
ATOM     28  C   UNL     1      -2.136   6.497   8.432  0.00  0.00    +0.022 A 
ATOM     29  C   UNL     1      -2.920   6.951   7.368  0.00  0.00    +0.012 A 
ATOM     30  C   UNL     1      -2.372   7.792   6.422  0.00  0.00    +0.005 A 
ATOM     31  C   UNL     1      -1.050   8.187   6.525  0.00  0.00    -0.042 A 
ATOM     32  C   UNL     1      -0.268   7.741   7.576  0.00  0.00    +0.005 A 
ATOM     33  C   UNL     1      -0.804   6.905   8.533  0.00  0.00    +0.012 A 
BRANCH  31  34
ATOM     34  C   UNL     1      -0.459   9.106   5.487  0.00  0.00    -0.013 C 
ATOM     35  C   UNL     1      -1.239  10.422   5.468  0.00  0.00    +0.015 C 
ATOM     36  C   UNL     1       1.006   9.386   5.829  0.00  0.00    +0.015 C 
ATOM     37  C   UNL     1      -0.543   8.442   4.111  0.00  0.00    +0.015 C 
ENDBRANCH  31  34
ENDBRANCH  26  28
ENDBRANCH  24  26
ENDBRANCH   3  20
TORSDOF 7
