REMARK  Name = ZINC05976283
REMARK  7 active torsions:
REMARK  status: ('A' for Active; 'I' for Inactive)
REMARK    1  A    between atoms: C_1  and  C_2
REMARK    2  A    between atoms: N_4  and  C_5
REMARK    3  A    between atoms: C_8  and  N_11
REMARK    4  A    between atoms: N_11  and  C_12
REMARK    5  A    between atoms: C_18  and  N_20
REMARK    6  A    between atoms: N_20  and  S_21
REMARK    7  A    between atoms: S_21  and  C_24
REMARK                            x       y       z     vdW  Elec       q    Type
REMARK                         _______ _______ _______ _____ _____    ______ ____
ROOT
ATOM      1  C   UNL     1      -0.272  -7.008  -2.220  0.00  0.00    +0.089 C 
ATOM      2  C   UNL     1      -1.695  -7.101  -2.775  0.00  0.00    +0.024 C 
ATOM      3  C   UNL     1      -1.683  -7.913  -4.072  0.00  0.00    +0.002 C 
ATOM      4  C   UNL     1      -1.153  -9.320  -3.789  0.00  0.00    +0.002 C 
ATOM      5  C   UNL     1       0.269  -9.226  -3.233  0.00  0.00    +0.022 C 
ATOM      6  C   UNL     1       0.258  -8.415  -1.936  0.00  0.00    +0.097 C 
ENDROOT
BRANCH   1   7
ATOM      7  N   UNL     1      -0.283  -6.231  -0.978  0.00  0.00    -0.339 N 
ATOM      8  H   UNL     1      -0.339  -6.684  -0.122  0.00  0.00    +0.146 HD
BRANCH   7  12
ATOM      9  C   UNL     1      -0.071  -2.071  -1.121  0.00  0.00    +0.033 A 
ATOM     10  C   UNL     1      -0.152  -2.720   0.104  0.00  0.00    +0.025 A 
ATOM     11  C   UNL     1      -0.222  -4.098   0.151  0.00  0.00    +0.025 A 
ATOM     12  C   UNL     1      -0.212  -4.835  -1.026  0.00  0.00    +0.027 A 
ATOM     13  C   UNL     1      -0.131  -4.185  -2.251  0.00  0.00    +0.025 A 
ATOM     14  C   UNL     1      -0.066  -2.807  -2.298  0.00  0.00    +0.025 A 
BRANCH   9  18
ATOM     15  C   UNL     1      -0.617   1.507  -2.165  0.00  0.00    +0.109 C 
ATOM     16  C   UNL     1      -0.604  -0.000  -2.169  0.00  0.00    +0.214 C 
ATOM     17  O   UNL     1      -1.137  -0.609  -3.073  0.00  0.00    -0.276 OA
ATOM     18  N   UNL     1       0.000  -0.672  -1.169  0.00  0.00    -0.286 N 
ATOM     19  H   UNL     1       0.484  -0.187  -0.482  0.00  0.00    +0.155 HD
ENDBRANCH   9  18
ENDBRANCH   7  12
ENDBRANCH   1   7
BRANCH   6  20
ATOM     20  N   UNL     1       1.620  -8.326  -1.404  0.00  0.00    -0.185 NA
ATOM     21  H   UNL     1       2.221  -7.634  -1.723  0.00  0.00    +0.148 HD
BRANCH  20  22
ATOM     22  S   UNL     1       2.134  -9.406  -0.259  0.00  0.00    +0.059 S 
ATOM     23  O   UNL     1       3.487  -9.079   0.029  0.00  0.00    -0.153 OA
ATOM     24  O   UNL     1       1.129  -9.444   0.744  0.00  0.00    -0.153 OA
BRANCH  22  25
ATOM     25  C   UNL     1       2.151 -10.997  -1.015  0.00  0.00    +0.105 A 
ATOM     26  C   UNL     1       1.023 -11.795  -0.973  0.00  0.00    +0.030 A 
ATOM     27  C   UNL     1       1.036 -13.043  -1.565  0.00  0.00    +0.022 A 
ATOM     28  C   UNL     1       2.178 -13.495  -2.201  0.00  0.00    +0.041 A 
ATOM     29  C   UNL     1       3.308 -12.697  -2.243  0.00  0.00    +0.022 A 
ATOM     30  C   UNL     1       3.292 -11.446  -1.655  0.00  0.00    +0.030 A 
ATOM     31 CL   UNL     1       2.195 -15.063  -2.945  0.00  0.00    -0.084 Cl
ENDBRANCH  22  25
ENDBRANCH  20  22
ENDBRANCH   6  20
TORSDOF 6
