REMARK  Name = ZINC38752825
REMARK  11 active torsions:
REMARK  status: ('A' for Active; 'I' for Inactive)
REMARK    1  A    between atoms: C_1  and  C_2
REMARK    2  A    between atoms: C_5  and  N_9
REMARK    3  A    between atoms: C_7  and  C_8
REMARK    4  A    between atoms: N_9  and  S_10
REMARK    5  A    between atoms: S_10  and  C_13
REMARK    6  A    between atoms: C_15  and  C_20
REMARK    7  A    between atoms: C_18  and  C_19
REMARK    8  A    between atoms: N_22  and  C_23
REMARK    9  A    between atoms: C_23  and  C_24
REMARK   10  A    between atoms: C_27  and  N_30
REMARK   11  A    between atoms: C_34  and  C_35
REMARK                            x       y       z     vdW  Elec       q    Type
REMARK                         _______ _______ _______ _____ _____    ______ ____
ROOT
ATOM      1  C   UNL     1       2.574  -4.657  -0.416  0.00  0.00    +0.112 A 
ATOM      2  C   UNL     1       3.428  -5.666  -0.022  0.00  0.00    +0.042 A 
ATOM      3  C   UNL     1       4.699  -5.350   0.460  0.00  0.00    +0.039 A 
ATOM      4  C   UNL     1       5.098  -4.015   0.540  0.00  0.00    +0.013 A 
ATOM      5  C   UNL     1       4.233  -3.016   0.143  0.00  0.00    +0.006 A 
ATOM      6  C   UNL     1       2.976  -3.336  -0.339  0.00  0.00    -0.024 A 
ATOM      7  C   UNL     1       2.040  -2.239  -0.777  0.00  0.00    +0.046 C 
ENDROOT
BRANCH   3   8
ATOM      8  C   UNL     1       5.620  -6.426   0.885  0.00  0.00    +0.244 C 
ATOM      9  O   UNL     1       5.271  -7.588   0.815  0.00  0.00    -0.270 OA
ATOM     10  N   UNL     1       6.847  -6.119   1.350  0.00  0.00    -0.307 N 
ATOM     11  H   UNL     1       7.126  -5.191   1.407  0.00  0.00    +0.149 HD
BRANCH  10  12
ATOM     12  C   UNL     1       7.760  -7.184   1.771  0.00  0.00    +0.139 C 
BRANCH  12  13
ATOM     13  C   UNL     1       9.055  -6.579   2.246  0.00  0.00    -0.030 A 
ATOM     14  C   UNL     1      10.085  -6.360   1.349  0.00  0.00    +0.007 A 
ATOM     15  C   UNL     1      11.273  -5.805   1.782  0.00  0.00    +0.026 A 
ATOM     16  C   UNL     1      11.433  -5.465   3.118  0.00  0.00    +0.048 A 
ATOM     17  C   UNL     1      10.398  -5.685   4.016  0.00  0.00    +0.026 A 
ATOM     18  C   UNL     1       9.210  -6.237   3.577  0.00  0.00    +0.007 A 
BRANCH  16  19
ATOM     19  N   UNL     1      12.639  -4.902   3.560  0.00  0.00    -0.305 N 
ATOM     20  C   UNL     1      13.900  -5.379   3.313  0.00  0.00    +0.110 A 
ATOM     21  C   UNL     1      14.761  -4.539   3.920  0.00  0.00    +0.102 A 
ATOM     22  N   UNL     1      14.050  -3.574   4.522  0.00  0.00    -0.350 N 
ATOM     23  C   UNL     1      12.778  -3.777   4.309  0.00  0.00    +0.088 A 
ATOM     24  C   UNL     1      11.652  -2.911   4.813  0.00  0.00    +0.084 C 
ATOM     25  H   UNL     1      14.422  -2.838   5.033  0.00  0.00    +0.166 HD
ENDBRANCH  16  19
ENDBRANCH  12  13
ENDBRANCH  10  12
ENDBRANCH   3   8
BRANCH   1  26
ATOM     26  S   UNL     1       0.969  -5.053  -1.026  0.00  0.00    +0.073 S 
ATOM     27  O   UNL     1       0.055  -4.201  -0.348  0.00  0.00    -0.150 OA
ATOM     28  O   UNL     1       0.859  -6.469  -0.991  0.00  0.00    -0.150 OA
BRANCH  26  29
ATOM     29  N   UNL     1       0.929  -4.614  -2.622  0.00  0.00    -0.216 N 
ATOM     30  H   UNL     1       0.315  -3.925  -2.921  0.00  0.00    +0.174 HD
BRANCH  29  35
ATOM     31  C   UNL     1       4.383  -7.141  -6.343  0.00  0.00    +0.044 C 
ATOM     32  C   UNL     1       3.465  -6.470  -5.354  0.00  0.00    -0.047 A 
ATOM     33  C   UNL     1       2.771  -7.230  -4.431  0.00  0.00    +0.005 A 
ATOM     34  C   UNL     1       1.929  -6.618  -3.524  0.00  0.00    +0.025 A 
ATOM     35  C   UNL     1       1.780  -5.237  -3.539  0.00  0.00    +0.048 A 
ATOM     36  C   UNL     1       2.479  -4.476  -4.467  0.00  0.00    +0.028 A 
ATOM     37  C   UNL     1       3.324  -5.094  -5.368  0.00  0.00    -0.046 A 
ATOM     38  C   UNL     1       4.087  -4.269  -6.372  0.00  0.00    +0.044 C 
ENDBRANCH  29  35
ENDBRANCH  26  29
ENDBRANCH   1  26
TORSDOF 7
