REMARK  Name = ZINC62485817
REMARK  7 active torsions:
REMARK  status: ('A' for Active; 'I' for Inactive)
REMARK    1  A    between atoms: C_1  and  C_2
REMARK    2  A    between atoms: N_6  and  C_8
REMARK    3  A    between atoms: C_8  and  C_9
REMARK    4  A    between atoms: C_8  and  C_10
REMARK    5  A    between atoms: C_10  and  N_11
REMARK    6  A    between atoms: C_18  and  C_20
REMARK    7  A    between atoms: N_22  and  C_23
REMARK                            x       y       z     vdW  Elec       q    Type
REMARK                         _______ _______ _______ _____ _____    ______ ____
ROOT
ATOM      1  N   UNL     1       0.978  -6.846   2.333  0.00  0.00    -0.301 N 
ATOM      2  C   UNL     1      -0.112  -6.072   2.163  0.00  0.00    +0.302 C 
ATOM      3  O   UNL     1       0.006  -4.865   2.080  0.00  0.00    -0.253 OA
ATOM      4  N   UNL     1      -1.334  -6.636   2.086  0.00  0.00    -0.285 N 
ATOM      5  C   UNL     1      -2.518  -5.820   1.786  0.00  0.00    +0.109 C 
ATOM      6  C   UNL     1      -3.251  -6.436   0.590  0.00  0.00    +0.020 C 
ATOM      7  C   UNL     1      -3.560  -7.905   0.888  0.00  0.00    +0.016 C 
ATOM      8  C   UNL     1      -2.252  -8.670   1.099  0.00  0.00    +0.092 C 
ATOM      9  C   UNL     1      -1.506  -8.081   2.294  0.00  0.00    +0.122 C 
ATOM     10  H   UNL     1       0.878  -7.801   2.472  0.00  0.00    +0.150 HD
ENDROOT
BRANCH   8  11
ATOM     11  C   UNL     1      -2.555 -10.123   1.360  0.00  0.00    +0.218 C 
ATOM     12  O   UNL     1      -3.705 -10.509   1.376  0.00  0.00    -0.275 OA
ATOM     13  N   UNL     1      -1.549 -10.994   1.575  0.00  0.00    -0.312 N 
ATOM     14  H   UNL     1      -0.630 -10.685   1.562  0.00  0.00    +0.149 HD
BRANCH  13  15
ATOM     15  C   UNL     1      -1.845 -12.406   1.829  0.00  0.00    +0.073 C 
ATOM     16  C   UNL     1      -2.140 -12.606   3.317  0.00  0.00    +0.022 C 
ATOM     17  C   UNL     1      -2.448 -14.081   3.583  0.00  0.00    +0.002 C 
ATOM     18  C   UNL     1      -1.243 -14.933   3.183  0.00  0.00    +0.000 C 
ATOM     19  C   UNL     1      -0.947 -14.734   1.696  0.00  0.00    +0.002 C 
ATOM     20  C   UNL     1      -0.639 -13.259   1.430  0.00  0.00    +0.022 C 
ENDBRANCH  13  15
ENDBRANCH   8  11
BRANCH   1  21
ATOM     21  C   UNL     1       2.314  -6.246   2.308  0.00  0.00    +0.090 C 
BRANCH  21  22
ATOM     22  C   UNL     1       3.371  -7.348   2.407  0.00  0.00    -0.054 C 
ATOM     23  C   UNL     1       4.763  -6.716   2.466  0.00  0.00    -0.012 C 
BRANCH  22  29
ATOM     24  C   UNL     1       3.264  -7.209   7.300  0.00  0.00    +0.005 C 
ATOM     25  C   UNL     1       3.037  -8.092   6.070  0.00  0.00    -0.031 C 
ATOM     26  C   UNL     1       3.957  -9.314   6.142  0.00  0.00    -0.001 C 
ATOM     27  C   UNL     1       3.779 -10.149   4.871  0.00  0.00    -0.018 C 
ATOM     28  C   UNL     1       4.069  -9.276   3.648  0.00  0.00    -0.078 C 
ATOM     29  N   UNL     1       3.140  -8.140   3.623  0.00  0.00    +0.383 N 
ATOM     30  C   UNL     1       3.355  -7.295   4.803  0.00  0.00    -0.075 C 
ATOM     31  H   UNL     1       2.191  -8.482   3.623  0.00  0.00    -0.081 HD
ENDBRANCH  22  29
ENDBRANCH  21  22
ENDBRANCH   1  21
TORSDOF 5
