REMARK  Name = ZINC52710237
REMARK  3 active torsions:
REMARK  status: ('A' for Active; 'I' for Inactive)
REMARK    1  A    between atoms: C_4  and  C_7
REMARK    2  A    between atoms: C_7  and  C_9
REMARK    3  A    between atoms: C_7  and  N_15
REMARK                            x       y       z     vdW  Elec       q    Type
REMARK                         _______ _______ _______ _____ _____    ______ ____
ROOT
ATOM      1  C   UNL     1       3.711  -0.707  -0.038  0.00  0.00    +0.174 C 
ENDROOT
BRANCH   1   2
ATOM      2  N   UNL     1       3.294  -2.099  -0.255  0.00  0.00    -0.288 NA
ATOM      3  C   UNL     1       2.410  -2.558   0.823  0.00  0.00    +0.086 C 
ATOM      4  C   UNL     1       1.883  -3.957   0.495  0.00  0.00    +0.019 C 
ATOM      5  C   UNL     1       3.068  -4.916   0.338  0.00  0.00    -0.005 C 
ATOM      6  C   UNL     1       3.829  -4.992   1.663  0.00  0.00    +0.004 C 
ATOM      7  C   UNL     1       5.033  -5.924   1.510  0.00  0.00    +0.000 C 
ATOM      8  C   UNL     1       5.963  -5.380   0.424  0.00  0.00    +0.000 C 
ATOM      9  C   UNL     1       5.205  -5.308  -0.903  0.00  0.00    +0.005 C 
ATOM     10  C   UNL     1       3.990  -4.390  -0.764  0.00  0.00    +0.006 C 
ATOM     11  C   UNL     1       4.460  -2.981  -0.401  0.00  0.00    +0.089 C 
ENDBRANCH   1   2
BRANCH   1  12
ATOM     12  C   UNL     1       2.491   0.169   0.088  0.00  0.00    +0.242 C 
ATOM     13  O   UNL     1       1.462  -0.141  -0.474  0.00  0.00    -0.273 OA
ATOM     14  N   UNL     1       2.544   1.296   0.825  0.00  0.00    -0.239 N 
ATOM     15  C   UNL     1       1.453   2.079   0.937  0.00  0.00    +0.303 C 
ATOM     16  O   UNL     1       0.422   1.769   0.374  0.00  0.00    -0.253 OA
ATOM     17  N   UNL     1       1.506   3.207   1.674  0.00  0.00    -0.313 N 
ATOM     18  H   UNL     1       3.367   1.544   1.274  0.00  0.00    +0.159 HD
ATOM     19  H   UNL     1       2.329   3.454   2.124  0.00  0.00    +0.146 HD
ATOM     20  H   UNL     1       0.721   3.770   1.755  0.00  0.00    +0.146 HD
ENDBRANCH   1  12
BRANCH   1  24
ATOM     21  C   UNL     1       6.074   0.604  -3.346  0.00  0.00    +0.000 A 
ATOM     22  C   UNL     1       6.460   0.914  -2.055  0.00  0.00    +0.000 A 
ATOM     23  C   UNL     1       5.695   0.489  -0.985  0.00  0.00    +0.005 A 
ATOM     24  C   UNL     1       4.544  -0.244  -1.205  0.00  0.00    -0.021 A 
ATOM     25  C   UNL     1       4.158  -0.553  -2.496  0.00  0.00    +0.005 A 
ATOM     26  C   UNL     1       4.923  -0.130  -3.566  0.00  0.00    +0.000 A 
ENDBRANCH   1  24
TORSDOF 3
