REMARK  Name = ZINC22002279
REMARK  12 active torsions:
REMARK  status: ('A' for Active; 'I' for Inactive)
REMARK    1  A    between atoms: C_1  and  C_2
REMARK    2  A    between atoms: C_2  and  C_32
REMARK    3  A    between atoms: C_3  and  N_21
REMARK    4  A    between atoms: N_5  and  C_9
REMARK    5  A    between atoms: C_9  and  C_10
REMARK    6  A    between atoms: C_10  and  C_11
REMARK    7  A    between atoms: C_14  and  O_19
REMARK    8  A    between atoms: C_15  and  O_17
REMARK    9  A    between atoms: O_17  and  C_18
REMARK   10  A    between atoms: O_19  and  C_20
REMARK   11  A    between atoms: N_21  and  O_31
REMARK   12  A    between atoms: N_24  and  C_25
REMARK                            x       y       z     vdW  Elec       q    Type
REMARK                         _______ _______ _______ _____ _____    ______ ____
ROOT
ATOM      1  C   UNL     1       0.737   1.134   0.396  0.00  0.00    +0.026 C 
ATOM      2  C   UNL     1       0.611  -0.371   0.153  0.00  0.00    +0.054 C 
ATOM      3  C   UNL     1       0.648  -0.697  -1.354  0.00  0.00    +0.209 C 
ATOM      4  N   UNL     1      -0.568  -1.315  -1.833  0.00  0.00    -0.297 N 
ATOM      5  C   UNL     1      -1.591  -1.557  -1.002  0.00  0.00    +0.111 C 
ATOM      6  S   UNL     1      -3.093  -2.278  -1.394  0.00  0.00    -0.028 S 
ATOM      7  S   UNL     1      -1.063  -0.975   0.597  0.00  0.00    -0.093 S 
ATOM      8  C   UNL     1       1.694  -1.142   0.911  0.00  0.00    +0.026 C 
ENDROOT
BRANCH   3   9
ATOM      9  N   UNL     1       0.869   0.546  -2.098  0.00  0.00    -0.145 N 
ATOM     10  C   UNL     1       1.816   0.598  -3.056  0.00  0.00    +0.327 C 
ATOM     11  O   UNL     1       2.532  -0.364  -3.256  0.00  0.00    -0.250 OA
ATOM     12  N   UNL     1       1.969   1.717  -3.792  0.00  0.00    -0.295 N 
ATOM     13  H   UNL     1       1.367   2.610  -3.567  0.00  0.00    +0.151 HD
BRANCH  12  14
ATOM     14  C   UNL     1       2.937   1.744  -4.891  0.00  0.00    +0.074 C 
ATOM     15  C   UNL     1       4.323   2.091  -4.342  0.00  0.00    +0.022 C 
ATOM     16  C   UNL     1       5.334   2.119  -5.490  0.00  0.00    +0.002 C 
ATOM     17  C   UNL     1       4.912   3.174  -6.515  0.00  0.00    +0.000 C 
ATOM     18  C   UNL     1       3.527   2.826  -7.064  0.00  0.00    +0.002 C 
ATOM     19  C   UNL     1       2.516   2.798  -5.916  0.00  0.00    +0.022 C 
ENDBRANCH  12  14
BRANCH   9  20
ATOM     20  O   UNL     1       0.088   1.692  -1.812  0.00  0.00    -0.290 OA
ATOM     21  H   UNL     1       0.254   2.624  -2.370  0.00  0.00    +0.242 HD
ENDBRANCH   9  20
ENDBRANCH   3   9
BRANCH   4  22
ATOM     22  C   UNL     1      -0.683  -1.683  -3.247  0.00  0.00    +0.112 C 
BRANCH  22  23
ATOM     23  C   UNL     1      -1.270  -0.509  -4.033  0.00  0.00    +0.054 C 
BRANCH  23  24
ATOM     24  C   UNL     1      -1.388  -0.887  -5.487  0.00  0.00    -0.042 A 
ATOM     25  C   UNL     1      -2.546  -1.479  -5.954  0.00  0.00    +0.007 A 
ATOM     26  C   UNL     1      -2.660  -1.828  -7.287  0.00  0.00    +0.049 A 
ATOM     27  C   UNL     1      -1.610  -1.584  -8.158  0.00  0.00    +0.161 A 
ATOM     28  C   UNL     1      -0.444  -0.987  -7.689  0.00  0.00    +0.162 A 
ATOM     29  C   UNL     1      -0.339  -0.636  -6.353  0.00  0.00    +0.053 A 
BRANCH  28  30
ATOM     30  O   UNL     1       0.588  -0.746  -8.540  0.00  0.00    -0.491 OA
ATOM     31  C   UNL     1       1.754  -0.131  -7.988  0.00  0.00    +0.277 C 
ENDBRANCH  28  30
BRANCH  27  32
ATOM     32  O   UNL     1      -1.720  -1.926  -9.470  0.00  0.00    -0.491 OA
ATOM     33  C   UNL     1      -2.946  -2.534  -9.881  0.00  0.00    +0.277 C 
ENDBRANCH  27  32
ENDBRANCH  23  24
ENDBRANCH  22  23
ENDBRANCH   4  22
TORSDOF 8
