REMARK  Name = ZINC19630560
REMARK  14 active torsions:
REMARK  status: ('A' for Active; 'I' for Inactive)
REMARK    1  A    between atoms: C_1  and  C_2
REMARK    2  A    between atoms: C_5  and  N_9
REMARK    3  A    between atoms: C_7  and  C_8
REMARK    4  A    between atoms: N_9  and  C_10
REMARK    5  A    between atoms: C_10  and  N_12
REMARK    6  A    between atoms: N_12  and  C_13
REMARK    7  A    between atoms: N_12  and  C_22
REMARK    8  A    between atoms: C_13  and  C_14
REMARK    9  A    between atoms: C_17  and  O_20
REMARK   10  A    between atoms: O_20  and  C_21
REMARK   11  A    between atoms: C_24  and  C_30
REMARK   12  A    between atoms: C_24  and  C_31
REMARK   13  A    between atoms: C_26  and  C_28
REMARK   14  A    between atoms: C_26  and  C_29
REMARK                            x       y       z     vdW  Elec       q    Type
REMARK                         _______ _______ _______ _____ _____    ______ ____
ROOT
ATOM      1  N   UNL     1       1.240   2.655  -3.024  0.00  0.00    -0.305 N 
ENDROOT
BRANCH   1   2
ATOM      2  C   UNL     1       0.551   1.956  -1.932  0.00  0.00    +0.073 C 
ATOM      3  C   UNL     1      -0.907   2.410  -1.884  0.00  0.00    +0.009 C 
ATOM      4  C   UNL     1      -1.644   1.713  -0.743  0.00  0.00    -0.072 C 
ATOM      5  N   UNL     1      -0.933   1.788   0.516  0.00  0.00    +0.386 N 
ATOM      6  C   UNL     1       0.505   1.622   0.554  0.00  0.00    -0.072 C 
ATOM      7  C   UNL     1       1.216   2.318  -0.604  0.00  0.00    +0.009 C 
ATOM      8  C   UNL     1       1.029   2.248   1.865  0.00  0.00    -0.010 C 
ATOM      9  C   UNL     1       0.891   0.138   0.574  0.00  0.00    -0.010 C 
ATOM     10  C   UNL     1      -1.931   0.258  -1.131  0.00  0.00    -0.010 C 
ATOM     11  C   UNL     1      -3.007   2.418  -0.570  0.00  0.00    -0.010 C 
ATOM     12  H   UNL     1      -1.095   2.776   0.971  0.00  0.00    -0.084 HD
ATOM     13  H   UNL     1      -1.305   1.006   1.195  0.00  0.00    -0.084 HD
ENDBRANCH   1   2
BRANCH   1  14
ATOM     14  C   UNL     1       1.830   1.950  -4.010  0.00  0.00    +0.138 C 
ATOM     15  S   UNL     1       2.720   2.761  -5.227  0.00  0.00    -0.018 S 
BRANCH  14  16
ATOM     16  N   UNL     1       1.719   0.607  -4.037  0.00  0.00    -0.297 N 
ATOM     17  H   UNL     1       1.092   0.123  -4.799  0.00  0.00    +0.154 HD
BRANCH  16  22
ATOM     18  C   UNL     1       4.489  -2.545  -0.219  0.00  0.00    +0.044 C 
ATOM     19  C   UNL     1       3.753  -1.707  -1.233  0.00  0.00    -0.047 A 
ATOM     20  C   UNL     1       3.899  -0.332  -1.229  0.00  0.00    +0.005 A 
ATOM     21  C   UNL     1       3.230   0.438  -2.160  0.00  0.00    +0.023 A 
ATOM     22  C   UNL     1       2.402  -0.170  -3.095  0.00  0.00    +0.033 A 
ATOM     23  C   UNL     1       2.257  -1.551  -3.097  0.00  0.00    +0.027 A 
ATOM     24  C   UNL     1       2.933  -2.316  -2.166  0.00  0.00    -0.046 A 
ATOM     25  C   UNL     1       2.777  -3.814  -2.167  0.00  0.00    +0.044 C 
ENDBRANCH  16  22
ENDBRANCH  14  16
ENDBRANCH   1  14
BRANCH   1  26
ATOM     26  C   UNL     1       1.286   4.120  -3.042  0.00  0.00    +0.142 C 
BRANCH  26  27
ATOM     27  C   UNL     1       2.535   4.592  -2.344  0.00  0.00    -0.030 A 
ATOM     28  C   UNL     1       2.477   4.993  -1.022  0.00  0.00    +0.009 A 
ATOM     29  C   UNL     1       3.622   5.421  -0.378  0.00  0.00    +0.046 A 
ATOM     30  C   UNL     1       4.828   5.458  -1.062  0.00  0.00    +0.120 A 
ATOM     31  C   UNL     1       4.883   5.061  -2.390  0.00  0.00    +0.046 A 
ATOM     32  C   UNL     1       3.736   4.628  -3.028  0.00  0.00    +0.009 A 
BRANCH  30  33
ATOM     33  O   UNL     1       5.955   5.884  -0.433  0.00  0.00    -0.495 OA
ATOM     34  C   UNL     1       5.824   6.279   0.934  0.00  0.00    +0.277 C 
ENDBRANCH  30  33
ENDBRANCH  26  27
ENDBRANCH   1  26
TORSDOF 7
