REMARK  Name = ZINC42029061
REMARK  4 active torsions:
REMARK  status: ('A' for Active; 'I' for Inactive)
REMARK    1  A    between atoms: C_1  and  C_2
REMARK    2  A    between atoms: C_7  and  N_8
REMARK    3  A    between atoms: C_9  and  C_13
REMARK    4  A    between atoms: C_17  and  N_19
REMARK                            x       y       z     vdW  Elec       q    Type
REMARK                         _______ _______ _______ _____ _____    ______ ____
ROOT
ATOM      1  N   UNL     1       0.554   0.176   2.353  0.00  0.00    -0.192 N 
ATOM      2  C   UNL     1       0.378  -0.338   3.604  0.00  0.00    +0.187 A 
ATOM      3  N   UNL     1       0.001   0.658   4.378  0.00  0.00    -0.108 NA
ATOM      4  N   UNL     1      -0.071   1.749   3.704  0.00  0.00    -0.022 NA
ATOM      5  N   UNL     1       0.253   1.544   2.474  0.00  0.00    -0.039 NA
ENDROOT
BRANCH   1  12
ATOM      6  C   UNL     1      -1.036   0.446   0.008  0.00  0.00    +0.046 C 
ATOM      7  C   UNL     1       0.207  -0.405   0.033  0.00  0.00    -0.025 A 
ATOM      8  C   UNL     1       0.607  -1.077  -1.106  0.00  0.00    +0.006 A 
ATOM      9  C   UNL     1       1.747  -1.859  -1.085  0.00  0.00    +0.015 A 
ATOM     10  C   UNL     1       2.491  -1.970   0.076  0.00  0.00    +0.020 A 
ATOM     11  C   UNL     1       2.096  -1.300   1.218  0.00  0.00    +0.043 A 
ATOM     12  C   UNL     1       0.955  -0.510   1.198  0.00  0.00    +0.073 A 
ATOM     13 BR   UNL     1       4.050  -3.041   0.101  0.00  0.00    -0.050 Br
ENDBRANCH   1  12
BRANCH   2  14
ATOM     14  C   UNL     1       0.573  -1.747   4.013  0.00  0.00    +0.023 A 
ATOM     15  C   UNL     1       0.353  -2.778   3.099  0.00  0.00    +0.013 A 
ATOM     16  C   UNL     1       0.536  -4.091   3.483  0.00  0.00    +0.018 A 
ATOM     17  C   UNL     1       0.937  -4.390   4.772  0.00  0.00    +0.039 A 
ATOM     18  C   UNL     1       1.159  -3.369   5.690  0.00  0.00    +0.039 A 
ATOM     19  C   UNL     1       0.984  -2.047   5.311  0.00  0.00    +0.035 A 
ATOM     20 BR   UNL     1       1.184  -6.192   5.289  0.00  0.00    -0.048 Br
BRANCH  18  21
ATOM     21  N   UNL     1       1.565  -3.675   6.992  0.00  0.00    -0.357 N 
ATOM     22  H   UNL     1       1.691  -4.600   7.255  0.00  0.00    +0.142 HD
ATOM     23  H   UNL     1       1.719  -2.963   7.632  0.00  0.00    +0.142 HD
ENDBRANCH  18  21
ENDBRANCH   2  14
TORSDOF 3
