REMARK  Name = ZINC21595749
REMARK  7 active torsions:
REMARK  status: ('A' for Active; 'I' for Inactive)
REMARK    1  A    between atoms: C_1  and  C_2
REMARK    2  A    between atoms: C_5  and  C_8
REMARK    3  A    between atoms: N_13  and  C_16
REMARK    4  A    between atoms: C_19  and  N_22
REMARK    5  A    between atoms: N_22  and  C_23
REMARK    6  A    between atoms: C_23  and  N_25
REMARK    7  A    between atoms: C_26  and  C_28
REMARK                            x       y       z     vdW  Elec       q    Type
REMARK                         _______ _______ _______ _____ _____    ______ ____
ROOT
ATOM      1  C   UNL     1       0.826  10.098  -2.443  0.00  0.00    +0.030 A 
ATOM      2  C   UNL     1       0.070   9.110  -3.061  0.00  0.00    +0.025 A 
ATOM      3  C   UNL     1       0.682   7.964  -3.529  0.00  0.00    +0.025 A 
ATOM      4  C   UNL     1       2.053   7.799  -3.381  0.00  0.00    +0.033 A 
ATOM      5  C   UNL     1       2.808   8.784  -2.759  0.00  0.00    +0.025 A 
ATOM      6  C   UNL     1       2.197   9.932  -2.296  0.00  0.00    +0.025 A 
ENDROOT
BRANCH   1  12
ATOM      7  C   UNL     1      -0.405  15.287  -1.903  0.00  0.00    +0.247 C 
ATOM      8  O   UNL     1       0.425  15.975  -1.341  0.00  0.00    -0.270 OA
ATOM      9  N   UNL     1      -0.434  13.957  -1.688  0.00  0.00    -0.295 N 
ATOM     10  C   UNL     1       0.449  13.334  -0.691  0.00  0.00    +0.127 C 
ATOM     11  C   UNL     1       1.185  12.165  -1.354  0.00  0.00    +0.124 C 
ATOM     12  N   UNL     1       0.206  11.259  -1.969  0.00  0.00    -0.327 N 
ATOM     13  C   UNL     1      -0.542  11.931  -3.040  0.00  0.00    +0.124 C 
ATOM     14  C   UNL     1      -1.349  13.090  -2.446  0.00  0.00    +0.127 C 
BRANCH   7  19
ATOM     15  C   UNL     1      -4.208  17.707  -5.480  0.00  0.00    +0.044 C 
ATOM     16  C   UNL     1      -3.212  17.074  -4.543  0.00  0.00    -0.050 A 
ATOM     17  C   UNL     1      -1.925  17.575  -4.464  0.00  0.00    +0.004 A 
ATOM     18  C   UNL     1      -1.008  16.999  -3.609  0.00  0.00    +0.013 A 
ATOM     19  C   UNL     1      -1.382  15.909  -2.821  0.00  0.00    +0.037 A 
ATOM     20  C   UNL     1      -2.681  15.405  -2.909  0.00  0.00    +0.013 A 
ATOM     21  C   UNL     1      -3.589  15.993  -3.765  0.00  0.00    +0.004 A 
ENDBRANCH   7  19
ENDBRANCH   1  12
BRANCH   4  22
ATOM     22  N   UNL     1       2.673   6.636  -3.856  0.00  0.00    -0.297 N 
ATOM     23  H   UNL     1       3.409   6.110  -3.229  0.00  0.00    +0.154 HD
BRANCH  22  24
ATOM     24  C   UNL     1       2.369   6.161  -5.080  0.00  0.00    +0.141 C 
ATOM     25  S   UNL     1       1.145   6.914  -6.010  0.00  0.00    -0.018 S 
BRANCH  24  26
ATOM     26  N   UNL     1       3.029   5.093  -5.572  0.00  0.00    -0.264 N 
ATOM     27  C   UNL     1       2.724   4.619  -6.796  0.00  0.00    +0.250 C 
ATOM     28  O   UNL     1       1.855   5.153  -7.456  0.00  0.00    -0.270 OA
ATOM     29  H   UNL     1       3.815   4.610  -4.974  0.00  0.00    +0.157 HD
BRANCH  27  30
ATOM     30  C   UNL     1       3.447   3.450  -7.335  0.00  0.00    +0.039 A 
ATOM     31  C   UNL     1       4.452   2.839  -6.560  0.00  0.00    +0.015 A 
ATOM     32  C   UNL     1       5.136   1.768  -7.015  0.00  0.00    +0.031 A 
ATOM     33  C   UNL     1       4.855   1.227  -8.299  0.00  0.00    +0.100 A 
ATOM     34  C   UNL     1       3.815   1.851  -9.112  0.00  0.00    +0.101 A 
ATOM     35  C   UNL     1       3.127   2.973  -8.589  0.00  0.00    +0.043 A 
ATOM     36  N   UNL     1       3.662   1.238 -10.286  0.00  0.00    -0.191 NA
ATOM     37  S   UNL     1       4.699   0.064 -10.303  0.00  0.00    +0.116 S 
ATOM     38  N   UNL     1       5.414   0.188  -8.915  0.00  0.00    -0.191 NA
ENDBRANCH  27  30
ENDBRANCH  24  26
ENDBRANCH  22  24
ENDBRANCH   4  22
TORSDOF 6
