REMARK  Name = ZINC38547922
REMARK  8 active torsions:
REMARK  status: ('A' for Active; 'I' for Inactive)
REMARK    1  A    between atoms: C_1  and  C_2
REMARK    2  A    between atoms: C_2  and  C_3
REMARK    3  A    between atoms: C_5  and  C_16
REMARK    4  A    between atoms: C_6  and  N_8
REMARK    5  A    between atoms: C_9  and  C_11
REMARK    6  A    between atoms: C_16  and  C_18
REMARK    7  A    between atoms: C_16  and  N_27
REMARK    8  A    between atoms: C_32  and  C_34
REMARK                            x       y       z     vdW  Elec       q    Type
REMARK                         _______ _______ _______ _____ _____    ______ ____
ROOT
ATOM      1  C   UNL     1       3.909  -1.511  -2.897  0.00  0.00    +0.135 C 
ENDROOT
BRANCH   1   2
ATOM      2  N   UNL     1       4.551  -1.854  -1.626  0.00  0.00    -0.320 N 
ATOM      3  C   UNL     1       5.687  -2.655  -1.615  0.00  0.00    +0.097 A 
ATOM      4  C   UNL     1       6.213  -3.122  -2.815  0.00  0.00    +0.041 A 
ATOM      5  C   UNL     1       7.344  -3.918  -2.790  0.00  0.00    +0.005 A 
ATOM      6  C   UNL     1       7.913  -4.220  -1.560  0.00  0.00    +0.021 A 
ATOM      7  C   UNL     1       7.339  -3.723  -0.408  0.00  0.00    +0.014 A 
ATOM      8  N   UNL     1       6.263  -2.961  -0.462  0.00  0.00    -0.347 N 
ATOM      9  C   UNL     1       7.953  -4.048   0.930  0.00  0.00    +0.063 C 
ATOM     10  H   UNL     1       4.183  -1.523  -0.791  0.00  0.00    +0.148 HD
ATOM     11  H   UNL     1       5.881  -2.621   0.362  0.00  0.00    +0.167 HD
ENDBRANCH   1   2
BRANCH   1  12
ATOM     12  C   UNL     1       4.588  -0.305  -3.493  0.00  0.00    -0.019 A 
ATOM     13  C   UNL     1       4.985   0.737  -2.677  0.00  0.00    +0.009 A 
ATOM     14  C   UNL     1       5.609   1.845  -3.219  0.00  0.00    +0.050 A 
ATOM     15  C   UNL     1       5.837   1.913  -4.584  0.00  0.00    +0.166 A 
ATOM     16  C   UNL     1       5.437   0.864  -5.407  0.00  0.00    +0.167 A 
ATOM     17  C   UNL     1       4.817  -0.246  -4.855  0.00  0.00    +0.055 A 
ATOM     18  O   UNL     1       5.770   1.168  -6.695  0.00  0.00    -0.453 OA
ATOM     19  C   UNL     1       6.008   2.588  -6.706  0.00  0.00    +0.466 C 
ATOM     20  O   UNL     1       6.421   2.875  -5.357  0.00  0.00    -0.453 OA
ENDBRANCH   1  12
BRANCH   1  23
ATOM     21  C   UNL     1       0.707  -0.490  -1.238  0.00  0.00    -0.008 A 
ATOM     22  C   UNL     1       2.022  -0.760  -1.419  0.00  0.00    +0.019 A 
ATOM     23  C   UNL     1       2.454  -1.201  -2.657  0.00  0.00    +0.006 A 
ATOM     24  C   UNL     1       1.539  -1.349  -3.656  0.00  0.00    +0.078 A 
ATOM     25  S   UNL     1       0.024  -0.865  -2.844  0.00  0.00    -0.078 S 
BRANCH  24  26
ATOM     26  N   UNL     1       1.734  -1.773  -4.972  0.00  0.00    -0.273 N 
ATOM     27  C   UNL     1       0.688  -1.853  -5.817  0.00  0.00    +0.284 C 
ATOM     28  O   UNL     1      -0.429  -1.555  -5.433  0.00  0.00    -0.266 OA
ATOM     29  H   UNL     1       2.624  -2.011  -5.278  0.00  0.00    +0.156 HD
BRANCH  27  30
ATOM     30  C   UNL     1       0.893  -2.299  -7.199  0.00  0.00    +0.189 A 
ATOM     31  C   UNL     1      -0.074  -2.420  -8.155  0.00  0.00    +0.054 A 
ATOM     32  C   UNL     1       0.564  -2.874  -9.320  0.00  0.00    +0.042 A 
ATOM     33  C   UNL     1       1.876  -3.009  -9.027  0.00  0.00    +0.196 A 
ATOM     34  O   UNL     1       2.071  -2.657  -7.749  0.00  0.00    -0.458 OA
ENDBRANCH  27  30
ENDBRANCH  24  26
BRANCH  21  36
ATOM     35  C   UNL     1      -0.019   1.526   0.010  0.00  0.00    +0.009 C 
ATOM     36  C   UNL     1       0.002  -0.004   0.002  0.00  0.00    +0.039 C 
ENDBRANCH  21  36
ENDBRANCH   1  23
TORSDOF 6
