REMARK  Name = ZINC38547733
REMARK  12 active torsions:
REMARK  status: ('A' for Active; 'I' for Inactive)
REMARK    1  A    between atoms: C_1  and  C_2
REMARK    2  A    between atoms: C_2  and  C_20
REMARK    3  A    between atoms: C_5  and  C_10
REMARK    4  A    between atoms: C_7  and  C_8
REMARK    5  A    between atoms: C_7  and  C_9
REMARK    6  A    between atoms: N_22  and  N_23
REMARK    7  A    between atoms: C_24  and  C_25
REMARK    8  A    between atoms: C_28  and  O_36
REMARK    9  A    between atoms: C_29  and  O_34
REMARK   10  A    between atoms: C_30  and  C_31
REMARK   11  A    between atoms: O_34  and  C_35
REMARK   12  A    between atoms: O_36  and  C_37
REMARK                            x       y       z     vdW  Elec       q    Type
REMARK                         _______ _______ _______ _____ _____    ______ ____
ROOT
ATOM      1  C   UNL     1      -1.459  -0.298  -0.321  0.00  0.00    +0.239 C 
ATOM      2  O   UNL     1      -1.744  -0.986  -1.278  0.00  0.00    -0.273 OA
ATOM      3  N   UNL     1      -2.416   0.068   0.556  0.00  0.00    -0.207 N 
ATOM      4  H   UNL     1      -2.200   0.669   1.286  0.00  0.00    +0.177 HD
ENDROOT
BRANCH   1   6
ATOM      5  C   UNL     1       0.018   1.670   0.049  0.00  0.00    +0.021 C 
ATOM      6  C   UNL     1      -0.035   0.149  -0.112  0.00  0.00    +0.052 C 
ATOM      7  C   UNL     1       0.837  -0.287  -1.307  0.00  0.00    +0.017 C 
ATOM      8  C   UNL     1       2.193  -0.673  -0.666  0.00  0.00    +0.013 C 
ATOM      9  C   UNL     1       1.764  -1.361   0.654  0.00  0.00    +0.062 C 
ATOM     10  C   UNL     1       0.554  -0.534   1.135  0.00  0.00    -0.012 C 
ATOM     11  C   UNL     1       1.009   0.522   2.145  0.00  0.00    +0.012 C 
ATOM     12  C   UNL     1      -0.490  -1.453   1.771  0.00  0.00    +0.012 C 
BRANCH   9  13
ATOM     13  C   UNL     1       2.880  -1.305   1.665  0.00  0.00    +0.112 A 
ATOM     14  N   UNL     1       3.770  -0.283   1.788  0.00  0.00    -0.342 N 
ATOM     15  H   UNL     1       3.796   0.524   1.250  0.00  0.00    +0.167 HD
ATOM     16  C   UNL     1       4.627  -0.607   2.821  0.00  0.00    +0.066 A 
ATOM     17  C   UNL     1       5.717   0.023   3.406  0.00  0.00    +0.028 A 
ATOM     18  C   UNL     1       6.377  -0.586   4.452  0.00  0.00    +0.002 A 
ATOM     19  C   UNL     1       5.959  -1.823   4.922  0.00  0.00    +0.002 A 
ATOM     20  C   UNL     1       4.889  -2.458   4.358  0.00  0.00    +0.030 A 
ATOM     21  C   UNL     1       4.204  -1.859   3.297  0.00  0.00    +0.089 A 
ATOM     22  N   UNL     1       3.130  -2.224   2.551  0.00  0.00    -0.232 NA
ENDBRANCH   9  13
ENDBRANCH   1   6
BRANCH   3  23
ATOM     23  N   UNL     1      -3.721  -0.421   0.413  0.00  0.00    -0.188 NA
ATOM     24  C   UNL     1      -4.643  -0.069   1.258  0.00  0.00    +0.139 C 
BRANCH  24  25
ATOM     25  C   UNL     1      -6.013  -0.583   1.107  0.00  0.00    +0.012 A 
ATOM     26  C   UNL     1      -6.361  -1.333  -0.014  0.00  0.00    +0.014 A 
ATOM     27  C   UNL     1      -7.647  -1.816  -0.156  0.00  0.00    +0.050 A 
ATOM     28  C   UNL     1      -8.606  -1.560   0.812  0.00  0.00    +0.162 A 
ATOM     29  C   UNL     1      -8.284  -0.813   1.942  0.00  0.00    +0.176 A 
ATOM     30  C   UNL     1      -6.982  -0.322   2.103  0.00  0.00    +0.117 A 
BRANCH  30  31
ATOM     31  C   UNL     1      -6.629   0.462   3.293  0.00  0.00    +0.391 C 
ATOM     32  O   UNL     1      -5.522   0.978   3.380  0.00  0.00    -0.240 OA
ATOM     33  O   UNL     1      -7.441   0.599   4.198  0.00  0.00    -0.240 OA
ENDBRANCH  30  31
BRANCH  29  34
ATOM     34  O   UNL     1      -9.226  -0.566   2.886  0.00  0.00    -0.491 OA
ATOM     35  C   UNL     1      -9.345  -1.515   3.948  0.00  0.00    +0.277 C 
ENDBRANCH  29  34
BRANCH  28  36
ATOM     36  O   UNL     1      -9.868  -2.042   0.657  0.00  0.00    -0.491 OA
ATOM     37  C   UNL     1     -10.133  -2.800  -0.525  0.00  0.00    +0.277 C 
ENDBRANCH  28  36
ENDBRANCH  24  25
ENDBRANCH   3  23
TORSDOF 7
