REMARK  Name = ZINC13981838
REMARK  8 active torsions:
REMARK  status: ('A' for Active; 'I' for Inactive)
REMARK    1  A    between atoms: C_4  and  N_7
REMARK    2  A    between atoms: N_7  and  S_8
REMARK    3  A    between atoms: S_8  and  C_11
REMARK    4  A    between atoms: C_14  and  N_17
REMARK    5  A    between atoms: N_17  and  C_18
REMARK    6  A    between atoms: C_18  and  N_20
REMARK    7  A    between atoms: C_21  and  C_23
REMARK    8  A    between atoms: C_24  and  C_25
REMARK                            x       y       z     vdW  Elec       q    Type
REMARK                         _______ _______ _______ _____ _____    ______ ____
ROOT
ATOM      1  N   UNL     1      -2.218   1.457   0.161  0.00  0.00    -0.297 N 
ATOM      2  H   UNL     1      -2.095   0.510   0.329  0.00  0.00    +0.154 HD
ENDROOT
BRANCH   1   6
ATOM      3  C   UNL     1      -6.010   3.154   0.467  0.00  0.00    +0.109 A 
ATOM      4  C   UNL     1      -5.203   3.459  -0.613  0.00  0.00    +0.030 A 
ATOM      5  C   UNL     1      -3.945   2.899  -0.717  0.00  0.00    +0.025 A 
ATOM      6  C   UNL     1      -3.491   2.027   0.264  0.00  0.00    +0.033 A 
ATOM      7  C   UNL     1      -4.307   1.718   1.345  0.00  0.00    +0.025 A 
ATOM      8  C   UNL     1      -5.562   2.285   1.446  0.00  0.00    +0.030 A 
BRANCH   3   9
ATOM      9  S   UNL     1      -7.614   3.871   0.597  0.00  0.00    +0.072 S 
ATOM     10  O   UNL     1      -7.915   3.947   1.984  0.00  0.00    -0.150 OA
ATOM     11  O   UNL     1      -7.617   5.014  -0.247  0.00  0.00    -0.150 OA
BRANCH   9  12
ATOM     12  N   UNL     1      -8.687   2.795  -0.061  0.00  0.00    -0.216 N 
ATOM     13  H   UNL     1      -9.172   3.025  -0.869  0.00  0.00    +0.174 HD
BRANCH  12  17
ATOM     14  C   UNL     1      -9.304  -0.903   1.752  0.00  0.00    +0.000 A 
ATOM     15  C   UNL     1      -9.826   0.243   2.325  0.00  0.00    +0.002 A 
ATOM     16  C   UNL     1      -9.623   1.470   1.727  0.00  0.00    +0.024 A 
ATOM     17  C   UNL     1      -8.894   1.554   0.547  0.00  0.00    +0.048 A 
ATOM     18  C   UNL     1      -8.376   0.401  -0.029  0.00  0.00    +0.024 A 
ATOM     19  C   UNL     1      -8.578  -0.823   0.578  0.00  0.00    +0.002 A 
ENDBRANCH  12  17
ENDBRANCH   9  12
ENDBRANCH   3   9
ENDBRANCH   1   6
BRANCH   1  20
ATOM     20  C   UNL     1      -1.161   2.225  -0.171  0.00  0.00    +0.141 C 
ATOM     21  S   UNL     1      -1.393   3.873  -0.574  0.00  0.00    -0.018 S 
BRANCH  20  22
ATOM     22  N   UNL     1       0.078   1.696  -0.186  0.00  0.00    -0.264 N 
ATOM     23  C   UNL     1       1.134   2.462  -0.524  0.00  0.00    +0.242 C 
ATOM     24  O   UNL     1       0.969   3.633  -0.810  0.00  0.00    -0.270 OA
ATOM     25  H   UNL     1       0.209   0.762   0.042  0.00  0.00    +0.157 HD
BRANCH  23  26
ATOM     26  C   UNL     1       2.477   1.886  -0.546  0.00  0.00    +0.068 C 
ATOM     27  C   UNL     1       3.537   2.655  -0.885  0.00  0.00    +0.013 C 
BRANCH  27  28
ATOM     28  C   UNL     1       4.885   2.077  -0.908  0.00  0.00    -0.017 A 
ATOM     29  C   UNL     1       5.090   0.739  -0.583  0.00  0.00    +0.008 A 
ATOM     30  C   UNL     1       6.367   0.196  -0.605  0.00  0.00    +0.001 A 
ATOM     31  C   UNL     1       7.458   0.939  -0.941  0.00  0.00    +0.008 A 
ATOM     32  C   UNL     1       7.326   2.296  -1.280  0.00  0.00    -0.017 A 
ATOM     33  C   UNL     1       6.042   2.893  -1.278  0.00  0.00    -0.011 A 
ATOM     34  C   UNL     1       5.905   4.242  -1.621  0.00  0.00    +0.009 A 
ATOM     35  C   UNL     1       7.009   4.966  -1.960  0.00  0.00    +0.001 A 
ATOM     36  C   UNL     1       8.273   4.382  -1.969  0.00  0.00    +0.001 A 
ATOM     37  C   UNL     1       8.443   3.074  -1.629  0.00  0.00    +0.008 A 
ENDBRANCH  27  28
ENDBRANCH  23  26
ENDBRANCH  20  22
ENDBRANCH   1  20
TORSDOF 8
