REMARK  Name = ZINC41991885
REMARK  6 active torsions:
REMARK  status: ('A' for Active; 'I' for Inactive)
REMARK    1  A    between atoms: C_1  and  C_2
REMARK    2  A    between atoms: C_2  and  C_3
REMARK    3  A    between atoms: C_2  and  C_11
REMARK    4  A    between atoms: C_2  and  S_14
REMARK    5  A    between atoms: S_14  and  C_15
REMARK    6  A    between atoms: N_19  and  N_20
REMARK                            x       y       z     vdW  Elec       q    Type
REMARK                         _______ _______ _______ _____ _____    ______ ____
ROOT
ATOM      1  C   UNL     1      -0.116   1.519   0.078  0.00  0.00    +0.040 C 
ATOM      2  C   UNL     1       0.002  -0.004   0.002  0.00  0.00    +0.152 C 
ENDROOT
BRANCH   2   3
ATOM      3  C   UNL     1       0.835  -0.501   1.155  0.00  0.00    +0.050 A 
ATOM      4  C   UNL     1       0.613  -1.765   1.676  0.00  0.00    +0.131 A 
ATOM      5  C   UNL     1       1.379  -2.221   2.736  0.00  0.00    +0.039 A 
ATOM      6  C   UNL     1       2.364  -1.415   3.274  0.00  0.00    +0.006 A 
ATOM      7  C   UNL     1       2.587  -0.153   2.755  0.00  0.00    +0.039 A 
ATOM      8  C   UNL     1       1.826   0.302   1.691  0.00  0.00    +0.131 A 
ATOM      9  F   UNL     1       2.048   1.533   1.180  0.00  0.00    -0.205 F 
ATOM     10  F   UNL     1      -0.351  -2.552   1.151  0.00  0.00    -0.205 F 
ENDBRANCH   2   3
BRANCH   2  11
ATOM     11  C   UNL     1      -1.372  -0.619   0.073  0.00  0.00    +0.376 C 
ATOM     12  O   UNL     1      -1.779  -1.308  -0.847  0.00  0.00    -0.244 OA
ATOM     13  O   UNL     1      -2.076  -0.426   1.049  0.00  0.00    -0.244 OA
ENDBRANCH   2  11
BRANCH   2  14
ATOM     14  S   UNL     1       0.794  -0.472  -1.562  0.00  0.00    -0.061 S 
BRANCH  14  15
ATOM     15  C   UNL     1      -0.286   0.173  -2.796  0.00  0.00    +0.209 A 
ATOM     16  N   UNL     1      -1.397   0.840  -2.589  0.00  0.00    -0.121 NA
ATOM     17  N   UNL     1      -1.932   1.157  -3.714  0.00  0.00    -0.135 NA
ATOM     18  C   UNL     1      -1.199   0.716  -4.697  0.00  0.00    +0.244 A 
ATOM     19  N   UNL     1      -0.122   0.078  -4.148  0.00  0.00    -0.231 N 
BRANCH  19  20
ATOM     20  N   UNL     1       0.904  -0.530  -4.814  0.00  0.00    -0.295 N 
ATOM     21  H   UNL     1       0.694  -1.501  -4.992  0.00  0.00    +0.163 HD
ATOM     22  H   UNL     1       1.118  -0.044  -5.671  0.00  0.00    +0.163 HD
ENDBRANCH  19  20
ENDBRANCH  14  15
ENDBRANCH   2  14
TORSDOF 5
