REMARK  Name = ZINC39685761
REMARK  12 active torsions:
REMARK  status: ('A' for Active; 'I' for Inactive)
REMARK    1  A    between atoms: C_1  and  C_2
REMARK    2  A    between atoms: C_2  and  C_3
REMARK    3  A    between atoms: C_2  and  C_4
REMARK    4  A    between atoms: C_4  and  C_6
REMARK    5  A    between atoms: C_4  and  N_13
REMARK    6  A    between atoms: N_8  and  C_9
REMARK    7  A    between atoms: C_9  and  C_10
REMARK    8  A    between atoms: C_9  and  C_11
REMARK    9  A    between atoms: C_9  and  C_12
REMARK   10  A    between atoms: C_14  and  C_16
REMARK   11  A    between atoms: C_27  and  C_29
REMARK   12  A    between atoms: C_31  and  C_36
REMARK                            x       y       z     vdW  Elec       q    Type
REMARK                         _______ _______ _______ _____ _____    ______ ____
ROOT
ATOM      1  C   UNL     1       0.577  -4.338   1.818  0.00  0.00    +0.100 C 
ATOM      2  C   UNL     1       1.783  -4.112   0.879  0.00  0.00    +0.121 C 
ATOM      3  N   UNL     1       2.884  -3.692   1.777  0.00  0.00    -0.296 N 
ATOM      4  C   UNL     1       2.722  -4.543   2.981  0.00  0.00    +0.115 C 
ATOM      5  C   UNL     1       1.198  -4.624   3.196  0.00  0.00    -0.004 C 
ATOM      6  C   UNL     1       0.805  -6.019   3.673  0.00  0.00    -0.010 C 
ATOM      7  C   UNL     1       1.385  -6.258   5.069  0.00  0.00    -0.082 C 
ATOM      8  N   UNL     1       0.873  -5.241   5.995  0.00  0.00    +0.379 N 
ATOM      9  C   UNL     1       1.334  -3.910   5.581  0.00  0.00    -0.082 C 
ATOM     10  C   UNL     1       0.751  -3.571   4.205  0.00  0.00    -0.010 C 
ATOM     11  C   UNL     1       3.821  -2.751   1.552  0.00  0.00    +0.247 C 
ATOM     12  O   UNL     1       3.755  -2.053   0.558  0.00  0.00    -0.270 OA
ATOM     13  H   UNL     1      -0.136  -5.262   5.992  0.00  0.00    -0.086 HD
ATOM     14  H   UNL     1       1.208  -5.436   6.926  0.00  0.00    -0.086 HD
ENDROOT
BRANCH  11  15
ATOM     15  C   UNL     1       4.930  -2.566   2.512  0.00  0.00    +0.040 A 
ATOM     16  C   UNL     1       5.295  -3.605   3.369  0.00  0.00    +0.025 A 
ATOM     17  C   UNL     1       6.331  -3.427   4.264  0.00  0.00    +0.058 A 
ATOM     18  C   UNL     1       7.008  -2.222   4.313  0.00  0.00    +0.050 A 
ATOM     19  C   UNL     1       6.651  -1.185   3.466  0.00  0.00    +0.125 A 
ATOM     20  C   UNL     1       5.619  -1.353   2.562  0.00  0.00    +0.051 A 
ATOM     21  F   UNL     1       7.315  -0.010   3.521  0.00  0.00    -0.205 F 
BRANCH  17  22
ATOM     22  C   UNL     1       6.725  -4.549   5.189  0.00  0.00    +0.418 C 
ATOM     23  F   UNL     1       7.702  -5.340   4.574  0.00  0.00    -0.166 F 
ATOM     24  F   UNL     1       7.237  -4.016   6.377  0.00  0.00    -0.166 F 
ATOM     25  F   UNL     1       5.603  -5.334   5.476  0.00  0.00    -0.166 F 
ENDBRANCH  17  22
ENDBRANCH  11  15
BRANCH   1  27
ATOM     26  N   UNL     1      -1.593  -3.204   2.170  0.00  0.00    -0.303 N 
ATOM     27  C   UNL     1      -0.281  -3.101   1.876  0.00  0.00    +0.219 C 
ATOM     28  O   UNL     1       0.207  -2.013   1.659  0.00  0.00    -0.275 OA
ATOM     29  H   UNL     1      -1.984  -4.075   2.344  0.00  0.00    +0.149 HD
BRANCH  26  30
ATOM     30  C   UNL     1      -2.428  -2.002   2.226  0.00  0.00    +0.161 C 
BRANCH  30  31
ATOM     31  C   UNL     1      -3.611  -2.253   3.125  0.00  0.00    +0.234 C 
ATOM     32  O   UNL     1      -3.960  -3.390   3.364  0.00  0.00    -0.274 OA
ATOM     33  N   UNL     1      -4.281  -1.215   3.663  0.00  0.00    -0.309 N 
ATOM     34  H   UNL     1      -3.962  -0.309   3.528  0.00  0.00    +0.149 HD
BRANCH  33  35
ATOM     35  C   UNL     1      -5.492  -1.455   4.452  0.00  0.00    +0.026 C 
ATOM     36  C   UNL     1      -5.151  -2.338   5.654  0.00  0.00    +0.031 C 
ATOM     37  C   UNL     1      -6.054  -0.120   4.943  0.00  0.00    +0.031 C 
ATOM     38  C   UNL     1      -6.536  -2.159   3.582  0.00  0.00    +0.031 C 
ENDBRANCH  33  35
ENDBRANCH  30  31
BRANCH  30  40
ATOM     39  C   UNL     1      -1.726  -1.276  -0.059  0.00  0.00    +0.009 C 
ATOM     40  C   UNL     1      -2.920  -1.656   0.820  0.00  0.00    +0.012 C 
ATOM     41  C   UNL     1      -3.632  -2.868   0.216  0.00  0.00    +0.009 C 
ENDBRANCH  30  40
ENDBRANCH  26  30
ENDBRANCH   1  27
TORSDOF 7
