REMARK  Name = ZINC67610236
REMARK  5 active torsions:
REMARK  status: ('A' for Active; 'I' for Inactive)
REMARK    1  A    between atoms: C_1  and  C_2
REMARK    2  A    between atoms: C_4  and  C_7
REMARK    3  A    between atoms: C_7  and  N_8
REMARK    4  A    between atoms: C_14  and  C_17
REMARK    5  A    between atoms: C_22  and  C_25
REMARK                            x       y       z     vdW  Elec       q    Type
REMARK                         _______ _______ _______ _____ _____    ______ ____
ROOT
ATOM      1  N   UNL     1      -3.016  -5.592  -0.615  0.00  0.00    -0.294 N 
ATOM      2  C   UNL     1      -2.442  -4.923  -1.635  0.00  0.00    +0.303 C 
ATOM      3  O   UNL     1      -1.841  -3.888  -1.421  0.00  0.00    -0.253 OA
ATOM      4  N   UNL     1      -2.534  -5.402  -2.891  0.00  0.00    -0.286 N 
ATOM      5  C   UNL     1      -1.818  -4.750  -3.996  0.00  0.00    +0.110 C 
ATOM      6  C   UNL     1      -0.970  -5.799  -4.721  0.00  0.00    +0.032 C 
ATOM      7  C   UNL     1      -1.865  -6.963  -5.154  0.00  0.00    +0.078 C 
ATOM      8  C   UNL     1      -2.487  -7.616  -3.917  0.00  0.00    +0.032 C 
ATOM      9  C   UNL     1      -3.348  -6.591  -3.182  0.00  0.00    +0.110 C 
ATOM     10  H   UNL     1      -3.557  -6.377  -0.793  0.00  0.00    +0.151 HD
ENDROOT
BRANCH   7  11
ATOM     11  C   UNL     1      -1.040  -7.981  -5.898  0.00  0.00    +0.222 C 
ATOM     12  O   UNL     1       0.146  -7.794  -6.066  0.00  0.00    -0.275 OA
ATOM     13  N   UNL     1      -1.621  -9.099  -6.377  0.00  0.00    -0.264 N 
ATOM     14  C   UNL     1      -0.860 -10.038  -7.063  0.00  0.00    +0.165 A 
ATOM     15  N   UNL     1      -1.253 -11.173  -7.600  0.00  0.00    -0.230 NA
ATOM     16  C   UNL     1      -0.400 -11.963  -8.225  0.00  0.00    +0.047 A 
ATOM     17  C   UNL     1       0.891 -11.551  -8.286  0.00  0.00    +0.071 A 
ATOM     18  S   UNL     1       0.785  -9.996  -7.415  0.00  0.00    -0.060 S 
ATOM     19  C   UNL     1      -0.840 -13.265  -8.843  0.00  0.00    +0.066 C 
ATOM     20  H   UNL     1      -2.570  -9.248  -6.242  0.00  0.00    +0.157 HD
ENDBRANCH   7  11
BRANCH   1  21
ATOM     21  C   UNL     1      -2.823  -5.132   0.763  0.00  0.00    +0.164 C 
BRANCH  21  25
ATOM     22  C   UNL     1      -3.847  -8.913   4.020  0.00  0.00    +0.089 C 
ATOM     23  C   UNL     1      -3.993  -7.706   3.130  0.00  0.00    +0.135 A 
ATOM     24  C   UNL     1      -3.017  -7.147   2.388  0.00  0.00    +0.072 A 
ATOM     25  C   UNL     1      -3.564  -6.046   1.705  0.00  0.00    +0.101 A 
ATOM     26  N   UNL     1      -4.822  -5.953   2.030  0.00  0.00    -0.081 NA
ATOM     27  O   UNL     1      -5.118  -7.003   2.932  0.00  0.00    -0.360 OA
ENDBRANCH  21  25
ENDBRANCH   1  21
TORSDOF 3
