REMARK  Name = ZINC20572300
REMARK  6 active torsions:
REMARK  status: ('A' for Active; 'I' for Inactive)
REMARK    1  A    between atoms: C_1  and  C_2
REMARK    2  A    between atoms: N_12  and  S_13
REMARK    3  A    between atoms: S_13  and  C_16
REMARK    4  A    between atoms: C_19  and  N_22
REMARK    5  A    between atoms: N_22  and  S_23
REMARK    6  A    between atoms: S_23  and  C_26
REMARK                            x       y       z     vdW  Elec       q    Type
REMARK                         _______ _______ _______ _____ _____    ______ ____
ROOT
ATOM      1  C   UNL     1      -1.868   3.881   3.377  0.00  0.00    +0.109 A 
ATOM      2  C   UNL     1      -2.526   5.031   2.982  0.00  0.00    +0.031 A 
ATOM      3  C   UNL     1      -3.738   5.365   3.552  0.00  0.00    +0.028 A 
ATOM      4  C   UNL     1      -4.291   4.551   4.532  0.00  0.00    +0.074 A 
ATOM      5  C   UNL     1      -3.625   3.399   4.931  0.00  0.00    +0.028 A 
ATOM      6  C   UNL     1      -2.416   3.068   4.353  0.00  0.00    +0.031 A 
ENDROOT
BRANCH   1   7
ATOM      7  S   UNL     1      -0.325   3.454   2.642  0.00  0.00    +0.075 S 
ATOM      8  O   UNL     1       0.354   2.624   3.575  0.00  0.00    -0.150 OA
ATOM      9  O   UNL     1       0.237   4.661   2.147  0.00  0.00    -0.150 OA
BRANCH   7  20
ATOM     10  C   UNL     1      -0.190   0.604   2.801  0.00  0.00    +0.030 C 
ATOM     11  C   UNL     1      -0.781   1.052   1.462  0.00  0.00    +0.095 C 
ATOM     12  C   UNL     1      -0.006   0.402   0.309  0.00  0.00    +0.029 C 
ATOM     13  C   UNL     1      -0.653   0.807  -1.015  0.00  0.00    +0.039 C 
ATOM     14  C   UNL     1      -0.817   2.303  -1.086  0.00  0.00    -0.022 A 
ATOM     15  C   UNL     1      -0.970   2.901  -2.326  0.00  0.00    +0.043 A 
ATOM     16  C   UNL     1      -1.126   4.272  -2.424  0.00  0.00    +0.124 A 
ATOM     17  C   UNL     1      -1.130   5.054  -1.281  0.00  0.00    +0.040 A 
ATOM     18  C   UNL     1      -0.976   4.464  -0.043  0.00  0.00    +0.028 A 
ATOM     19  C   UNL     1      -0.818   3.086   0.057  0.00  0.00    +0.055 A 
ATOM     20  N   UNL     1      -0.655   2.509   1.323  0.00  0.00    -0.200 N 
ATOM     21  F   UNL     1      -1.274   4.849  -3.637  0.00  0.00    -0.205 F 
ENDBRANCH   7  20
ENDBRANCH   1   7
BRANCH   4  22
ATOM     22  N   UNL     1      -5.515   4.889   5.114  0.00  0.00    -0.097 NA
BRANCH  22  23
ATOM     23  S   UNL     1      -5.560   5.489   6.657  0.00  0.00    +0.098 S 
ATOM     24  O   UNL     1      -6.922   5.780   6.940  0.00  0.00    -0.148 OA
ATOM     25  O   UNL     1      -4.787   4.606   7.458  0.00  0.00    -0.148 OA
BRANCH  23  26
ATOM     26  C   UNL     1      -4.708   7.031   6.642  0.00  0.00    +0.149 A 
ATOM     27  C   UNL     1      -5.210   8.281   6.497  0.00  0.00    +0.038 A 
ATOM     28  C   UNL     1      -4.343   9.359   6.521  0.00  0.00    +0.030 A 
ATOM     29  C   UNL     1      -3.015   9.130   6.679  0.00  0.00    +0.080 A 
ATOM     30  S   UNL     1      -2.959   7.351   6.807  0.00  0.00    -0.057 S 
ATOM     31 CL   UNL     1      -1.709  10.272   6.739  0.00  0.00    -0.076 Cl
ENDBRANCH  23  26
ENDBRANCH  22  23
ENDBRANCH   4  22
TORSDOF 5
