REMARK  Name = ZINC16609324
REMARK  7 active torsions:
REMARK  status: ('A' for Active; 'I' for Inactive)
REMARK    1  A    between atoms: C_1  and  C_2
REMARK    2  A    between atoms: N_5  and  C_8
REMARK    3  A    between atoms: C_11  and  N_14
REMARK    4  A    between atoms: N_14  and  C_15
REMARK    5  A    between atoms: C_15  and  N_17
REMARK    6  A    between atoms: C_18  and  C_20
REMARK    7  A    between atoms: C_23  and  C_25
REMARK                            x       y       z     vdW  Elec       q    Type
REMARK                         _______ _______ _______ _____ _____    ______ ____
ROOT
ATOM      1  C   UNL     1       2.402   1.264  -6.704  0.00  0.00    +0.141 C 
ATOM      2  S   UNL     1       2.085   2.903  -6.325  0.00  0.00    -0.018 S 
ENDROOT
BRANCH   1   3
ATOM      3  N   UNL     1       2.986   0.944  -7.875  0.00  0.00    -0.261 N 
ATOM      4  C   UNL     1       3.322   1.915  -8.748  0.00  0.00    +0.285 C 
ATOM      5  O   UNL     1       3.097   3.080  -8.479  0.00  0.00    -0.266 OA
ATOM      6  H   UNL     1       3.166   0.016  -8.090  0.00  0.00    +0.157 HD
BRANCH   4   7
ATOM      7  C   UNL     1       3.957   1.567 -10.020  0.00  0.00    +0.190 A 
ATOM      8  C   UNL     1       4.350   2.456 -10.998  0.00  0.00    +0.055 A 
ATOM      9  C   UNL     1       4.907   1.697 -12.033  0.00  0.00    +0.050 A 
ATOM     10  C   UNL     1       4.835   0.387 -11.653  0.00  0.00    +0.136 A 
ATOM     11  O   UNL     1       4.266   0.322 -10.438  0.00  0.00    -0.450 OA
BRANCH  10  12
ATOM     12  C   UNL     1       5.310  -0.765 -12.445  0.00  0.00    +0.020 A 
ATOM     13  C   UNL     1       5.886  -0.564 -13.701  0.00  0.00    +0.031 A 
ATOM     14  C   UNL     1       6.332  -1.645 -14.434  0.00  0.00    +0.043 A 
ATOM     15  C   UNL     1       6.199  -2.928 -13.931  0.00  0.00    +0.040 A 
ATOM     16  C   UNL     1       5.624  -3.135 -12.689  0.00  0.00    +0.043 A 
ATOM     17  C   UNL     1       5.179  -2.062 -11.944  0.00  0.00    +0.031 A 
ATOM     18 CL   UNL     1       5.462  -4.748 -12.068  0.00  0.00    -0.083 Cl
ATOM     19 CL   UNL     1       7.054  -1.396 -15.993  0.00  0.00    -0.083 Cl
ENDBRANCH  10  12
ENDBRANCH   4   7
ENDBRANCH   1   3
BRANCH   1  20
ATOM     20  N   UNL     1       2.066   0.294  -5.831  0.00  0.00    -0.297 N 
ATOM     21  H   UNL     1       2.317  -0.626  -6.008  0.00  0.00    +0.154 HD
BRANCH  20  25
ATOM     22  C   UNL     1      -0.051   1.246  -2.366  0.00  0.00    +0.030 A 
ATOM     23  C   UNL     1       1.002   0.342  -2.310  0.00  0.00    +0.025 A 
ATOM     24  C   UNL     1       1.699   0.022  -3.458  0.00  0.00    +0.025 A 
ATOM     25  C   UNL     1       1.355   0.614  -4.667  0.00  0.00    +0.033 A 
ATOM     26  C   UNL     1       0.305   1.521  -4.722  0.00  0.00    +0.025 A 
ATOM     27  C   UNL     1      -0.396   1.837  -3.575  0.00  0.00    +0.025 A 
BRANCH  22  32
ATOM     28  C   UNL     1      -3.155   1.612   2.337  0.00  0.00    +0.007 C 
ATOM     29  C   UNL     1      -2.442   1.078   1.093  0.00  0.00    -0.011 C 
ATOM     30  C   UNL     1      -0.935   1.312   1.226  0.00  0.00    +0.022 C 
ATOM     31  C   UNL     1      -0.234   0.832  -0.046  0.00  0.00    +0.105 C 
ATOM     32  N   UNL     1      -0.761   1.566  -1.204  0.00  0.00    -0.330 N 
ATOM     33  C   UNL     1      -2.198   1.319  -1.380  0.00  0.00    +0.105 C 
ATOM     34  C   UNL     1      -2.957   1.814  -0.147  0.00  0.00    +0.022 C 
ENDBRANCH  22  32
ENDBRANCH  20  25
ENDBRANCH   1  20
TORSDOF 6
