REMARK  Name = ZINC33253049
REMARK  7 active torsions:
REMARK  status: ('A' for Active; 'I' for Inactive)
REMARK    1  A    between atoms: C_1  and  C_2
REMARK    2  A    between atoms: C_5  and  S_8
REMARK    3  A    between atoms: S_8  and  N_11
REMARK    4  A    between atoms: N_11  and  C_12
REMARK    5  A    between atoms: C_15  and  N_21
REMARK    6  A    between atoms: C_16  and  C_18
REMARK    7  A    between atoms: N_24  and  C_27
REMARK                            x       y       z     vdW  Elec       q    Type
REMARK                         _______ _______ _______ _____ _____    ______ ____
ROOT
ATOM      1  C   UNL     1       1.639  10.249  -1.021  0.00  0.00    +0.049 A 
ATOM      2  C   UNL     1       2.848   9.559  -1.011  0.00  0.00    +0.026 A 
ATOM      3  C   UNL     1       2.863   8.180  -1.018  0.00  0.00    +0.026 A 
ATOM      4  C   UNL     1       1.669   7.469  -1.036  0.00  0.00    +0.044 A 
ATOM      5  C   UNL     1       0.447   8.158  -1.052  0.00  0.00    +0.086 A 
ATOM      6  C   UNL     1       0.442   9.556  -1.038  0.00  0.00    +0.041 A 
ENDROOT
BRANCH   4   7
ATOM      7  N   UNL     1       1.686   6.078  -1.044  0.00  0.00    -0.326 N 
ATOM      8  C   UNL     1       2.298   5.565  -2.277  0.00  0.00    +0.124 C 
ATOM      9  C   UNL     1       2.225   4.036  -2.283  0.00  0.00    +0.124 C 
ATOM     10  N   UNL     1       2.917   3.511  -1.098  0.00  0.00    -0.327 N 
ATOM     11  C   UNL     1       2.305   4.024   0.136  0.00  0.00    +0.124 C 
ATOM     12  C   UNL     1       2.378   5.553   0.142  0.00  0.00    +0.124 C 
BRANCH  10  13
ATOM     13  C   UNL     1       2.934   2.113  -1.105  0.00  0.00    +0.030 A 
ATOM     14  C   UNL     1       3.543   1.419  -0.068  0.00  0.00    +0.026 A 
ATOM     15  C   UNL     1       3.558   0.038  -0.078  0.00  0.00    +0.040 A 
ATOM     16  C   UNL     1       2.966  -0.654  -1.121  0.00  0.00    +0.124 A 
ATOM     17  C   UNL     1       2.358   0.035  -2.156  0.00  0.00    +0.040 A 
ATOM     18  C   UNL     1       2.341   1.417  -2.151  0.00  0.00    +0.026 A 
ATOM     19  F   UNL     1       2.982  -2.005  -1.128  0.00  0.00    -0.205 F 
ENDBRANCH  10  13
ENDBRANCH   4   7
BRANCH   5  20
ATOM     20  C   UNL     1      -0.823   7.413  -1.077  0.00  0.00    +0.388 C 
ATOM     21  O   UNL     1      -0.818   6.201  -0.991  0.00  0.00    -0.241 OA
ATOM     22  O   UNL     1      -1.991   8.076  -1.194  0.00  0.00    -0.241 OA
ENDBRANCH   5  20
BRANCH   1  23
ATOM     23  N   UNL     1       1.635  11.649  -1.014  0.00  0.00    -0.216 N 
ATOM     24  H   UNL     1       0.953  12.194  -0.345  0.00  0.00    +0.174 HD
BRANCH  23  25
ATOM     25  S   UNL     1       2.658  12.485  -2.012  0.00  0.00    +0.072 S 
ATOM     26  O   UNL     1       2.400  13.865  -1.794  0.00  0.00    -0.150 OA
ATOM     27  O   UNL     1       3.948  11.915  -1.841  0.00  0.00    -0.150 OA
BRANCH  25  32
ATOM     28  C   UNL     1       0.984  11.292  -7.685  0.00  0.00    +0.044 C 
ATOM     29  C   UNL     1       1.402  11.590  -6.268  0.00  0.00    -0.050 A 
ATOM     30  C   UNL     1       0.849  12.664  -5.596  0.00  0.00    +0.005 A 
ATOM     31  C   UNL     1       1.233  12.937  -4.296  0.00  0.00    +0.029 A 
ATOM     32  C   UNL     1       2.169  12.137  -3.669  0.00  0.00    +0.109 A 
ATOM     33  C   UNL     1       2.725  11.066  -4.343  0.00  0.00    +0.029 A 
ATOM     34  C   UNL     1       2.338  10.790  -5.641  0.00  0.00    +0.005 A 
ENDBRANCH  25  32
ENDBRANCH  23  25
ENDBRANCH   1  23
TORSDOF 6
