REMARK  Name = ZINC43736407
REMARK  13 active torsions:
REMARK  status: ('A' for Active; 'I' for Inactive)
REMARK    1  A    between atoms: C_1  and  C_2
REMARK    2  A    between atoms: C_4  and  C_43
REMARK    3  A    between atoms: C_14  and  O_28
REMARK    4  A    between atoms: C_15  and  C_19
REMARK    5  A    between atoms: C_19  and  C_20
REMARK    6  A    between atoms: C_20  and  C_22
REMARK    7  A    between atoms: C_20  and  C_23
REMARK    8  A    between atoms: C_23  and  N_24
REMARK    9  A    between atoms: C_25  and  C_27
REMARK   10  A    between atoms: C_32  and  C_42
REMARK   11  A    between atoms: C_35  and  O_38
REMARK   12  A    between atoms: O_38  and  C_39
REMARK   13  A    between atoms: C_39  and  C_41
REMARK                            x       y       z     vdW  Elec       q    Type
REMARK                         _______ _______ _______ _____ _____    ______ ____
ROOT
ATOM      1  C   UNL     1       1.403   1.676   0.325  0.00  0.00    +0.047 C 
ATOM      2  C   UNL     1       1.063   0.209   0.233  0.00  0.00    -0.005 C 
ATOM      3  C   UNL     1      -0.161  -0.264   0.105  0.00  0.00    -0.025 C 
ATOM      4  C   UNL     1      -1.646   0.013   0.062  0.00  0.00    -0.005 C 
ATOM      5  C   UNL     1      -2.007   1.424   0.457  0.00  0.00    +0.011 C 
ATOM      6  C   UNL     1      -1.949   1.679   1.958  0.00  0.00    +0.005 C 
ATOM      7  C   UNL     1      -2.884   0.673   2.637  0.00  0.00    +0.003 C 
ATOM      8  C   UNL     1      -2.294  -0.720   2.432  0.00  0.00    +0.001 C 
ATOM      9  C   UNL     1      -2.248  -1.086   0.952  0.00  0.00    +0.006 C 
ATOM     10  C   UNL     1      -1.277  -2.296   0.792  0.00  0.00    +0.044 C 
ATOM     11  C   UNL     1      -0.102  -1.785  -0.025  0.00  0.00    +0.098 C 
ATOM     12  C   UNL     1       1.311  -2.175   0.373  0.00  0.00    +0.096 C 
ATOM     13  C   UNL     1       2.067  -0.853   0.306  0.00  0.00    +0.165 C 
ATOM     14  O   UNL     1       3.274  -0.707   0.314  0.00  0.00    -0.292 OA
ATOM     15  C   UNL     1      -0.903  -0.770   3.060  0.00  0.00    +0.031 C 
ATOM     16  C   UNL     1      -0.960  -0.273   4.476  0.00  0.00    -0.027 C 
ATOM     17  C   UNL     1      -1.899   0.496   4.940  0.00  0.00    -0.064 C 
ATOM     18  C   UNL     1      -3.045   1.000   4.113  0.00  0.00    -0.008 C 
ATOM     19  C   UNL     1      -3.200   2.508   4.310  0.00  0.00    +0.015 C 
ATOM     20  C   UNL     1      -3.252   2.862   5.795  0.00  0.00    +0.046 C 
ATOM     21  C   UNL     1      -1.961   2.427   6.488  0.00  0.00    +0.180 C 
ATOM     22  C   UNL     1      -1.822   0.906   6.400  0.00  0.00    +0.075 C 
ATOM     23  C   UNL     1      -4.328   0.317   4.600  0.00  0.00    +0.016 C 
ATOM     24  C   UNL     1      -2.165  -0.177  -1.377  0.00  0.00    +0.016 C 
ENDROOT
BRANCH  11  25
ATOM     25  O   UNL     1      -0.278  -2.178  -1.405  0.00  0.00    -0.384 OA
ATOM     26  H   UNL     1      -0.250  -3.134  -1.548  0.00  0.00    +0.211 HD
ENDBRANCH  11  25
BRANCH  12  27
ATOM     27  C   UNL     1       1.448  -2.822   1.743  0.00  0.00    +0.019 C 
BRANCH  27  28
ATOM     28  C   UNL     1       0.794  -4.205   1.722  0.00  0.00    +0.004 C 
ATOM     29  C   UNL     1       1.582  -5.127   0.788  0.00  0.00    +0.009 C 
BRANCH  28  30
ATOM     30  C   UNL     1       0.792  -4.791   3.135  0.00  0.00    +0.107 C 
BRANCH  30  31
ATOM     31  N   UNL     1       0.061  -6.061   3.137  0.00  0.00    -0.315 N 
ATOM     32  C   UNL     1      -0.070  -6.761   4.281  0.00  0.00    +0.210 C 
ATOM     33  O   UNL     1       0.416  -6.340   5.309  0.00  0.00    -0.276 OA
ATOM     34  C   UNL     1      -0.822  -8.067   4.282  0.00  0.00    +0.109 C 
ATOM     35  H   UNL     1      -0.328  -6.397   2.314  0.00  0.00    +0.149 HD
ENDBRANCH  30  31
ENDBRANCH  28  30
ENDBRANCH  27  28
ENDBRANCH  12  27
BRANCH  21  36
ATOM     36  O   UNL     1      -0.841   3.047   5.853  0.00  0.00    -0.461 OA
BRANCH  36  37
ATOM     37  C   UNL     1       0.230   3.302   6.621  0.00  0.00    +0.304 C 
ATOM     38  O   UNL     1       0.218   3.007   7.792  0.00  0.00    -0.251 OA
ATOM     39  C   UNL     1       1.449   3.955   6.021  0.00  0.00    +0.136 C 
ENDBRANCH  36  37
ENDBRANCH  21  36
TORSDOF 7
