REMARK  Name = ZINC12167461
REMARK  9 active torsions:
REMARK  status: ('A' for Active; 'I' for Inactive)
REMARK    1  A    between atoms: C_1  and  C_2
REMARK    2  A    between atoms: C_5  and  C_9
REMARK    3  A    between atoms: C_6  and  C_8
REMARK    4  A    between atoms: N_11  and  C_12
REMARK    5  A    between atoms: C_15  and  N_18
REMARK    6  A    between atoms: C_21  and  N_67
REMARK    7  A    between atoms: C_24  and  C_25
REMARK    8  A    between atoms: C_24  and  N_67
REMARK    9  A    between atoms: C_25  and  C_26
REMARK                            x       y       z     vdW  Elec       q    Type
REMARK                         _______ _______ _______ _____ _____    ______ ____
ROOT
ATOM      1  N   UNL     1       9.185   4.913  -4.335  0.00  0.00    -0.330 N 
ATOM      2  C   UNL     1       9.150   5.771  -3.144  0.00  0.00    +0.103 C 
ATOM      3  C   UNL     1       8.671   4.956  -1.940  0.00  0.00    +0.003 C 
ATOM      4  C   UNL     1       7.276   4.397  -2.231  0.00  0.00    -0.069 C 
ATOM      5  C   UNL     1       7.329   3.547  -3.504  0.00  0.00    +0.003 C 
ATOM      6  C   UNL     1       7.848   4.402  -4.662  0.00  0.00    +0.103 C 
ENDROOT
BRANCH   1  10
ATOM      7  C   UNL     1      10.847   6.931  -7.582  0.00  0.00    +0.034 A 
ATOM      8  C   UNL     1      10.418   5.618  -7.726  0.00  0.00    +0.025 A 
ATOM      9  C   UNL     1       9.867   4.949  -6.651  0.00  0.00    +0.025 A 
ATOM     10  C   UNL     1       9.743   5.590  -5.425  0.00  0.00    +0.030 A 
ATOM     11  C   UNL     1      10.168   6.904  -5.282  0.00  0.00    +0.025 A 
ATOM     12  C   UNL     1      10.724   7.571  -6.356  0.00  0.00    +0.025 A 
BRANCH   7  15
ATOM     13  C   UNL     1      12.389   8.509  -8.476  0.00  0.00    +0.249 C 
ATOM     14  O   UNL     1      12.857   8.664  -7.364  0.00  0.00    -0.270 OA
ATOM     15  N   UNL     1      11.405   7.609  -8.673  0.00  0.00    -0.281 N 
ATOM     16  H   UNL     1      11.084   7.431  -9.571  0.00  0.00    +0.155 HD
BRANCH  13  21
ATOM     17  C   UNL     1      14.374  11.617 -12.893  0.00  0.00    +0.044 C 
ATOM     18  C   UNL     1      13.854  10.803 -11.736  0.00  0.00    -0.050 A 
ATOM     19  C   UNL     1      12.940   9.790 -11.963  0.00  0.00    +0.004 A 
ATOM     20  C   UNL     1      12.460   9.040 -10.908  0.00  0.00    +0.013 A 
ATOM     21  C   UNL     1      12.899   9.307  -9.610  0.00  0.00    +0.040 A 
ATOM     22  C   UNL     1      13.818  10.334  -9.388  0.00  0.00    -0.038 A 
ATOM     23  C   UNL     1      14.293  11.073 -10.452  0.00  0.00    +0.007 A 
ATOM     24  C   UNL     1      14.293  10.633  -7.989  0.00  0.00    +0.044 C 
ENDBRANCH  13  21
ENDBRANCH   7  15
ENDBRANCH   1  10
BRANCH   4  25
ATOM     25  N   UNL     1       6.841   3.561  -1.096  0.00  0.00    +0.381 N 
ATOM     26  H   UNL     1       7.197   3.965  -0.222  0.00  0.00    -0.086 HD
ATOM     27  H   UNL     1       7.216   2.612  -1.212  0.00  0.00    -0.086 HD
BRANCH  25  28
ATOM     28  C   UNL     1       5.369   3.499  -1.040  0.00  0.00    -0.075 C 
BRANCH  28  29
ATOM     29  C   UNL     1       4.949   2.626   0.145  0.00  0.00    +0.055 C 
BRANCH  29  30
ATOM     30  C   UNL     1       3.445   2.558   0.210  0.00  0.00    +0.106 A 
ATOM     31  N   UNL     1       2.717   1.408   0.220  0.00  0.00    -0.342 N 
ATOM     32  H   UNL     1       3.080   0.477   0.186  0.00  0.00    +0.167 HD
ATOM     33  C   UNL     1       1.385   1.766   0.285  0.00  0.00    +0.066 A 
ATOM     34  C   UNL     1       0.194   1.055   0.323  0.00  0.00    +0.028 A 
ATOM     35  C   UNL     1      -1.005   1.733   0.383  0.00  0.00    +0.002 A 
ATOM     36  C   UNL     1      -1.027   3.120   0.417  0.00  0.00    +0.002 A 
ATOM     37  C   UNL     1       0.136   3.837   0.379  0.00  0.00    +0.030 A 
ATOM     38  C   UNL     1       1.362   3.171   0.312  0.00  0.00    +0.089 A 
ATOM     39  N   UNL     1       2.653   3.588   0.264  0.00  0.00    -0.233 NA
ENDBRANCH  29  30
ENDBRANCH  28  29
ENDBRANCH  25  28
ENDBRANCH   4  25
TORSDOF 7
