REMARK  Name = ZINC00959844
REMARK  4 active torsions:
REMARK  status: ('A' for Active; 'I' for Inactive)
REMARK    1  A    between atoms: C_1  and  C_2
REMARK    2  A    between atoms: C_2  and  S_3
REMARK    3  A    between atoms: S_3  and  C_4
REMARK    4  A    between atoms: C_11  and  C_21
REMARK                            x       y       z     vdW  Elec       q    Type
REMARK                         _______ _______ _______ _____ _____    ______ ____
ROOT
ATOM      1  C   UNL     1       0.792  -2.345  -1.354  0.00  0.00    +0.171 A 
ATOM      2  N   UNL     1       1.357  -3.111  -2.328  0.00  0.00    -0.322 N 
ATOM      3  C   UNL     1       1.317  -4.478  -2.237  0.00  0.00    +0.111 A 
ATOM      4  C   UNL     1       0.709  -5.056  -1.167  0.00  0.00    +0.069 A 
ATOM      5  C   UNL     1       0.140  -4.227  -0.176  0.00  0.00    +0.280 A 
ATOM      6  N   UNL     1       0.208  -2.893  -0.309  0.00  0.00    -0.185 NA
ATOM      7  O   UNL     1      -0.407  -4.721   0.799  0.00  0.00    -0.265 OA
ATOM      8  C   UNL     1       0.634  -6.549  -1.036  0.00  0.00    +0.092 C 
ATOM      9  C   UNL     1       1.632  -7.229  -1.938  0.00  0.00    +0.024 C 
ATOM     10  C   UNL     1       1.958  -8.570  -1.670  0.00  0.00    +0.162 C 
ATOM     11  C   UNL     1       2.953  -9.315  -2.517  0.00  0.00    +0.080 C 
ATOM     12  C   UNL     1       3.958  -8.317  -3.101  0.00  0.00    +0.014 C 
ATOM     13  C   UNL     1       3.186  -7.253  -3.883  0.00  0.00    +0.051 C 
ATOM     14  C   UNL     1       2.197  -6.569  -2.971  0.00  0.00    +0.017 C 
ATOM     15  N   UNL     1       1.887  -5.259  -3.215  0.00  0.00    -0.304 N 
ATOM     16  O   UNL     1       1.425  -9.138  -0.737  0.00  0.00    -0.292 OA
ATOM     17  H   UNL     1       2.071  -4.877  -4.088  0.00  0.00    +0.153 HD
ATOM     18  H   UNL     1       1.788  -2.689  -3.088  0.00  0.00    +0.169 HD
ENDROOT
BRANCH   8  19
ATOM     19  C   UNL     1      -0.754  -7.008  -1.403  0.00  0.00    -0.035 A 
ATOM     20  C   UNL     1      -1.252  -6.758  -2.668  0.00  0.00    +0.005 A 
ATOM     21  C   UNL     1      -2.524  -7.179  -3.005  0.00  0.00    +0.015 A 
ATOM     22  C   UNL     1      -3.299  -7.850  -2.077  0.00  0.00    +0.018 A 
ATOM     23  C   UNL     1      -2.800  -8.100  -0.811  0.00  0.00    +0.015 A 
ATOM     24  C   UNL     1      -1.526  -7.683  -0.476  0.00  0.00    +0.005 A 
ATOM     25 BR   UNL     1      -5.041  -8.426  -2.538  0.00  0.00    -0.050 Br
ENDBRANCH   8  19
BRANCH   1  26
ATOM     26  S   UNL     1       0.851  -0.589  -1.490  0.00  0.00    -0.088 S 
BRANCH  26  28
ATOM     27  C   UNL     1      -0.019   1.526   0.010  0.00  0.00    +0.016 C 
ATOM     28  C   UNL     1       0.002  -0.004   0.002  0.00  0.00    +0.074 C 
ENDBRANCH  26  28
ENDBRANCH   1  26
TORSDOF 3
