REMARK  Name = ZINC08835792
REMARK  7 active torsions:
REMARK  status: ('A' for Active; 'I' for Inactive)
REMARK    1  A    between atoms: C_1  and  O_2
REMARK    2  A    between atoms: O_2  and  C_3
REMARK    3  A    between atoms: C_4  and  C_14
REMARK    4  A    between atoms: N_16  and  C_17
REMARK    5  A    between atoms: C_17  and  N_19
REMARK    6  A    between atoms: N_19  and  C_20
REMARK    7  A    between atoms: C_25  and  N_26
REMARK                            x       y       z     vdW  Elec       q    Type
REMARK                         _______ _______ _______ _____ _____    ______ ____
ROOT
ATOM      1  C   UNL     1      -1.071   7.335   0.266  0.00  0.00    +0.253 C 
ATOM      2  O   UNL     1      -2.124   7.898   0.493  0.00  0.00    -0.270 OA
ATOM      3  N   UNL     1       0.047   8.057   0.054  0.00  0.00    -0.263 N 
ATOM      4  H   UNL     1       0.887   7.607  -0.128  0.00  0.00    +0.157 HD
ENDROOT
BRANCH   1   6
ATOM      5  C   UNL     1      -2.191   5.110   0.443  0.00  0.00    +0.147 A 
ATOM      6  C   UNL     1      -1.017   5.861   0.221  0.00  0.00    +0.080 A 
ATOM      7  C   UNL     1       0.186   5.224  -0.038  0.00  0.00    +0.025 A 
ATOM      8  C   UNL     1       0.231   3.823  -0.079  0.00  0.00    -0.016 A 
ATOM      9  C   UNL     1       1.435   3.143  -0.340  0.00  0.00    +0.008 A 
ATOM     10  C   UNL     1       1.448   1.783  -0.374  0.00  0.00    +0.001 A 
ATOM     11  C   UNL     1       0.283   1.050  -0.153  0.00  0.00    +0.001 A 
ATOM     12  C   UNL     1      -0.901   1.672   0.097  0.00  0.00    +0.010 A 
ATOM     13  C   UNL     1      -0.954   3.076   0.146  0.00  0.00    -0.000 A 
ATOM     14  C   UNL     1      -2.162   3.746   0.406  0.00  0.00    +0.068 A 
ATOM     15 BR   UNL     1      -3.746   2.758   0.706  0.00  0.00    -0.046 Br
BRANCH   5  17
ATOM     16  C   UNL     1      -4.174   6.084  -0.431  0.00  0.00    +0.277 C 
ATOM     17  O   UNL     1      -3.361   5.750   0.696  0.00  0.00    -0.493 OA
ENDBRANCH   5  17
ENDBRANCH   1   6
BRANCH   3  18
ATOM     18  C   UNL     1      -0.002   9.403   0.094  0.00  0.00    +0.141 C 
ATOM     19  S   UNL     1      -1.485  10.196   0.414  0.00  0.00    -0.018 S 
BRANCH  18  20
ATOM     20  N   UNL     1       1.116  10.125  -0.118  0.00  0.00    -0.295 N 
ATOM     21  H   UNL     1       1.964   9.675  -0.257  0.00  0.00    +0.154 HD
BRANCH  20  22
ATOM     22  C   UNL     1       1.053  11.525  -0.137  0.00  0.00    +0.054 A 
ATOM     23  C   UNL     1      -0.026  12.164  -0.728  0.00  0.00    +0.025 A 
ATOM     24  C   UNL     1      -0.089  13.545  -0.742  0.00  0.00    +0.002 A 
ATOM     25  C   UNL     1       0.928  14.293  -0.176  0.00  0.00    +0.002 A 
ATOM     26  C   UNL     1       2.010  13.664   0.410  0.00  0.00    +0.025 A 
ATOM     27  C   UNL     1       2.078  12.279   0.433  0.00  0.00    +0.051 A 
BRANCH  27  28
ATOM     28  N   UNL     1       3.173  11.640   1.026  0.00  0.00    -0.328 N 
ATOM     29  C   UNL     1       4.099  12.628   1.637  0.00  0.00    +0.105 C 
ATOM     30  C   UNL     1       4.904  11.778   2.652  0.00  0.00    +0.020 C 
ATOM     31  C   UNL     1       3.841  10.801   3.204  0.00  0.00    +0.020 C 
ATOM     32  C   UNL     1       2.737  10.759   2.132  0.00  0.00    +0.105 C 
ENDBRANCH  27  28
ENDBRANCH  20  22
ENDBRANCH  18  20
ENDBRANCH   3  18
TORSDOF 6
