REMARK  Name = ZINC05377480
REMARK  8 active torsions:
REMARK  status: ('A' for Active; 'I' for Inactive)
REMARK    1  A    between atoms: C_1  and  C_2
REMARK    2  A    between atoms: C_10  and  O_31
REMARK    3  A    between atoms: N_22  and  N_23
REMARK    4  A    between atoms: C_24  and  O_26
REMARK    5  A    between atoms: O_26  and  C_27
REMARK    6  A    between atoms: C_27  and  C_28
REMARK    7  A    between atoms: C_27  and  C_29
REMARK    8  A    between atoms: C_27  and  C_30
REMARK                            x       y       z     vdW  Elec       q    Type
REMARK                         _______ _______ _______ _____ _____    ______ ____
ROOT
ATOM      1  C   UNL     1      -0.019   1.526   0.010  0.00  0.00    +0.018 C 
ATOM      2  C   UNL     1       0.002  -0.004   0.002  0.00  0.00    +0.011 C 
ATOM      3  C   UNL     1      -1.407  -0.526   0.183  0.00  0.00    +0.013 C 
ATOM      4  C   UNL     1      -1.973   0.097   1.474  0.00  0.00    +0.009 C 
ATOM      5  C   UNL     1      -1.081  -0.228   2.663  0.00  0.00    +0.023 C 
ATOM      6  C   UNL     1      -1.593   0.393   3.930  0.00  0.00    -0.041 A 
ATOM      7  C   UNL     1      -2.966   0.512   4.096  0.00  0.00    +0.008 A 
ATOM      8  C   UNL     1      -3.490   1.066   5.245  0.00  0.00    +0.046 A 
ATOM      9  C   UNL     1      -2.636   1.508   6.245  0.00  0.00    +0.117 A 
ATOM     10  C   UNL     1      -1.267   1.393   6.078  0.00  0.00    +0.049 A 
ATOM     11  C   UNL     1      -0.740   0.841   4.917  0.00  0.00    -0.040 A 
ATOM     12  C   UNL     1       0.759   0.776   4.793  0.00  0.00    +0.036 C 
ATOM     13  C   UNL     1       1.184  -0.154   3.657  0.00  0.00    +0.009 C 
ATOM     14  C   UNL     1       0.366   0.223   2.422  0.00  0.00    +0.001 C 
ATOM     15  C   UNL     1       0.862  -0.512   1.193  0.00  0.00    +0.005 C 
ATOM     16  C   UNL     1       2.273  -0.151   0.711  0.00  0.00    +0.010 C 
ATOM     17  C   UNL     1       2.220  -0.524  -0.796  0.00  0.00    +0.053 C 
ATOM     18  C   UNL     1       0.751  -0.483  -1.205  0.00  0.00    +0.043 C 
ATOM     19  N   UNL     1       0.259  -0.795  -2.345  0.00  0.00    -0.186 NA
ENDROOT
BRANCH  19  20
ATOM     20  N   UNL     1       1.102  -1.229  -3.377  0.00  0.00    -0.172 N 
ATOM     21  C   UNL     1       0.583  -1.556  -4.577  0.00  0.00    +0.420 C 
ATOM     22  O   UNL     1       1.314  -1.933  -5.472  0.00  0.00    -0.225 OA
ATOM     23  H   UNL     1       2.058  -1.293  -3.227  0.00  0.00    +0.181 HD
BRANCH  21  24
ATOM     24  O   UNL     1      -0.744  -1.467  -4.784  0.00  0.00    -0.444 OA
BRANCH  24  25
ATOM     25  C   UNL     1      -1.224  -1.830  -6.080  0.00  0.00    +0.107 C 
ATOM     26  C   UNL     1      -0.861  -3.288  -6.369  0.00  0.00    +0.055 C 
ATOM     27  C   UNL     1      -2.745  -1.665  -6.125  0.00  0.00    +0.055 C 
ATOM     28  C   UNL     1      -0.582  -0.926  -7.134  0.00  0.00    +0.055 C 
ENDBRANCH  24  25
ENDBRANCH  21  24
ENDBRANCH  19  20
BRANCH   9  29
ATOM     29  O   UNL     1      -3.141   2.051   7.383  0.00  0.00    -0.507 OA
ATOM     30  H   UNL     1      -3.309   1.407   8.085  0.00  0.00    +0.292 HD
ENDBRANCH   9  29
TORSDOF 4
