REMARK  Name = ZINC09046530
REMARK  16 active torsions:
REMARK  status: ('A' for Active; 'I' for Inactive)
REMARK    1  A    between atoms: C_1  and  C_2
REMARK    2  A    between atoms: C_2  and  C_3
REMARK    3  A    between atoms: C_3  and  C_4
REMARK    4  A    between atoms: C_4  and  N_5
REMARK    5  A    between atoms: C_12  and  O_13
REMARK    6  A    between atoms: C_14  and  N_76
REMARK    7  A    between atoms: C_20  and  O_28
REMARK    8  A    between atoms: C_21  and  O_26
REMARK    9  A    between atoms: C_22  and  O_24
REMARK   10  A    between atoms: O_24  and  C_25
REMARK   11  A    between atoms: O_26  and  C_27
REMARK   12  A    between atoms: O_28  and  C_29
REMARK   13  A    between atoms: C_30  and  N_76
REMARK   14  A    between atoms: C_31  and  C_32
REMARK   15  A    between atoms: C_31  and  N_76
REMARK   16  A    between atoms: C_37  and  O_38
REMARK                            x       y       z     vdW  Elec       q    Type
REMARK                         _______ _______ _______ _____ _____    ______ ____
ROOT
ATOM      1  N   UNL     1       1.249  -2.640  -2.223  0.00  0.00    -0.280 NA
ATOM      2  C   UNL     1       2.413  -3.270  -2.166  0.00  0.00    +0.100 A 
ATOM      3  C   UNL     1       2.919  -3.589  -0.906  0.00  0.00    +0.031 A 
ATOM      4  C   UNL     1       4.052  -4.181  -0.602  0.00  0.00    +0.011 A 
ATOM      5  C   UNL     1       5.105  -4.677  -1.357  0.00  0.00    -0.012 A 
ATOM      6  C   UNL     1       5.180  -4.714  -2.733  0.00  0.00    -0.050 A 
ATOM      7  C   UNL     1       4.241  -4.200  -3.595  0.00  0.00    +0.050 A 
ATOM      8  C   UNL     1       3.069  -3.586  -3.412  0.00  0.00    +0.142 A 
ATOM      9  C   UNL     1       6.375  -5.392  -3.372  0.00  0.00    -0.037 C 
ATOM     10  C   UNL     1       7.591  -4.490  -3.387  0.00  0.00    -0.006 C 
ATOM     11  C   UNL     1       7.774  -3.794  -2.041  0.00  0.00    +0.035 C 
ATOM     12  C   UNL     1       7.567  -4.790  -0.927  0.00  0.00    -0.033 A 
ATOM     13  C   UNL     1       6.280  -5.203  -0.599  0.00  0.00    +0.031 A 
ATOM     14  C   UNL     1       6.077  -6.115   0.442  0.00  0.00    +0.173 A 
ATOM     15  C   UNL     1       7.172  -6.609   1.139  0.00  0.00    +0.204 A 
ATOM     16  C   UNL     1       8.455  -6.197   0.799  0.00  0.00    +0.165 A 
ATOM     17  C   UNL     1       8.650  -5.287  -0.233  0.00  0.00    +0.054 A 
ENDROOT
BRANCH   9  19
ATOM     18  C   UNL     1       7.194  -6.338  -5.445  0.00  0.00    -0.095 C 
ATOM     19  N   UNL     1       6.027  -5.737  -4.766  0.00  0.00    +0.385 N 
ATOM     20  H   UNL     1       5.757  -4.880  -5.264  0.00  0.00    -0.081 HD
BRANCH  19  21
ATOM     21  C   UNL     1       4.890  -6.681  -4.785  0.00  0.00    -0.039 C 
BRANCH  21  22
ATOM     22  C   UNL     1       4.416  -6.843  -6.206  0.00  0.00    -0.022 A 
ATOM     23  C   UNL     1       3.314  -6.138  -6.652  0.00  0.00    +0.005 A 
ATOM     24  C   UNL     1       2.878  -6.286  -7.956  0.00  0.00    +0.000 A 
ATOM     25  C   UNL     1       3.544  -7.139  -8.817  0.00  0.00    +0.004 A 
ATOM     26  C   UNL     1       4.646  -7.845  -8.377  0.00  0.00    +0.045 A 
ATOM     27  C   UNL     1       5.088  -7.695  -7.070  0.00  0.00    +0.118 A 
BRANCH  27  28
ATOM     28  O   UNL     1       6.176  -8.385  -6.636  0.00  0.00    -0.507 OA
ATOM     29  H   UNL     1       5.967  -9.251  -6.260  0.00  0.00    +0.292 HD
ENDBRANCH  27  28
ENDBRANCH  21  22
ENDBRANCH  19  21
ENDBRANCH   9  19
BRANCH   8  30
ATOM     30  O   UNL     1       2.417  -3.205  -4.538  0.00  0.00    -0.505 OA
ATOM     31  H   UNL     1       2.645  -2.316  -4.843  0.00  0.00    +0.292 HD
ENDBRANCH   8  30
BRANCH  16  32
ATOM     32  O   UNL     1       9.525  -6.685   1.480  0.00  0.00    -0.491 OA
ATOM     33  C   UNL     1      10.816  -6.220   1.081  0.00  0.00    +0.277 C 
ENDBRANCH  16  32
BRANCH  15  34
ATOM     34  O   UNL     1       6.988  -7.497   2.154  0.00  0.00    -0.488 OA
ATOM     35  C   UNL     1       6.707  -6.956   3.446  0.00  0.00    +0.277 C 
ENDBRANCH  15  34
BRANCH  14  36
ATOM     36  O   UNL     1       4.820  -6.513   0.768  0.00  0.00    -0.491 OA
ATOM     37  C   UNL     1       4.277  -7.613   0.034  0.00  0.00    +0.277 C 
ENDBRANCH  14  36
BRANCH   1  38
ATOM     38  C   UNL     1       0.599  -2.188  -0.990  0.00  0.00    +0.142 C 
BRANCH  38  39
ATOM     39  C   UNL     1      -0.658  -1.388  -1.339  0.00  0.00    +0.023 C 
BRANCH  39  41
ATOM     40  C   UNL     1      -2.593  -0.117  -0.400  0.00  0.00    +0.004 C 
ATOM     41  C   UNL     1      -1.336  -0.916  -0.051  0.00  0.00    -0.002 C 
ENDBRANCH  39  41
ENDBRANCH  38  39
ENDBRANCH   1  38
TORSDOF 11
