REMARK  Name = ZINC39695847
REMARK  11 active torsions:
REMARK  status: ('A' for Active; 'I' for Inactive)
REMARK    1  A    between atoms: C_1  and  C_2
REMARK    2  A    between atoms: C_9  and  C_11
REMARK    3  A    between atoms: C_11  and  C_13
REMARK    4  A    between atoms: C_11  and  N_14
REMARK    5  A    between atoms: C_15  and  C_17
REMARK    6  A    between atoms: C_28  and  C_30
REMARK    7  A    between atoms: C_30  and  C_32
REMARK    8  A    between atoms: C_30  and  O_35
REMARK    9  A    between atoms: C_32  and  C_33
REMARK   10  A    between atoms: C_32  and  C_34
REMARK   11  A    between atoms: O_35  and  C_36
REMARK                            x       y       z     vdW  Elec       q    Type
REMARK                         _______ _______ _______ _____ _____    ______ ____
ROOT
ATOM      1  C   UNL     1      -1.359  -9.359   0.762  0.00  0.00    +0.100 C 
ATOM      2  C   UNL     1      -2.476  -8.553   0.063  0.00  0.00    +0.121 C 
ATOM      3  N   UNL     1      -3.713  -9.328   0.318  0.00  0.00    -0.297 N 
ATOM      4  C   UNL     1      -3.571  -9.800   1.716  0.00  0.00    +0.115 C 
ATOM      5  C   UNL     1      -2.081 -10.176   1.847  0.00  0.00    -0.004 C 
ATOM      6  C   UNL     1      -1.890 -11.669   1.599  0.00  0.00    -0.010 C 
ATOM      7  C   UNL     1      -2.569 -12.459   2.722  0.00  0.00    -0.082 C 
ATOM      8  N   UNL     1      -1.984 -12.078   4.013  0.00  0.00    +0.379 N 
ATOM      9  C   UNL     1      -2.254 -10.661   4.286  0.00  0.00    -0.082 C 
ATOM     10  C   UNL     1      -1.561  -9.795   3.230  0.00  0.00    -0.010 C 
ATOM     11  C   UNL     1      -4.736  -9.553  -0.530  0.00  0.00    +0.257 C 
ATOM     12  O   UNL     1      -5.731 -10.129  -0.141  0.00  0.00    -0.272 OA
ATOM     13  H   UNL     1      -2.390 -12.643   4.744  0.00  0.00    -0.086 HD
ATOM     14  H   UNL     1      -0.988 -12.231   3.988  0.00  0.00    -0.086 HD
ENDROOT
BRANCH   1  16
ATOM     15  N   UNL     1       0.893  -8.864   1.659  0.00  0.00    -0.305 N 
ATOM     16  C   UNL     1      -0.353  -8.428   1.389  0.00  0.00    +0.219 C 
ATOM     17  O   UNL     1      -0.666  -7.285   1.651  0.00  0.00    -0.275 OA
ATOM     18  H   UNL     1       1.143  -9.778   1.450  0.00  0.00    +0.149 HD
BRANCH  15  19
ATOM     19  C   UNL     1       1.870  -7.958   2.269  0.00  0.00    +0.136 C 
ATOM     20  C   UNL     1       1.695  -7.968   3.789  0.00  0.00    +0.036 C 
BRANCH  19  29
ATOM     21  C   UNL     1       9.089  -8.935   0.746  0.00  0.00    +0.044 C 
ATOM     22  C   UNL     1       7.620  -9.195   0.963  0.00  0.00    -0.048 A 
ATOM     23  C   UNL     1       7.116 -10.477   0.796  0.00  0.00    +0.005 A 
ATOM     24  C   UNL     1       5.788 -10.733   0.988  0.00  0.00    +0.030 A 
ATOM     25  C   UNL     1       4.925  -9.698   1.356  0.00  0.00    +0.089 A 
ATOM     26  C   UNL     1       5.435  -8.400   1.525  0.00  0.00    +0.067 A 
ATOM     27  C   UNL     1       6.789  -8.159   1.331  0.00  0.00    +0.031 A 
ATOM     28  N   UNL     1       4.360  -7.611   1.882  0.00  0.00    -0.340 N 
ATOM     29  C   UNL     1       3.263  -8.415   1.920  0.00  0.00    +0.128 A 
ATOM     30  N   UNL     1       3.593  -9.635   1.613  0.00  0.00    -0.231 NA
ATOM     31  H   UNL     1       4.382  -6.660   2.071  0.00  0.00    +0.167 HD
ENDBRANCH  19  29
ENDBRANCH  15  19
ENDBRANCH   1  16
BRANCH  11  32
ATOM     32  C   UNL     1      -4.645  -9.091  -1.961  0.00  0.00    +0.261 C 
BRANCH  32  33
ATOM     33  C   UNL     1      -3.985 -10.181  -2.809  0.00  0.00    +0.033 C 
ATOM     34  C   UNL     1      -4.015  -9.770  -4.282  0.00  0.00    +0.011 C 
ATOM     35  C   UNL     1      -2.534 -10.368  -2.361  0.00  0.00    +0.011 C 
ENDBRANCH  32  33
BRANCH  32  36
ATOM     36  O   UNL     1      -5.957  -8.827  -2.462  0.00  0.00    -0.479 OA
BRANCH  36  37
ATOM     37  C   UNL     1      -6.089  -7.792  -3.333  0.00  0.00    +0.122 A 
ATOM     38  C   UNL     1      -7.332  -7.489  -3.868  0.00  0.00    +0.045 A 
ATOM     39  C   UNL     1      -7.464  -6.436  -4.753  0.00  0.00    +0.004 A 
ATOM     40  C   UNL     1      -6.358  -5.685  -5.105  0.00  0.00    +0.000 A 
ATOM     41  C   UNL     1      -5.117  -5.986  -4.573  0.00  0.00    +0.004 A 
ATOM     42  C   UNL     1      -4.982  -7.034  -3.683  0.00  0.00    +0.045 A 
ENDBRANCH  36  37
ENDBRANCH  32  36
ENDBRANCH  11  32
TORSDOF 7
