REMARK  Name = ZINC04149908
REMARK  9 active torsions:
REMARK  status: ('A' for Active; 'I' for Inactive)
REMARK    1  A    between atoms: C_1  and  C_2
REMARK    2  A    between atoms: C_2  and  C_3
REMARK    3  A    between atoms: C_2  and  C_4
REMARK    4  A    between atoms: C_2  and  C_5
REMARK    5  A    between atoms: C_13  and  C_25
REMARK    6  A    between atoms: C_15  and  C_21
REMARK    7  A    between atoms: C_15  and  C_23
REMARK    8  A    between atoms: C_16  and  N_20
REMARK    9  A    between atoms: C_17  and  C_18
REMARK                            x       y       z     vdW  Elec       q    Type
REMARK                         _______ _______ _______ _____ _____    ______ ____
ROOT
ATOM      1  C   UNL     1       0.718  -0.497  -1.257  0.00  0.00    -0.001 C 
ATOM      2  C   UNL     1      -0.013   0.019  -2.504  0.00  0.00    +0.031 C 
ATOM      3  C   UNL     1       0.706  -0.523  -3.713  0.00  0.00    -0.021 C 
ATOM      4  C   UNL     1       2.010  -0.717  -3.694  0.00  0.00    -0.029 C 
ATOM      5  C   UNL     1       2.889  -0.378  -2.527  0.00  0.00    +0.031 C 
ATOM      6  C   UNL     1       2.148   0.039  -1.279  0.00  0.00    +0.013 C 
ATOM      7  C   UNL     1       3.827  -1.558  -2.273  0.00  0.00    +0.068 C 
ATOM      8  C   UNL     1       4.729  -1.744  -3.494  0.00  0.00    +0.188 C 
ATOM      9  C   UNL     1       3.939  -1.791  -4.766  0.00  0.00    +0.054 C 
ATOM     10  C   UNL     1       2.676  -1.308  -4.885  0.00  0.00    +0.074 C 
ENDROOT
BRANCH   7  11
ATOM     11  C   UNL     1       4.671  -1.280  -1.056  0.00  0.00    -0.016 A 
ATOM     12  C   UNL     1       5.519  -0.253  -0.890  0.00  0.00    +0.087 A 
ATOM     13  N   UNL     1       6.109  -0.329   0.342  0.00  0.00    -0.360 N 
ATOM     14  H   UNL     1       6.758   0.303   0.689  0.00  0.00    +0.165 HD
ATOM     15  C   UNL     1       5.643  -1.435   1.017  0.00  0.00    +0.047 A 
ATOM     16  C   UNL     1       4.717  -2.076   0.173  0.00  0.00    +0.003 A 
ATOM     17  C   UNL     1       4.072  -3.237   0.602  0.00  0.00    +0.010 A 
ATOM     18  C   UNL     1       4.341  -3.744   1.842  0.00  0.00    +0.001 A 
ATOM     19  C   UNL     1       5.250  -3.113   2.679  0.00  0.00    +0.002 A 
ATOM     20  C   UNL     1       5.905  -1.971   2.273  0.00  0.00    +0.026 A 
ENDBRANCH   7  11
BRANCH   1  22
ATOM     21  C   UNL     1      -0.019   1.526   0.010  0.00  0.00    +0.011 C 
ATOM     22  C   UNL     1       0.002  -0.004   0.002  0.00  0.00    -0.035 C 
ATOM     23  C   UNL     1       0.742  -0.511   1.242  0.00  0.00    +0.011 C 
ATOM     24  C   UNL     1      -1.433  -0.534   0.013  0.00  0.00    +0.011 C 
ENDBRANCH   1  22
BRANCH   9  25
ATOM     25  N   UNL     1       4.521  -2.351  -5.868  0.00  0.00    -0.358 N 
ATOM     26  H   UNL     1       5.423  -2.705  -5.813  0.00  0.00    +0.142 HD
ATOM     27  H   UNL     1       4.034  -2.395  -6.705  0.00  0.00    +0.142 HD
ENDBRANCH   9  25
BRANCH  10  28
ATOM     28  C   UNL     1       1.993  -1.366  -6.142  0.00  0.00    +0.101 C 
ATOM     29  N   UNL     1       1.452  -1.413  -7.139  0.00  0.00    -0.191 NA
ENDBRANCH  10  28
BRANCH   8  30
ATOM     30  C   UNL     1       5.479  -3.003  -3.349  0.00  0.00    +0.091 C 
ATOM     31  N   UNL     1       6.058  -3.974  -3.237  0.00  0.00    -0.194 NA
ENDBRANCH   8  30
BRANCH   8  32
ATOM     32  C   UNL     1       5.682  -0.625  -3.561  0.00  0.00    +0.091 C 
ATOM     33  N   UNL     1       6.417   0.240  -3.614  0.00  0.00    -0.194 NA
ENDBRANCH   8  32
TORSDOF 6
