REMARK  Name = ZINC36019607
REMARK  5 active torsions:
REMARK  status: ('A' for Active; 'I' for Inactive)
REMARK    1  A    between atoms: C_5  and  C_7
REMARK    2  A    between atoms: N_9  and  C_10
REMARK    3  A    between atoms: C_13  and  N_24
REMARK    4  A    between atoms: C_14  and  C_16
REMARK    5  A    between atoms: N_32  and  C_33
REMARK                            x       y       z     vdW  Elec       q    Type
REMARK                         _______ _______ _______ _____ _____    ______ ____
ROOT
ATOM      1  C   UNL     1       0.198  -4.038  -0.045  0.00  0.00    +0.035 A 
ATOM      2  C   UNL     1       1.245  -4.925   0.188  0.00  0.00    +0.025 A 
ATOM      3  C   UNL     1       1.011  -6.283   0.233  0.00  0.00    +0.026 A 
ATOM      4  C   UNL     1      -0.275  -6.776   0.046  0.00  0.00    +0.042 A 
ATOM      5  C   UNL     1      -1.335  -5.887  -0.189  0.00  0.00    +0.060 A 
ATOM      6  C   UNL     1      -1.089  -4.512  -0.227  0.00  0.00    +0.038 A 
ENDROOT
BRANCH   4   7
ATOM      7  N   UNL     1      -0.510  -8.146   0.091  0.00  0.00    -0.326 N 
ATOM      8  C   UNL     1      -0.420  -8.960  -1.128  0.00  0.00    +0.124 C 
ATOM      9  C   UNL     1       0.576 -10.101  -0.883  0.00  0.00    +0.128 C 
ATOM     10  N   UNL     1       0.234 -10.759   0.385  0.00  0.00    -0.283 N 
ATOM     11  C   UNL     1       0.144  -9.944   1.605  0.00  0.00    +0.128 C 
ATOM     12  C   UNL     1      -0.847  -8.805   1.361  0.00  0.00    +0.124 C 
ATOM     13  C   UNL     1       0.006 -12.087   0.429  0.00  0.00    +0.303 C 
ATOM     14  O   UNL     1       0.181 -12.767  -0.564  0.00  0.00    -0.253 OA
ATOM     15  N   UNL     1      -0.416 -12.661   1.573  0.00  0.00    -0.296 N 
ATOM     16  H   UNL     1      -0.631 -12.110   2.341  0.00  0.00    +0.151 HD
BRANCH  15  17
ATOM     17  C   UNL     1      -0.552 -14.117   1.655  0.00  0.00    +0.074 C 
ATOM     18  C   UNL     1      -1.920 -14.534   1.113  0.00  0.00    +0.022 C 
ATOM     19  C   UNL     1      -2.062 -16.055   1.199  0.00  0.00    +0.002 C 
ATOM     20  C   UNL     1      -1.935 -16.497   2.658  0.00  0.00    +0.000 C 
ATOM     21  C   UNL     1      -0.566 -16.080   3.200  0.00  0.00    +0.002 C 
ATOM     22  C   UNL     1      -0.425 -14.559   3.114  0.00  0.00    +0.022 C 
ENDBRANCH  15  17
ENDBRANCH   4   7
BRANCH   5  23
ATOM     23  C   UNL     1      -2.702  -6.401  -0.388  0.00  0.00    +0.248 C 
ATOM     24  O   UNL     1      -3.197  -7.147   0.435  0.00  0.00    -0.270 OA
ATOM     25  N   UNL     1      -3.404  -6.043  -1.482  0.00  0.00    -0.297 N 
ATOM     26  C   UNL     1      -2.850  -5.081  -2.445  0.00  0.00    +0.108 C 
ATOM     27  C   UNL     1      -2.892  -5.704  -3.843  0.00  0.00    +0.019 C 
ATOM     28  C   UNL     1      -4.321  -6.154  -4.155  0.00  0.00    +0.003 C 
ATOM     29  C   UNL     1      -4.756  -7.214  -3.141  0.00  0.00    +0.019 C 
ATOM     30  C   UNL     1      -4.734  -6.613  -1.738  0.00  0.00    +0.108 C 
ENDBRANCH   5  23
BRANCH   1  33
ATOM     31  C   UNL     1       1.597  -2.200  -0.623  0.00  0.00    +0.251 C 
ATOM     32  O   UNL     1       2.449  -2.982  -0.997  0.00  0.00    -0.270 OA
ATOM     33  N   UNL     1       0.447  -2.660  -0.090  0.00  0.00    -0.281 N 
ATOM     34  H   UNL     1      -0.207  -2.037   0.263  0.00  0.00    +0.155 HD
BRANCH  31  39
ATOM     35  C   UNL     1       1.058   1.512  -0.449  0.00  0.00    +0.001 A 
ATOM     36  C   UNL     1       2.239   1.983  -0.997  0.00  0.00    +0.003 A 
ATOM     37  C   UNL     1       3.212   1.099  -1.423  0.00  0.00    +0.039 A 
ATOM     38  C   UNL     1       3.011  -0.264  -1.305  0.00  0.00    +0.135 A 
ATOM     39  C   UNL     1       1.820  -0.746  -0.752  0.00  0.00    +0.072 A 
ATOM     40  C   UNL     1       0.843   0.156  -0.324  0.00  0.00    +0.016 A 
ATOM     41  F   UNL     1       3.962  -1.128  -1.722  0.00  0.00    -0.205 F 
ENDBRANCH  31  39
ENDBRANCH   1  33
TORSDOF 5
