REMARK  Name = ZINC39665044
REMARK  8 active torsions:
REMARK  status: ('A' for Active; 'I' for Inactive)
REMARK    1  A    between atoms: C_1  and  C_2
REMARK    2  A    between atoms: C_2  and  C_4
REMARK    3  A    between atoms: C_2  and  O_31
REMARK    4  A    between atoms: C_4  and  N_5
REMARK    5  A    between atoms: C_6  and  C_8
REMARK    6  A    between atoms: C_19  and  C_21
REMARK    7  A    between atoms: C_26  and  C_27
REMARK    8  A    between atoms: O_31  and  C_32
REMARK                            x       y       z     vdW  Elec       q    Type
REMARK                         _______ _______ _______ _____ _____    ______ ____
ROOT
ATOM      1  C   UNL     1       2.097  -5.465  -3.123  0.00  0.00    +0.100 C 
ATOM      2  C   UNL     1       2.919  -5.968  -1.916  0.00  0.00    +0.121 C 
ATOM      3  N   UNL     1       3.977  -6.819  -2.511  0.00  0.00    -0.296 N 
ATOM      4  C   UNL     1       4.380  -6.097  -3.742  0.00  0.00    +0.115 C 
ATOM      5  C   UNL     1       3.059  -5.550  -4.320  0.00  0.00    -0.004 C 
ATOM      6  C   UNL     1       3.280  -4.165  -4.920  0.00  0.00    -0.010 C 
ATOM      7  C   UNL     1       4.194  -4.283  -6.143  0.00  0.00    -0.082 C 
ATOM      8  N   UNL     1       3.577  -5.174  -7.133  0.00  0.00    +0.379 N 
ATOM      9  C   UNL     1       3.453  -6.528  -6.579  0.00  0.00    -0.082 C 
ATOM     10  C   UNL     1       2.508  -6.505  -5.374  0.00  0.00    -0.010 C 
ATOM     11  C   UNL     1       4.462  -7.985  -2.041  0.00  0.00    +0.247 C 
ATOM     12  O   UNL     1       5.398  -8.523  -2.599  0.00  0.00    -0.270 OA
ATOM     13  H   UNL     1       2.661  -4.826  -7.372  0.00  0.00    -0.086 HD
ATOM     14  H   UNL     1       4.151  -5.203  -7.962  0.00  0.00    -0.086 HD
ENDROOT
BRANCH  11  15
ATOM     15  C   UNL     1       3.856  -8.609  -0.846  0.00  0.00    +0.049 A 
ATOM     16  C   UNL     1       3.591  -7.840   0.289  0.00  0.00    +0.013 A 
ATOM     17  C   UNL     1       3.025  -8.428   1.401  0.00  0.00    +0.001 A 
ATOM     18  C   UNL     1       2.720  -9.778   1.393  0.00  0.00    +0.001 A 
ATOM     19  C   UNL     1       2.981 -10.546   0.272  0.00  0.00    +0.013 A 
ATOM     20  C   UNL     1       3.541  -9.968  -0.849  0.00  0.00    +0.067 A 
BRANCH  20  21
ATOM     21  C   UNL     1       3.818 -10.805  -2.071  0.00  0.00    +0.418 C 
ATOM     22  F   UNL     1       3.420 -12.125  -1.833  0.00  0.00    -0.166 F 
ATOM     23  F   UNL     1       3.105 -10.292  -3.159  0.00  0.00    -0.166 F 
ATOM     24  F   UNL     1       5.188 -10.776  -2.355  0.00  0.00    -0.166 F 
ENDBRANCH  20  21
ENDBRANCH  11  15
BRANCH   1  26
ATOM     25  N   UNL     1       0.515  -3.593  -3.456  0.00  0.00    -0.312 N 
ATOM     26  C   UNL     1       1.659  -4.040  -2.902  0.00  0.00    +0.218 C 
ATOM     27  O   UNL     1       2.337  -3.295  -2.226  0.00  0.00    -0.275 OA
ATOM     28  H   UNL     1      -0.027  -4.188  -3.997  0.00  0.00    +0.149 HD
BRANCH  25  29
ATOM     29  C   UNL     1       0.089  -2.208  -3.241  0.00  0.00    +0.148 C 
BRANCH  29  31
ATOM     30  C   UNL     1      -1.675  -0.513  -3.749  0.00  0.00    +0.053 C 
ATOM     31  C   UNL     1      -1.231  -1.960  -3.974  0.00  0.00    +0.187 C 
BRANCH  31  32
ATOM     32  O   UNL     1      -1.051  -2.192  -5.372  0.00  0.00    -0.488 OA
BRANCH  32  33
ATOM     33  C   UNL     1      -2.144  -2.583  -6.079  0.00  0.00    +0.121 A 
ATOM     34  C   UNL     1      -2.023  -2.910  -7.421  0.00  0.00    +0.045 A 
ATOM     35  C   UNL     1      -3.136  -3.308  -8.137  0.00  0.00    +0.004 A 
ATOM     36  C   UNL     1      -4.369  -3.379  -7.516  0.00  0.00    +0.000 A 
ATOM     37  C   UNL     1      -4.493  -3.053  -6.178  0.00  0.00    +0.004 A 
ATOM     38  C   UNL     1      -3.382  -2.661  -5.457  0.00  0.00    +0.045 A 
ENDBRANCH  32  33
ENDBRANCH  31  32
ENDBRANCH  29  31
ENDBRANCH  25  29
ENDBRANCH   1  26
TORSDOF 7
