REMARK  Name = ZINC20795794
REMARK  11 active torsions:
REMARK  status: ('A' for Active; 'I' for Inactive)
REMARK    1  A    between atoms: C_1  and  C_2
REMARK    2  A    between atoms: C_2  and  O_3
REMARK    3  A    between atoms: O_3  and  C_4
REMARK    4  A    between atoms: C_4  and  C_6
REMARK    5  A    between atoms: C_10  and  N_11
REMARK    6  A    between atoms: C_12  and  C_14
REMARK    7  A    between atoms: C_14  and  N_15
REMARK    8  A    between atoms: C_18  and  C_22
REMARK    9  A    between atoms: C_18  and  C_23
REMARK   10  A    between atoms: C_26  and  C_29
REMARK   11  A    between atoms: C_32  and  C_36
REMARK                            x       y       z     vdW  Elec       q    Type
REMARK                         _______ _______ _______ _____ _____    ______ ____
ROOT
ATOM      1  N   UNL     1      -1.898  -3.190  -0.638  0.00  0.00    -0.278 N 
ATOM      2  C   UNL     1      -1.555  -4.490  -0.540  0.00  0.00    +0.236 C 
ATOM      3  O   UNL     1      -0.437  -4.797  -0.184  0.00  0.00    -0.274 OA
ATOM      4  H   UNL     1      -2.913  -2.912  -0.961  0.00  0.00    +0.155 HD
ENDROOT
BRANCH   1   9
ATOM      5  C   UNL     1      -1.137  -0.826  -0.371  0.00  0.00    +0.091 A 
ATOM      6  C   UNL     1       0.002  -0.004   0.002  0.00  0.00    -0.021 A 
ATOM      7  C   UNL     1       1.114  -0.686   0.352  0.00  0.00    -0.004 A 
ATOM      8  S   UNL     1       0.667  -2.392   0.192  0.00  0.00    -0.077 S 
ATOM      9  C   UNL     1      -0.974  -2.204  -0.332  0.00  0.00    +0.086 A 
ATOM     10  C   UNL     1       2.429  -0.112   0.780  0.00  0.00    +0.046 C 
ATOM     11  C   UNL     1       2.220   1.369   1.126  0.00  0.00    -0.009 C 
ATOM     12  C   UNL     1       1.423   2.031  -0.001  0.00  0.00    +0.008 C 
ATOM     13  C   UNL     1      -0.019   1.520   0.010  0.00  0.00    +0.037 C 
ATOM     14  C   UNL     1       3.578   2.058   1.272  0.00  0.00    +0.008 C 
BRANCH   5  15
ATOM     15  C   UNL     1      -2.410  -0.223  -0.773  0.00  0.00    +0.342 C 
ATOM     16  O   UNL     1      -2.616   0.037  -1.944  0.00  0.00    -0.245 OA
BRANCH  15  17
ATOM     17  O   UNL     1      -3.352   0.044   0.154  0.00  0.00    -0.461 OA
BRANCH  17  19
ATOM     18  C   UNL     1      -5.529   0.870   0.869  0.00  0.00    +0.048 C 
ATOM     19  C   UNL     1      -4.589   0.642  -0.317  0.00  0.00    +0.229 C 
ENDBRANCH  17  19
ENDBRANCH  15  17
ENDBRANCH   5  15
ENDBRANCH   1   9
BRANCH   2  20
ATOM     20  C   UNL     1      -2.560  -5.562  -0.873  0.00  0.00    +0.214 C 
BRANCH  20  21
ATOM     21  N   UNL     1      -1.948  -6.880  -0.689  0.00  0.00    -0.215 N 
ATOM     22  C   UNL     1      -1.972  -7.571   0.468  0.00  0.00    +0.251 C 
ATOM     23  O   UNL     1      -2.485  -7.233   1.513  0.00  0.00    -0.272 OA
ATOM     24  C   UNL     1      -1.225  -8.861   0.190  0.00  0.00    +0.135 C 
ATOM     25  N   UNL     1      -0.829  -8.734  -1.223  0.00  0.00    -0.281 N 
ATOM     26  C   UNL     1      -1.300  -7.549  -1.650  0.00  0.00    +0.310 C 
ATOM     27  O   UNL     1      -1.151  -7.130  -2.781  0.00  0.00    -0.252 OA
ATOM     28  C   UNL     1      -2.143 -10.068   0.387  0.00  0.00    +0.047 C 
ATOM     29  H   UNL     1      -0.257  -9.539  -1.708  0.00  0.00    +0.152 HD
BRANCH  24  30
ATOM     30  C   UNL     1      -0.008  -8.969   1.073  0.00  0.00    -0.015 A 
ATOM     31  C   UNL     1      -0.010  -8.377   2.324  0.00  0.00    +0.007 A 
ATOM     32  C   UNL     1       1.098  -8.477   3.139  0.00  0.00    +0.019 A 
ATOM     33  C   UNL     1       2.228  -9.167   2.696  0.00  0.00    +0.052 A 
ATOM     34  C   UNL     1       2.225  -9.758   1.430  0.00  0.00    +0.019 A 
ATOM     35  C   UNL     1       1.107  -9.655   0.627  0.00  0.00    +0.007 A 
BRANCH  33  36
ATOM     36  C   UNL     1       3.384  -9.269   3.534  0.00  0.00    +0.099 C 
ATOM     37  N   UNL     1       4.301  -9.350   4.199  0.00  0.00    -0.191 NA
ENDBRANCH  33  36
ENDBRANCH  24  30
ENDBRANCH  20  21
ENDBRANCH   2  20
TORSDOF 8
