REMARK  Name = ZINC56933984
REMARK  5 active torsions:
REMARK  status: ('A' for Active; 'I' for Inactive)
REMARK    1  A    between atoms: C_1  and  C_2
REMARK    2  A    between atoms: C_3  and  C_16
REMARK    3  A    between atoms: N_18  and  C_19
REMARK    4  A    between atoms: C_23  and  N_25
REMARK    5  A    between atoms: C_26  and  C_28
REMARK                            x       y       z     vdW  Elec       q    Type
REMARK                         _______ _______ _______ _____ _____    ______ ____
ROOT
ATOM      1  C   UNL     1      -0.057   1.481   0.004  0.00  0.00    +0.068 C 
ATOM      2  C   UNL     1      -0.019  -0.025  -0.007  0.00  0.00    +0.076 A 
ATOM      3  C   UNL     1      -0.001  -0.831  -1.111  0.00  0.00    +0.171 A 
ATOM      4  N   UNL     1       0.032  -2.112  -0.702  0.00  0.00    -0.124 NA
ATOM      5  N   UNL     1       0.037  -2.154   0.585  0.00  0.00    -0.058 NA
ATOM      6  N   UNL     1       0.011  -0.840   1.071  0.00  0.00    -0.192 N 
ATOM      7  C   UNL     1       0.012  -0.448   2.410  0.00  0.00    +0.196 A 
ATOM      8  N   UNL     1      -0.021   0.769   2.904  0.00  0.00    -0.226 NA
ATOM      9  C   UNL     1      -0.016   0.998   4.213  0.00  0.00    +0.054 A 
ATOM     10  C   UNL     1       0.026  -0.119   4.987  0.00  0.00    +0.015 A 
ATOM     11  S   UNL     1       0.048  -1.420   3.786  0.00  0.00    -0.052 S 
ATOM     12  C   UNL     1       0.045  -0.195   6.476  0.00  0.00    +0.044 C 
ATOM     13  C   UNL     1       0.379   1.203   7.023  0.00  0.00    +0.006 C 
ATOM     14  C   UNL     1      -0.496   2.236   6.308  0.00  0.00    +0.006 C 
ATOM     15  C   UNL     1      -0.055   2.380   4.849  0.00  0.00    +0.056 C 
ENDROOT
BRANCH   3  16
ATOM     16  C   UNL     1      -0.017  -0.374  -2.513  0.00  0.00    +0.270 C 
ATOM     17  O   UNL     1      -0.049   0.815  -2.764  0.00  0.00    -0.268 OA
ATOM     18  N   UNL     1       0.003  -1.274  -3.515  0.00  0.00    -0.280 N 
ATOM     19  H   UNL     1       0.096  -2.219  -3.317  0.00  0.00    +0.155 HD
BRANCH  18  20
ATOM     20  C   UNL     1      -0.110  -0.846  -4.842  0.00  0.00    +0.035 A 
ATOM     21  C   UNL     1      -0.796  -1.623  -5.768  0.00  0.00    +0.023 A 
ATOM     22  C   UNL     1      -0.907  -1.200  -7.078  0.00  0.00    +0.004 A 
ATOM     23  C   UNL     1      -0.337  -0.005  -7.473  0.00  0.00    +0.023 A 
ATOM     24  C   UNL     1       0.350   0.775  -6.553  0.00  0.00    +0.035 A 
ATOM     25  C   UNL     1       0.459   0.357  -5.234  0.00  0.00    +0.046 A 
BRANCH  24  26
ATOM     26  N   UNL     1       0.928   1.985  -6.953  0.00  0.00    -0.286 N 
ATOM     27  C   UNL     1       0.319   2.747  -7.883  0.00  0.00    +0.214 C 
ATOM     28  O   UNL     1      -0.685   2.346  -8.434  0.00  0.00    -0.276 OA
ATOM     29  C   UNL     1       0.885   4.098  -8.240  0.00  0.00    +0.109 C 
ATOM     30  H   UNL     1       1.766   2.276  -6.562  0.00  0.00    +0.155 HD
ENDBRANCH  24  26
ENDBRANCH  18  20
ENDBRANCH   3  16
TORSDOF 3
