REMARK  Name = ZINC48930899
REMARK  5 active torsions:
REMARK  status: ('A' for Active; 'I' for Inactive)
REMARK    1  A    between atoms: C_1  and  C_2
REMARK    2  A    between atoms: C_5  and  N_9
REMARK    3  A    between atoms: C_10  and  C_12
REMARK    4  A    between atoms: C_15  and  N_21
REMARK    5  A    between atoms: C_16  and  N_18
REMARK                            x       y       z     vdW  Elec       q    Type
REMARK                         _______ _______ _______ _____ _____    ______ ____
ROOT
ATOM      1  N   UNL     1       0.019  -4.246   0.192  0.00  0.00    -0.281 N 
ATOM      2  C   UNL     1      -0.080  -4.842  -1.013  0.00  0.00    +0.248 C 
ATOM      3  O   UNL     1      -0.110  -4.167  -2.025  0.00  0.00    -0.270 OA
ATOM      4  H   UNL     1       0.129  -4.784   0.991  0.00  0.00    +0.155 HD
ENDROOT
BRANCH   1   9
ATOM      5  C   UNL     1      -0.206   1.409   0.587  0.00  0.00    +0.044 C 
ATOM      6  C   UNL     1      -0.145  -0.093   0.482  0.00  0.00    -0.049 A 
ATOM      7  C   UNL     1      -0.733  -0.734  -0.594  0.00  0.00    +0.005 A 
ATOM      8  C   UNL     1      -0.680  -2.110  -0.693  0.00  0.00    +0.025 A 
ATOM      9  C   UNL     1      -0.035  -2.851   0.289  0.00  0.00    +0.048 A 
ATOM     10  C   UNL     1       0.555  -2.205   1.368  0.00  0.00    +0.039 A 
ATOM     11  C   UNL     1       0.502  -0.827   1.458  0.00  0.00    +0.020 A 
ATOM     12 BR   UNL     1       1.434  -3.209   2.708  0.00  0.00    -0.048 Br
ENDBRANCH   1   9
BRANCH   2  13
ATOM     13  C   UNL     1      -0.152  -6.312  -1.105  0.00  0.00    +0.039 A 
ATOM     14  C   UNL     1      -0.124  -7.089   0.057  0.00  0.00    +0.015 A 
ATOM     15  C   UNL     1      -0.192  -8.460  -0.032  0.00  0.00    +0.026 A 
ATOM     16  C   UNL     1      -0.289  -9.074  -1.277  0.00  0.00    +0.055 A 
ATOM     17  C   UNL     1      -0.317  -8.304  -2.436  0.00  0.00    +0.147 A 
ATOM     18  C   UNL     1      -0.256  -6.931  -2.354  0.00  0.00    +0.047 A 
BRANCH  17  19
ATOM     19  N   UNL     1      -0.419  -8.961  -3.759  0.00  0.00    +0.058 N 
ATOM     20  O   UNL     1       0.006  -8.405  -4.745  0.00  0.00    -0.126 OA
ATOM     21  O   UNL     1      -0.928 -10.054  -3.853  0.00  0.00    -0.126 OA
ENDBRANCH  17  19
BRANCH  16  22
ATOM     22  N   UNL     1      -0.357 -10.461  -1.364  0.00  0.00    -0.356 N 
ATOM     23  H   UNL     1      -0.415 -10.995  -0.556  0.00  0.00    +0.142 HD
ATOM     24  H   UNL     1      -0.347 -10.893  -2.232  0.00  0.00    +0.142 HD
ENDBRANCH  16  22
ENDBRANCH   2  13
TORSDOF 4
