REMARK  Name = ZINC10797490
REMARK  5 active torsions:
REMARK  status: ('A' for Active; 'I' for Inactive)
REMARK    1  A    between atoms: C_7  and  C_15
REMARK    2  A    between atoms: C_15  and  O_17
REMARK    3  A    between atoms: O_17  and  C_18
REMARK    4  A    between atoms: C_18  and  C_19
REMARK    5  A    between atoms: N_24  and  C_25
REMARK                            x       y       z     vdW  Elec       q    Type
REMARK                         _______ _______ _______ _____ _____    ______ ____
ROOT
ATOM      1  O   UNL     1      -1.612   5.497  -1.917  0.00  0.00    -0.455 OA
ENDROOT
BRANCH   1   2
ATOM      2  C   UNL     1      -0.468   5.883  -1.331  0.00  0.00    +0.320 C 
ATOM      3  O   UNL     1       0.291   6.621  -1.914  0.00  0.00    -0.250 OA
BRANCH   2  10
ATOM      4  C   UNL     1      -1.228   1.791   0.045  0.00  0.00    +0.001 A 
ATOM      5  C   UNL     1      -0.016   1.123   0.044  0.00  0.00    +0.004 A 
ATOM      6  C   UNL     1       1.165   1.837   0.040  0.00  0.00    +0.046 A 
ATOM      7  C   UNL     1       1.140   3.228   0.044  0.00  0.00    +0.133 A 
ATOM      8  C   UNL     1      -0.074   3.893   0.050  0.00  0.00    +0.013 A 
ATOM      9  C   UNL     1      -1.256   3.172   0.054  0.00  0.00    +0.008 A 
ATOM     10  C   UNL     1      -0.129   5.396   0.054  0.00  0.00    +0.165 C 
ATOM     11  C   UNL     1       1.196   5.973   0.473  0.00  0.00    +0.013 A 
ATOM     12  C   UNL     1       1.260   7.291   0.889  0.00  0.00    +0.008 A 
ATOM     13  C   UNL     1       2.467   7.840   1.278  0.00  0.00    +0.001 A 
ATOM     14  C   UNL     1       3.617   7.072   1.252  0.00  0.00    +0.004 A 
ATOM     15  C   UNL     1       3.559   5.757   0.837  0.00  0.00    +0.046 A 
ATOM     16  C   UNL     1       2.346   5.201   0.445  0.00  0.00    +0.133 A 
ATOM     17  O   UNL     1       2.310   3.909   0.040  0.00  0.00    -0.455 OA
ENDBRANCH   2  10
ENDBRANCH   1   2
BRANCH   1  18
ATOM     18  C   UNL     1      -1.873   6.005  -3.252  0.00  0.00    +0.328 C 
BRANCH  18  19
ATOM     19  C   UNL     1      -3.192   5.469  -3.745  0.00  0.00    +0.258 C 
ATOM     20  O   UNL     1      -3.848   4.731  -3.041  0.00  0.00    -0.272 OA
ATOM     21  N   UNL     1      -3.643   5.809  -4.969  0.00  0.00    -0.237 N 
ATOM     22  C   UNL     1      -4.823   5.329  -5.409  0.00  0.00    +0.310 C 
ATOM     23  O   UNL     1      -5.481   4.590  -4.703  0.00  0.00    -0.252 OA
ATOM     24  N   UNL     1      -5.274   5.669  -6.633  0.00  0.00    -0.267 N 
ATOM     25  H   UNL     1      -3.119   6.399  -5.532  0.00  0.00    +0.159 HD
ATOM     26  H   UNL     1      -4.782   6.309  -7.170  0.00  0.00    +0.156 HD
BRANCH  24  27
ATOM     27  C   UNL     1      -6.454   5.098  -7.128  0.00  0.00    +0.070 A 
ATOM     28  C   UNL     1      -7.500   4.803  -6.265  0.00  0.00    +0.026 A 
ATOM     29  C   UNL     1      -8.663   4.245  -6.757  0.00  0.00    +0.002 A 
ATOM     30  C   UNL     1      -8.784   3.969  -8.107  0.00  0.00    +0.003 A 
ATOM     31  C   UNL     1      -7.743   4.256  -8.970  0.00  0.00    +0.040 A 
ATOM     32  C   UNL     1      -6.577   4.820  -8.485  0.00  0.00    +0.145 A 
ATOM     33  F   UNL     1      -5.559   5.100  -9.328  0.00  0.00    -0.204 F 
ENDBRANCH  24  27
ENDBRANCH  18  19
ENDBRANCH   1  18
TORSDOF 5
