REMARK  Name = ZINC45071634
REMARK  5 active torsions:
REMARK  status: ('A' for Active; 'I' for Inactive)
REMARK    1  A    between atoms: C_2  and  N_22
REMARK    2  A    between atoms: C_4  and  S_18
REMARK    3  A    between atoms: C_6  and  N_7
REMARK    4  A    between atoms: C_11  and  C_13
REMARK    5  A    between atoms: S_18  and  N_21
REMARK                            x       y       z     vdW  Elec       q    Type
REMARK                         _______ _______ _______ _____ _____    ______ ____
ROOT
ATOM      1  C   UNL     1       0.135   1.077   0.232  0.00  0.00    +0.046 A 
ATOM      2  C   UNL     1       1.400   1.640   0.329  0.00  0.00    +0.028 A 
ATOM      3  C   UNL     1       2.521   0.820   0.389  0.00  0.00    +0.051 A 
ATOM      4  C   UNL     1       2.377  -0.553   0.352  0.00  0.00    +0.108 A 
ATOM      5  C   UNL     1       1.119  -1.117   0.255  0.00  0.00    +0.051 A 
ATOM      6  C   UNL     1      -0.006  -0.303   0.195  0.00  0.00    +0.034 A 
ENDROOT
BRANCH   6   7
ATOM      7  N   UNL     1      -1.277  -0.873   0.098  0.00  0.00    -0.326 N 
ATOM      8  C   UNL     1      -1.570  -2.317   0.056  0.00  0.00    +0.105 C 
ATOM      9  C   UNL     1      -2.942  -2.423  -0.654  0.00  0.00    +0.021 C 
ATOM     10  C   UNL     1      -3.677  -1.174  -0.100  0.00  0.00    +0.024 C 
ATOM     11  C   UNL     1      -2.545  -0.133   0.027  0.00  0.00    +0.077 C 
BRANCH  11  12
ATOM     12  C   UNL     1      -2.736   0.696   1.299  0.00  0.00    +0.009 C 
ATOM     13  C   UNL     1      -2.759  -0.229   2.533  0.00  0.00    +0.005 C 
ATOM     14  C   UNL     1      -3.816   0.410   3.467  0.00  0.00    +0.000 C 
ATOM     15  C   UNL     1      -4.900   0.898   2.474  0.00  0.00    +0.000 C 
ATOM     16  C   UNL     1      -4.098   1.413   1.261  0.00  0.00    +0.005 C 
ENDBRANCH  11  12
ENDBRANCH   6   7
BRANCH   4  17
ATOM     17  S   UNL     1       3.800  -1.589   0.429  0.00  0.00    +0.056 S 
ATOM     18  O   UNL     1       3.437  -2.824  -0.172  0.00  0.00    -0.153 OA
ATOM     19  O   UNL     1       4.895  -0.810  -0.033  0.00  0.00    -0.153 OA
BRANCH  17  20
ATOM     20  N   UNL     1       4.088  -1.908   2.028  0.00  0.00    -0.204 NA
ATOM     21  H   UNL     1       3.508  -1.534   2.710  0.00  0.00    +0.144 HD
ATOM     22  H   UNL     1       4.838  -2.468   2.284  0.00  0.00    +0.144 HD
ENDBRANCH  17  20
ENDBRANCH   4  17
BRANCH   2  23
ATOM     23  N   UNL     1       1.547   3.028   0.366  0.00  0.00    -0.358 N 
ATOM     24  H   UNL     1       0.764   3.600   0.323  0.00  0.00    +0.142 HD
ATOM     25  H   UNL     1       2.431   3.421   0.433  0.00  0.00    +0.142 HD
ENDBRANCH   2  23
TORSDOF 5
