REMARK  Name = ZINC39608935
REMARK  8 active torsions:
REMARK  status: ('A' for Active; 'I' for Inactive)
REMARK    1  A    between atoms: C_1  and  C_2
REMARK    2  A    between atoms: C_2  and  C_3
REMARK    3  A    between atoms: C_6  and  C_9
REMARK    4  A    between atoms: C_13  and  C_22
REMARK    5  A    between atoms: N_24  and  C_25
REMARK    6  A    between atoms: C_30  and  O_32
REMARK    7  A    between atoms: O_32  and  C_33
REMARK    8  A    between atoms: C_33  and  C_34
REMARK                            x       y       z     vdW  Elec       q    Type
REMARK                         _______ _______ _______ _____ _____    ______ ____
ROOT
ATOM      1  C   UNL     1       2.696  -1.865  -4.739  0.00  0.00    +0.247 C 
ATOM      2  O   UNL     1       2.054  -2.171  -5.725  0.00  0.00    -0.270 OA
ATOM      3  N   UNL     1       4.039  -1.979  -4.746  0.00  0.00    -0.296 N 
ATOM      4  C   UNL     1       4.974  -1.781  -3.614  0.00  0.00    +0.121 C 
ATOM      5  C   UNL     1       6.036  -2.890  -3.785  0.00  0.00    +0.100 C 
ATOM      6  C   UNL     1       5.994  -3.245  -5.281  0.00  0.00    -0.004 C 
ATOM      7  C   UNL     1       4.914  -2.337  -5.888  0.00  0.00    +0.115 C 
ATOM      8  C   UNL     1       5.607  -4.710  -5.465  0.00  0.00    -0.010 C 
ATOM      9  C   UNL     1       5.628  -5.054  -6.957  0.00  0.00    -0.082 C 
ATOM     10  N   UNL     1       6.970  -4.809  -7.500  0.00  0.00    +0.379 N 
ATOM     11  C   UNL     1       7.296  -3.381  -7.403  0.00  0.00    -0.082 C 
ATOM     12  C   UNL     1       7.346  -2.966  -5.929  0.00  0.00    -0.010 C 
ATOM     13  H   UNL     1       7.646  -5.343  -6.975  0.00  0.00    -0.086 HD
ATOM     14  H   UNL     1       6.997  -5.094  -8.467  0.00  0.00    -0.086 HD
ENDROOT
BRANCH   1  18
ATOM     15  C   UNL     1       0.705  -0.438  -1.268  0.00  0.00    -0.048 A 
ATOM     16  C   UNL     1       0.029  -1.241  -2.169  0.00  0.00    +0.004 A 
ATOM     17  C   UNL     1       0.670  -1.708  -3.298  0.00  0.00    +0.013 A 
ATOM     18  C   UNL     1       2.003  -1.368  -3.531  0.00  0.00    +0.037 A 
ATOM     19  C   UNL     1       2.680  -0.557  -2.619  0.00  0.00    +0.013 A 
ATOM     20  C   UNL     1       2.026  -0.092  -1.496  0.00  0.00    +0.004 A 
BRANCH  15  22
ATOM     21  C   UNL     1      -0.671   1.408  -0.348  0.00  0.00    +0.009 C 
ATOM     22  C   UNL     1      -0.001   0.069  -0.037  0.00  0.00    +0.032 C 
ENDBRANCH  15  22
ENDBRANCH   1  18
BRANCH   5  23
ATOM     23  C   UNL     1       5.681  -4.091  -2.948  0.00  0.00    +0.218 C 
ATOM     24  O   UNL     1       4.518  -4.398  -2.790  0.00  0.00    -0.275 OA
ATOM     25  N   UNL     1       6.655  -4.824  -2.374  0.00  0.00    -0.310 N 
ATOM     26  H   UNL     1       7.585  -4.579  -2.500  0.00  0.00    +0.149 HD
BRANCH  25  27
ATOM     27  C   UNL     1       6.309  -5.992  -1.560  0.00  0.00    +0.102 C 
ATOM     28  C   UNL     1       6.052  -5.563  -0.105  0.00  0.00    +0.025 C 
ATOM     29  C   UNL     1       7.089  -6.306   0.764  0.00  0.00    +0.004 C 
ATOM     30  C   UNL     1       7.475  -7.544  -0.082  0.00  0.00    +0.033 C 
ATOM     31  C   UNL     1       7.493  -6.981  -1.526  0.00  0.00    +0.139 C 
BRANCH  31  32
ATOM     32  O   UNL     1       7.295  -8.031  -2.475  0.00  0.00    -0.370 OA
BRANCH  32  33
ATOM     33  C   UNL     1       8.507  -8.568  -3.009  0.00  0.00    +0.195 C 
BRANCH  33  34
ATOM     34  C   UNL     1       8.181  -9.662  -3.994  0.00  0.00    -0.022 A 
ATOM     35  C   UNL     1       8.057 -10.968  -3.560  0.00  0.00    +0.006 A 
ATOM     36  C   UNL     1       7.758 -11.971  -4.463  0.00  0.00    +0.000 A 
ATOM     37  C   UNL     1       7.582 -11.667  -5.800  0.00  0.00    +0.000 A 
ATOM     38  C   UNL     1       7.704 -10.360  -6.234  0.00  0.00    +0.000 A 
ATOM     39  C   UNL     1       7.999  -9.357  -5.330  0.00  0.00    +0.006 A 
ENDBRANCH  33  34
ENDBRANCH  32  33
ENDBRANCH  31  32
ENDBRANCH  25  27
ENDBRANCH   5  23
TORSDOF 7
