REMARK  Name = ZINC33170514
REMARK  5 active torsions:
REMARK  status: ('A' for Active; 'I' for Inactive)
REMARK    1  A    between atoms: C_3  and  C_18
REMARK    2  A    between atoms: C_5  and  N_7
REMARK    3  A    between atoms: N_7  and  S_8
REMARK    4  A    between atoms: S_8  and  C_11
REMARK    5  A    between atoms: N_20  and  C_21
REMARK                            x       y       z     vdW  Elec       q    Type
REMARK                         _______ _______ _______ _____ _____    ______ ____
ROOT
ATOM      1  C   UNL     1       2.348   1.341   0.099  0.00  0.00    +0.003 A 
ATOM      2  C   UNL     1       1.151   2.005   0.274  0.00  0.00    +0.013 A 
ATOM      3  C   UNL     1      -0.042   1.285   0.350  0.00  0.00    +0.039 A 
ATOM      4  C   UNL     1      -0.019  -0.106   0.249  0.00  0.00    +0.037 A 
ATOM      5  C   UNL     1       1.188  -0.764   0.074  0.00  0.00    +0.049 A 
ATOM      6  C   UNL     1       2.371  -0.038  -0.001  0.00  0.00    +0.024 A 
ENDROOT
BRANCH   3   7
ATOM      7  C   UNL     1      -1.326   1.994   0.532  0.00  0.00    +0.248 C 
ATOM      8  O   UNL     1      -2.365   1.365   0.593  0.00  0.00    -0.270 OA
ATOM      9  N   UNL     1      -1.345   3.338   0.629  0.00  0.00    -0.280 N 
ATOM     10  H   UNL     1      -0.401   3.902   0.652  0.00  0.00    +0.155 HD
BRANCH   9  11
ATOM     11  C   UNL     1      -2.564   4.016   0.701  0.00  0.00    +0.062 A 
ATOM     12  C   UNL     1      -3.620   3.453   1.350  0.00  0.00    +0.025 A 
ATOM     13  C   UNL     1      -4.849   4.102   1.438  0.00  0.00    +0.004 A 
ATOM     14  C   UNL     1      -5.050   5.322   0.883  0.00  0.00    +0.031 A 
ATOM     15  C   UNL     1      -3.995   5.972   0.190  0.00  0.00    +0.102 A 
ATOM     16  C   UNL     1      -2.703   5.300   0.099  0.00  0.00    +0.121 A 
ATOM     17  N   UNL     1      -1.812   6.017  -0.580  0.00  0.00    -0.189 NA
ATOM     18  S   UNL     1      -2.544   7.336  -1.005  0.00  0.00    +0.117 S 
ATOM     19  N   UNL     1      -3.986   7.156  -0.419  0.00  0.00    -0.191 NA
ENDBRANCH   9  11
ENDBRANCH   3   7
BRANCH   5  20
ATOM     20  N   UNL     1       1.216  -2.157  -0.029  0.00  0.00    -0.216 N 
ATOM     21  H   UNL     1       0.644  -2.773   0.681  0.00  0.00    +0.174 HD
BRANCH  20  22
ATOM     22  S   UNL     1       2.111  -2.882  -1.219  0.00  0.00    +0.072 S 
ATOM     23  O   UNL     1       3.422  -2.342  -1.127  0.00  0.00    -0.150 OA
ATOM     24  O   UNL     1       1.853  -4.277  -1.128  0.00  0.00    -0.150 OA
BRANCH  22  25
ATOM     25  C   UNL     1       1.453  -2.348  -2.764  0.00  0.00    +0.109 A 
ATOM     26  C   UNL     1       0.375  -3.009  -3.321  0.00  0.00    +0.030 A 
ATOM     27  C   UNL     1      -0.144  -2.587  -4.531  0.00  0.00    +0.017 A 
ATOM     28  C   UNL     1       0.422  -1.510  -5.188  0.00  0.00    +0.018 A 
ATOM     29  C   UNL     1       1.504  -0.852  -4.632  0.00  0.00    +0.017 A 
ATOM     30  C   UNL     1       2.020  -1.271  -3.420  0.00  0.00    +0.030 A 
ATOM     31 BR   UNL     1      -0.284  -0.936  -6.846  0.00  0.00    -0.050 Br
ENDBRANCH  22  25
ENDBRANCH  20  22
ENDBRANCH   5  20
TORSDOF 5
