REMARK  Name = ZINC43746539
REMARK  7 active torsions:
REMARK  status: ('A' for Active; 'I' for Inactive)
REMARK    1  A    between atoms: C_1  and  C_2
REMARK    2  A    between atoms: C_19  and  C_21
REMARK    3  A    between atoms: C_21  and  N_22
REMARK    4  A    between atoms: C_26  and  C_28
REMARK    5  A    between atoms: C_28  and  C_29
REMARK    6  A    between atoms: C_28  and  C_35
REMARK    7  A    between atoms: C_28  and  O_41
REMARK                            x       y       z     vdW  Elec       q    Type
REMARK                         _______ _______ _______ _____ _____    ______ ____
ROOT
ATOM      1  N   UNL     1      -2.041  -4.488   3.999  0.00  0.00    +0.384 N 
ATOM      2  C   UNL     1      -0.950  -5.450   3.735  0.00  0.00    -0.078 C 
ATOM      3  C   UNL     1       0.044  -5.253   4.906  0.00  0.00    -0.020 C 
ATOM      4  C   UNL     1      -0.919  -4.995   6.094  0.00  0.00    -0.014 C 
ATOM      5  C   UNL     1      -2.067  -4.193   5.444  0.00  0.00    -0.027 C 
ATOM      6  H   UNL     1      -2.923  -4.892   3.720  0.00  0.00    -0.081 HD
ENDROOT
BRANCH   1   7
ATOM      7  C   UNL     1      -1.802  -3.250   3.246  0.00  0.00    -0.063 C 
BRANCH   7  23
ATOM      8  C   UNL     1      -0.743  -1.875  -2.334  0.00  0.00    +0.012 C 
ATOM      9  C   UNL     1      -0.934  -3.273  -1.743  0.00  0.00    -0.022 C 
ATOM     10  C   UNL     1      -0.653  -4.325  -2.815  0.00  0.00    +0.007 C 
ATOM     11  C   UNL     1       0.752  -4.119  -3.384  0.00  0.00    +0.005 C 
ATOM     12  C   UNL     1       1.790  -4.333  -2.279  0.00  0.00    +0.030 C 
ATOM     13  C   UNL     1       1.448  -3.433  -1.111  0.00  0.00    -0.073 C 
ATOM     14  C   UNL     1       2.349  -2.642  -0.584  0.00  0.00    +0.008 C 
ATOM     15  C   UNL     1       0.038  -3.474  -0.570  0.00  0.00    +0.021 C 
ATOM     16  C   UNL     1      -0.168  -2.317   0.406  0.00  0.00    +0.016 C 
ATOM     17  C   UNL     1      -1.585  -2.278   0.924  0.00  0.00    +0.042 C 
ATOM     18  C   UNL     1      -2.657  -2.331  -0.181  0.00  0.00    +0.181 C 
ATOM     19  C   UNL     1      -2.355  -3.413  -1.207  0.00  0.00    +0.052 C 
ATOM     20  O   UNL     1      -3.817  -2.786   0.571  0.00  0.00    -0.461 OA
ATOM     21  C   UNL     1      -3.404  -3.766   1.403  0.00  0.00    +0.309 C 
ATOM     22  O   UNL     1      -4.081  -4.686   1.798  0.00  0.00    -0.251 OA
ATOM     23  C   UNL     1      -1.951  -3.528   1.748  0.00  0.00    +0.088 C 
ENDBRANCH   7  23
ENDBRANCH   1   7
BRANCH   5  24
ATOM     24  C   UNL     1      -3.408  -4.626   6.040  0.00  0.00    +0.104 C 
BRANCH  24  25
ATOM     25  C   UNL     1      -3.446  -4.265   7.503  0.00  0.00    -0.013 A 
ATOM     26  C   UNL     1      -2.748  -3.165   7.962  0.00  0.00    +0.007 A 
ATOM     27  C   UNL     1      -2.783  -2.834   9.304  0.00  0.00    +0.000 A 
ATOM     28  C   UNL     1      -3.518  -3.604  10.186  0.00  0.00    +0.000 A 
ATOM     29  C   UNL     1      -4.217  -4.705   9.727  0.00  0.00    +0.000 A 
ATOM     30  C   UNL     1      -4.185  -5.032   8.384  0.00  0.00    +0.007 A 
ENDBRANCH  24  25
BRANCH  24  31
ATOM     31  C   UNL     1      -4.528  -3.921   5.319  0.00  0.00    -0.013 A 
ATOM     32  C   UNL     1      -4.453  -2.561   5.087  0.00  0.00    +0.007 A 
ATOM     33  C   UNL     1      -5.481  -1.915   4.426  0.00  0.00    +0.000 A 
ATOM     34  C   UNL     1      -6.584  -2.630   3.997  0.00  0.00    +0.000 A 
ATOM     35  C   UNL     1      -6.659  -3.991   4.229  0.00  0.00    +0.000 A 
ATOM     36  C   UNL     1      -5.629  -4.637   4.886  0.00  0.00    +0.007 A 
ENDBRANCH  24  31
BRANCH  24  37
ATOM     37  O   UNL     1      -3.560  -6.039   5.893  0.00  0.00    -0.381 OA
ATOM     38  H   UNL     1      -3.545  -6.343   4.975  0.00  0.00    +0.211 HD
ENDBRANCH  24  37
ENDBRANCH   5  24
TORSDOF 6
