REMARK  Name = ZINC13640613
REMARK  10 active torsions:
REMARK  status: ('A' for Active; 'I' for Inactive)
REMARK    1  A    between atoms: C_1  and  O_2
REMARK    2  A    between atoms: O_2  and  C_3
REMARK    3  A    between atoms: C_5  and  C_13
REMARK    4  A    between atoms: C_7  and  O_11
REMARK    5  A    between atoms: C_8  and  O_9
REMARK    6  A    between atoms: O_9  and  C_10
REMARK    7  A    between atoms: O_11  and  C_12
REMARK    8  A    between atoms: C_24  and  S_29
REMARK    9  A    between atoms: S_29  and  N_32
REMARK   10  A    between atoms: N_32  and  C_33
REMARK                            x       y       z     vdW  Elec       q    Type
REMARK                         _______ _______ _______ _____ _____    ______ ____
ROOT
ATOM      1  C   UNL     1       1.336   4.562  -0.242  0.00  0.00    +0.105 C 
ATOM      2  C   UNL     1       0.817   3.191  -0.636  0.00  0.00    +0.029 C 
ATOM      3  C   UNL     1       1.502   1.973  -0.001  0.00  0.00    +0.033 C 
ATOM      4  C   UNL     1       0.361   0.954   0.018  0.00  0.00    -0.030 C 
ATOM      5  C   UNL     1      -0.808   1.582   0.038  0.00  0.00    -0.023 C 
ATOM      6  C   UNL     1      -0.560   3.046   0.079  0.00  0.00    +0.049 C 
ATOM      7  C   UNL     1      -1.494   4.013  -0.538  0.00  0.00    -0.018 A 
ATOM      8  C   UNL     1      -2.838   3.749  -0.689  0.00  0.00    +0.034 A 
ATOM      9  C   UNL     1      -3.679   4.698  -1.240  0.00  0.00    +0.106 A 
ATOM     10  C   UNL     1      -3.170   5.919  -1.646  0.00  0.00    +0.030 A 
ATOM     11  C   UNL     1      -1.824   6.189  -1.507  0.00  0.00    +0.025 A 
ATOM     12  C   UNL     1      -0.970   5.240  -0.958  0.00  0.00    +0.031 A 
ATOM     13  N   UNL     1       0.394   5.532  -0.842  0.00  0.00    -0.336 N 
ATOM     14  H   UNL     1       0.728   6.385  -1.161  0.00  0.00    +0.147 HD
ENDROOT
BRANCH   1  17
ATOM     15  C   UNL     1       2.468   4.446   3.362  0.00  0.00    +0.165 A 
ATOM     16  C   UNL     1       2.457   4.317   1.982  0.00  0.00    +0.055 A 
ATOM     17  C   UNL     1       1.344   4.705   1.259  0.00  0.00    -0.020 A 
ATOM     18  C   UNL     1       0.241   5.227   1.907  0.00  0.00    +0.055 A 
ATOM     19  C   UNL     1       0.242   5.355   3.288  0.00  0.00    +0.165 A 
ATOM     20  C   UNL     1       1.359   4.966   4.019  0.00  0.00    +0.204 A 
BRANCH  15  22
ATOM     21  C   UNL     1       4.667   3.540   3.332  0.00  0.00    +0.277 C 
ATOM     22  O   UNL     1       3.563   4.065   4.073  0.00  0.00    -0.491 OA
ENDBRANCH  15  22
BRANCH  20  23
ATOM     23  O   UNL     1       1.366   5.094   5.374  0.00  0.00    -0.488 OA
ATOM     24  C   UNL     1       1.852   6.328   5.907  0.00  0.00    +0.277 C 
ENDBRANCH  20  23
BRANCH  19  25
ATOM     25  O   UNL     1      -0.845   5.864   3.926  0.00  0.00    -0.491 OA
ATOM     26  C   UNL     1      -1.957   6.243   3.111  0.00  0.00    +0.277 C 
ENDBRANCH  19  25
ENDBRANCH   1  17
BRANCH   9  27
ATOM     27  S   UNL     1      -5.396   4.353  -1.429  0.00  0.00    +0.059 S 
ATOM     28  O   UNL     1      -5.716   3.351  -0.472  0.00  0.00    -0.153 OA
ATOM     29  O   UNL     1      -6.061   5.608  -1.468  0.00  0.00    -0.153 OA
BRANCH  27  30
ATOM     30  N   UNL     1      -5.596   3.663  -2.921  0.00  0.00    -0.187 NA
ATOM     31  H   UNL     1      -6.109   4.124  -3.603  0.00  0.00    +0.148 HD
BRANCH  30  32
ATOM     32  C   UNL     1      -4.999   2.358  -3.211  0.00  0.00    +0.077 C 
ATOM     33  C   UNL     1      -3.642   2.557  -3.889  0.00  0.00    +0.020 C 
ATOM     34  C   UNL     1      -3.017   1.194  -4.192  0.00  0.00    +0.002 C 
ATOM     35  C   UNL     1      -3.941   0.405  -5.122  0.00  0.00    +0.000 C 
ATOM     36  C   UNL     1      -5.298   0.205  -4.444  0.00  0.00    +0.002 C 
ATOM     37  C   UNL     1      -5.923   1.569  -4.141  0.00  0.00    +0.020 C 
ENDBRANCH  30  32
ENDBRANCH  27  30
ENDBRANCH   9  27
TORSDOF 7
