REMARK  Name = ZINC36836442
REMARK  6 active torsions:
REMARK  status: ('A' for Active; 'I' for Inactive)
REMARK    1  A    between atoms: C_1  and  C_2
REMARK    2  A    between atoms: N_11  and  C_15
REMARK    3  A    between atoms: C_15  and  C_16
REMARK    4  A    between atoms: N_18  and  C_19
REMARK    5  A    between atoms: C_22  and  S_25
REMARK    6  A    between atoms: S_25  and  C_28
REMARK                            x       y       z     vdW  Elec       q    Type
REMARK                         _______ _______ _______ _____ _____    ______ ____
ROOT
ATOM      1  C   UNL     1       0.910   1.508   4.347  0.00  0.00    +0.214 C 
ENDROOT
BRANCH   1  11
ATOM      2  C   UNL     1      -0.006   1.536   0.009  0.00  0.00    +0.010 C 
ATOM      3  C   UNL     1       0.003   0.006   0.000  0.00  0.00    +0.018 C 
ATOM      4  C   UNL     1      -1.437  -0.513   0.008  0.00  0.00    +0.006 C 
ATOM      5  C   UNL     1      -1.427  -2.043   0.020  0.00  0.00    +0.000 C 
ATOM      6  C   UNL     1      -0.709  -2.539   1.278  0.00  0.00    +0.003 C 
ATOM      7  C   UNL     1       0.734  -2.029   1.275  0.00  0.00    +0.035 C 
ATOM      8  C   UNL     1       0.736  -0.504   1.236  0.00  0.00    +0.115 C 
ATOM      9  C   UNL     1       0.110   0.057   2.491  0.00  0.00    +0.247 C 
ATOM     10  O   UNL     1      -1.027  -0.107   2.881  0.00  0.00    -0.273 OA
ATOM     11  N   UNL     1       1.081   0.779   3.087  0.00  0.00    -0.215 N 
ATOM     12  C   UNL     1       2.220   0.748   2.385  0.00  0.00    +0.310 C 
ATOM     13  O   UNL     1       3.237   1.323   2.720  0.00  0.00    -0.252 OA
ATOM     14  N   UNL     1       2.113   0.007   1.265  0.00  0.00    -0.285 N 
ATOM     15  H   UNL     1       2.807  -0.156   0.608  0.00  0.00    +0.151 HD
ENDBRANCH   1  11
BRANCH   1  16
ATOM     16  C   UNL     1       1.265   0.606   5.501  0.00  0.00    +0.235 C 
ATOM     17  O   UNL     1       1.625  -0.533   5.292  0.00  0.00    -0.274 OA
ATOM     18  N   UNL     1       1.182   1.065   6.765  0.00  0.00    -0.284 N 
ATOM     19  H   UNL     1       0.959   1.995   6.930  0.00  0.00    +0.155 HD
BRANCH  18  20
ATOM     20  C   UNL     1       1.417   0.201   7.840  0.00  0.00    +0.034 A 
ATOM     21  C   UNL     1       0.694   0.342   9.017  0.00  0.00    +0.025 A 
ATOM     22  C   UNL     1       0.929  -0.513  10.077  0.00  0.00    +0.029 A 
ATOM     23  C   UNL     1       1.883  -1.508   9.966  0.00  0.00    +0.088 A 
ATOM     24  C   UNL     1       2.605  -1.650   8.796  0.00  0.00    +0.029 A 
ATOM     25  C   UNL     1       2.370  -0.803   7.730  0.00  0.00    +0.025 A 
BRANCH  23  26
ATOM     26  S   UNL     1       2.179  -2.596  11.320  0.00  0.00    -0.006 S 
ATOM     27  O   UNL     1       3.522  -3.028  11.151  0.00  0.00    -0.170 OA
ATOM     28  O   UNL     1       1.796  -1.856  12.471  0.00  0.00    -0.170 OA
ATOM     29  C   UNL     1       1.039  -3.983  11.061  0.00  0.00    +0.200 C 
ENDBRANCH  23  26
ENDBRANCH  18  20
ENDBRANCH   1  16
TORSDOF 4
