REMARK  Name = ZINC44938923
REMARK  12 active torsions:
REMARK  status: ('A' for Active; 'I' for Inactive)
REMARK    1  A    between atoms: C_1  and  C_2
REMARK    2  A    between atoms: C_2  and  C_3
REMARK    3  A    between atoms: C_2  and  C_4
REMARK    4  A    between atoms: C_2  and  C_5
REMARK    5  A    between atoms: C_8  and  C_11
REMARK    6  A    between atoms: C_11  and  C_13
REMARK    7  A    between atoms: C_17  and  N_19
REMARK    8  A    between atoms: C_20  and  C_22
REMARK    9  A    between atoms: C_26  and  C_28
REMARK   10  A    between atoms: C_28  and  N_29
REMARK   11  A    between atoms: N_32  and  S_35
REMARK   12  A    between atoms: S_35  and  C_38
REMARK                            x       y       z     vdW  Elec       q    Type
REMARK                         _______ _______ _______ _____ _____    ______ ____
ROOT
ATOM      1  N   UNL     1       7.138  -2.076  -7.349  0.00  0.00    -0.281 N 
ATOM      2  C   UNL     1       8.444  -1.755  -7.436  0.00  0.00    +0.248 C 
ATOM      3  O   UNL     1       8.943  -1.011  -6.615  0.00  0.00    -0.270 OA
ATOM      4  H   UNL     1       6.723  -2.615  -8.041  0.00  0.00    +0.155 HD
ENDROOT
BRANCH   1   9
ATOM      5  C   UNL     1       5.869   0.052  -4.620  0.00  0.00    +0.024 A 
ATOM      6  C   UNL     1       4.864  -0.768  -4.099  0.00  0.00    +0.012 A 
ATOM      7  C   UNL     1       4.626  -2.005  -4.660  0.00  0.00    +0.002 A 
ATOM      8  C   UNL     1       5.378  -2.439  -5.736  0.00  0.00    +0.023 A 
ATOM      9  C   UNL     1       6.380  -1.632  -6.261  0.00  0.00    +0.034 A 
ATOM     10  C   UNL     1       6.624  -0.383  -5.710  0.00  0.00    +0.035 A 
BRANCH   5  11
ATOM     11  C   UNL     1       6.127   1.379  -4.022  0.00  0.00    +0.193 C 
ATOM     12  O   UNL     1       6.622   2.262  -4.694  0.00  0.00    -0.287 OA
BRANCH  11  16
ATOM     13  C   UNL     1       5.137   2.104   0.044  0.00  0.00    -0.042 A 
ATOM     14  C   UNL     1       5.324   3.169  -0.820  0.00  0.00    +0.005 A 
ATOM     15  C   UNL     1       5.646   2.941  -2.141  0.00  0.00    +0.012 A 
ATOM     16  C   UNL     1       5.783   1.631  -2.607  0.00  0.00    +0.022 A 
ATOM     17  C   UNL     1       5.592   0.561  -1.730  0.00  0.00    +0.012 A 
ATOM     18  C   UNL     1       5.276   0.804  -0.410  0.00  0.00    +0.005 A 
BRANCH  13  20
ATOM     19  C   UNL     1       5.867   1.767   2.389  0.00  0.00    +0.015 C 
ATOM     20  C   UNL     1       4.785   2.362   1.486  0.00  0.00    -0.013 C 
ATOM     21  C   UNL     1       3.438   1.710   1.807  0.00  0.00    +0.015 C 
ATOM     22  C   UNL     1       4.691   3.870   1.727  0.00  0.00    +0.015 C 
ENDBRANCH  13  20
ENDBRANCH  11  16
ENDBRANCH   5  11
ENDBRANCH   1   9
BRANCH   2  23
ATOM     23  C   UNL     1       9.269  -2.308  -8.530  0.00  0.00    +0.037 A 
ATOM     24  C   UNL     1       8.698  -3.159  -9.479  0.00  0.00    +0.013 A 
ATOM     25  C   UNL     1       9.474  -3.672 -10.497  0.00  0.00    +0.001 A 
ATOM     26  C   UNL     1      10.816  -3.345 -10.581  0.00  0.00    +0.005 A 
ATOM     27  C   UNL     1      11.389  -2.503  -9.644  0.00  0.00    -0.033 A 
ATOM     28  C   UNL     1      10.622  -1.978  -8.624  0.00  0.00    +0.018 A 
BRANCH  27  29
ATOM     29  C   UNL     1      12.851  -2.153  -9.742  0.00  0.00    +0.119 C 
BRANCH  29  30
ATOM     30  N   UNL     1      13.011  -0.946 -10.564  0.00  0.00    -0.296 NA
ATOM     31  C   UNL     1      12.611  -1.200 -11.955  0.00  0.00    +0.102 C 
ATOM     32  C   UNL     1      12.620   0.120 -12.734  0.00  0.00    +0.124 C 
ATOM     33  N   UNL     1      13.939   0.750 -12.571  0.00  0.00    -0.179 NA
ATOM     34  C   UNL     1      14.469   0.913 -11.209  0.00  0.00    +0.124 C 
ATOM     35  C   UNL     1      14.388  -0.438 -10.490  0.00  0.00    +0.102 C 
BRANCH  33  36
ATOM     36  S   UNL     1      14.804   1.262 -13.887  0.00  0.00    +0.029 S 
ATOM     37  O   UNL     1      16.161   1.221 -13.468  0.00  0.00    -0.158 OA
ATOM     38  O   UNL     1      14.352   0.446 -14.959  0.00  0.00    -0.158 OA
ATOM     39  C   UNL     1      14.283   2.980 -14.147  0.00  0.00    +0.215 C 
ENDBRANCH  33  36
ENDBRANCH  29  30
ENDBRANCH  27  29
ENDBRANCH   2  23
TORSDOF 8
