REMARK  Name = ZINC36019575
REMARK  8 active torsions:
REMARK  status: ('A' for Active; 'I' for Inactive)
REMARK    1  A    between atoms: C_1  and  C_2
REMARK    2  A    between atoms: C_2  and  C_3
REMARK    3  A    between atoms: C_2  and  C_4
REMARK    4  A    between atoms: C_2  and  N_5
REMARK    5  A    between atoms: N_11  and  C_14
REMARK    6  A    between atoms: C_17  and  N_28
REMARK    7  A    between atoms: C_19  and  C_20
REMARK    8  A    between atoms: C_29  and  C_31
REMARK                            x       y       z     vdW  Elec       q    Type
REMARK                         _______ _______ _______ _____ _____    ______ ____
ROOT
ATOM      1  C   UNL     1       4.513  -1.427  -6.234  0.00  0.00    +0.042 A 
ATOM      2  C   UNL     1       4.515  -0.504  -7.273  0.00  0.00    +0.026 A 
ATOM      3  C   UNL     1       5.044  -0.845  -8.500  0.00  0.00    +0.025 A 
ATOM      4  C   UNL     1       5.579  -2.113  -8.708  0.00  0.00    +0.035 A 
ATOM      5  C   UNL     1       5.584  -3.043  -7.683  0.00  0.00    +0.038 A 
ATOM      6  C   UNL     1       5.056  -2.705  -6.435  0.00  0.00    +0.060 A 
ENDROOT
BRANCH   1  13
ATOM      7  N   UNL     1       1.516  -1.549  -0.892  0.00  0.00    -0.294 N 
ATOM      8  C   UNL     1       2.790  -1.225  -1.191  0.00  0.00    +0.303 C 
ATOM      9  O   UNL     1       3.473  -0.631  -0.379  0.00  0.00    -0.253 OA
ATOM     10  N   UNL     1       3.306  -1.559  -2.391  0.00  0.00    -0.283 N 
ATOM     11  C   UNL     1       2.460  -2.167  -3.427  0.00  0.00    +0.128 C 
ATOM     12  C   UNL     1       2.560  -1.320  -4.701  0.00  0.00    +0.124 C 
ATOM     13  N   UNL     1       3.980  -1.082  -4.996  0.00  0.00    -0.326 N 
ATOM     14  C   UNL     1       4.827  -0.474  -3.960  0.00  0.00    +0.124 C 
ATOM     15  C   UNL     1       4.725  -1.316  -2.688  0.00  0.00    +0.128 C 
ATOM     16  H   UNL     1       0.949  -1.958  -1.565  0.00  0.00    +0.151 HD
BRANCH   7  18
ATOM     17  C   UNL     1       1.065   0.218   0.738  0.00  0.00    +0.031 C 
ATOM     18  C   UNL     1       0.988  -1.282   0.448  0.00  0.00    +0.028 C 
ATOM     19  C   UNL     1       1.816  -2.046   1.483  0.00  0.00    +0.031 C 
ATOM     20  C   UNL     1      -0.470  -1.742   0.522  0.00  0.00    +0.031 C 
ENDBRANCH   7  18
ENDBRANCH   1  13
BRANCH   6  21
ATOM     21  C   UNL     1       5.064  -3.688  -5.336  0.00  0.00    +0.248 C 
ATOM     22  O   UNL     1       4.024  -3.986  -4.780  0.00  0.00    -0.270 OA
ATOM     23  N   UNL     1       6.223  -4.256  -4.948  0.00  0.00    -0.297 N 
ATOM     24  C   UNL     1       7.502  -3.813  -5.521  0.00  0.00    +0.108 C 
ATOM     25  C   UNL     1       8.453  -3.445  -4.378  0.00  0.00    +0.019 C 
ATOM     26  C   UNL     1       8.571  -4.629  -3.416  0.00  0.00    +0.003 C 
ATOM     27  C   UNL     1       7.197  -4.943  -2.819  0.00  0.00    +0.019 C 
ATOM     28  C   UNL     1       6.232  -5.324  -3.939  0.00  0.00    +0.108 C 
ENDBRANCH   6  21
BRANCH   4  29
ATOM     29  N   UNL     1       6.114  -2.449  -9.958  0.00  0.00    -0.281 N 
ATOM     30  C   UNL     1       5.990  -3.706 -10.429  0.00  0.00    +0.248 C 
ATOM     31  O   UNL     1       5.329  -4.522  -9.816  0.00  0.00    -0.270 OA
ATOM     32  H   UNL     1       6.574  -1.777 -10.486  0.00  0.00    +0.155 HD
BRANCH  30  33
ATOM     33  C   UNL     1       6.656  -4.092 -11.690  0.00  0.00    +0.037 A 
ATOM     34  C   UNL     1       7.420  -3.159 -12.393  0.00  0.00    +0.014 A 
ATOM     35  C   UNL     1       8.040  -3.525 -13.569  0.00  0.00    +0.021 A 
ATOM     36  C   UNL     1       7.905  -4.816 -14.053  0.00  0.00    +0.041 A 
ATOM     37  C   UNL     1       7.149  -5.746 -13.360  0.00  0.00    +0.021 A 
ATOM     38  C   UNL     1       6.529  -5.393 -12.180  0.00  0.00    +0.014 A 
ATOM     39 CL   UNL     1       8.688  -5.269 -15.535  0.00  0.00    -0.084 Cl
ENDBRANCH  30  33
ENDBRANCH   4  29
TORSDOF 5
