REMARK  Name = ZINC00623048
REMARK  7 active torsions:
REMARK  status: ('A' for Active; 'I' for Inactive)
REMARK    1  A    between atoms: C_6  and  C_11
REMARK    2  A    between atoms: C_18  and  N_39
REMARK    3  A    between atoms: C_19  and  C_37
REMARK    4  A    between atoms: C_20  and  C_22
REMARK    5  A    between atoms: C_26  and  O_28
REMARK    6  A    between atoms: O_28  and  C_29
REMARK    7  A    between atoms: C_29  and  C_30
REMARK                            x       y       z     vdW  Elec       q    Type
REMARK                         _______ _______ _______ _____ _____    ______ ____
ROOT
ATOM      1  C   UNL     1       4.983  -2.713  -0.060  0.00  0.00    +0.100 A 
ATOM      2  C   UNL     1       5.259  -3.928   0.575  0.00  0.00    +0.054 A 
ATOM      3  C   UNL     1       6.559  -4.252   0.319  0.00  0.00    +0.223 A 
ATOM      4  N   UNL     1       7.083  -3.275  -0.449  0.00  0.00    -0.246 N 
ATOM      5  H   UNL     1       7.993  -3.239  -0.785  0.00  0.00    +0.192 HD
ATOM      6  N   UNL     1       6.080  -2.321  -0.682  0.00  0.00    -0.171 NA
ATOM      7  O   UNL     1       7.139  -5.383   0.794  0.00  0.00    -0.423 OA
ATOM      8  C   UNL     1       6.329  -6.332   1.306  0.00  0.00    +0.200 C 
ATOM      9  C   UNL     1       5.029  -6.127   1.611  0.00  0.00    +0.098 C 
ATOM     10  C   UNL     1       4.352  -4.794   1.411  0.00  0.00    +0.102 C 
ENDROOT
BRANCH   1  16
ATOM     11  C   UNL     1      -0.016   1.357   0.009  0.00  0.00    +0.001 A 
ATOM     12  C   UNL     1       1.168   2.091   0.002  0.00  0.00    +0.001 A 
ATOM     13  C   UNL     1       2.378   1.468  -0.013  0.00  0.00    +0.008 A 
ATOM     14  C   UNL     1       2.437   0.063  -0.021  0.00  0.00    -0.017 A 
ATOM     15  C   UNL     1       3.668  -0.612  -0.036  0.00  0.00    +0.018 A 
ATOM     16  C   UNL     1       3.685  -1.994  -0.044  0.00  0.00    +0.003 A 
ATOM     17  C   UNL     1       2.485  -2.723  -0.036  0.00  0.00    +0.011 A 
ATOM     18  C   UNL     1       1.284  -2.089  -0.021  0.00  0.00    +0.009 A 
ATOM     19  C   UNL     1       1.232  -0.684  -0.013  0.00  0.00    -0.018 A 
ATOM     20  C   UNL     1       0.002  -0.004   0.002  0.00  0.00    +0.008 A 
ENDBRANCH   1  16
BRANCH  10  21
ATOM     21  C   UNL     1       4.113  -4.138   2.747  0.00  0.00    -0.031 A 
ATOM     22  C   UNL     1       5.180  -3.864   3.583  0.00  0.00    +0.005 A 
ATOM     23  C   UNL     1       4.964  -3.263   4.809  0.00  0.00    +0.004 A 
ATOM     24  C   UNL     1       3.681  -2.935   5.202  0.00  0.00    +0.045 A 
ATOM     25  C   UNL     1       2.609  -3.209   4.365  0.00  0.00    +0.121 A 
ATOM     26  C   UNL     1       2.829  -3.807   3.133  0.00  0.00    +0.050 A 
BRANCH  25  27
ATOM     27  O   UNL     1       1.346  -2.887   4.750  0.00  0.00    -0.487 OA
BRANCH  27  28
ATOM     28  C   UNL     1       1.195  -2.269   6.029  0.00  0.00    +0.267 C 
BRANCH  28  29
ATOM     29  C   UNL     1      -0.264  -1.987   6.282  0.00  0.00    +0.025 A 
ATOM     30  C   UNL     1      -1.209  -2.334   5.335  0.00  0.00    +0.010 A 
ATOM     31  C   UNL     1      -2.547  -2.075   5.567  0.00  0.00    +0.001 A 
ATOM     32  C   UNL     1      -2.941  -1.471   6.746  0.00  0.00    +0.003 A 
ATOM     33  C   UNL     1      -1.998  -1.124   7.694  0.00  0.00    +0.039 A 
ATOM     34  C   UNL     1      -0.658  -1.387   7.466  0.00  0.00    +0.130 A 
ATOM     35  F   UNL     1       0.265  -1.053   8.394  0.00  0.00    -0.205 F 
ENDBRANCH  28  29
ENDBRANCH  27  28
ENDBRANCH  25  27
ENDBRANCH  10  21
BRANCH   8  36
ATOM     36  N   UNL     1       6.856  -7.580   1.528  0.00  0.00    -0.328 N 
ATOM     37  H   UNL     1       7.786  -7.758   1.318  0.00  0.00    +0.145 HD
ATOM     38  H   UNL     1       6.298  -8.284   1.895  0.00  0.00    +0.145 HD
ENDBRANCH   8  36
BRANCH   9  39
ATOM     39  C   UNL     1       4.265  -7.214   2.145  0.00  0.00    +0.101 C 
ATOM     40  N   UNL     1       3.660  -8.077   2.569  0.00  0.00    -0.191 NA
ENDBRANCH   9  39
TORSDOF 7
