REMARK  Name = ZINC34899472
REMARK  5 active torsions:
REMARK  status: ('A' for Active; 'I' for Inactive)
REMARK    1  A    between atoms: C_4  and  C_7
REMARK    2  A    between atoms: N_9  and  C_10
REMARK    3  A    between atoms: C_16  and  N_18
REMARK    4  A    between atoms: C_19  and  C_21
REMARK    5  A    between atoms: C_28  and  C_30
REMARK                            x       y       z     vdW  Elec       q    Type
REMARK                         _______ _______ _______ _____ _____    ______ ____
ROOT
ATOM      1  N   UNL     1       4.162  -3.976   1.863  0.00  0.00    -0.310 N 
ATOM      2  C   UNL     1       3.522  -5.006   2.451  0.00  0.00    +0.218 C 
ATOM      3  O   UNL     1       3.334  -6.034   1.836  0.00  0.00    -0.275 OA
ATOM      4  H   UNL     1       4.312  -3.154   2.355  0.00  0.00    +0.149 HD
ENDROOT
BRANCH   2   5
ATOM      5  C   UNL     1       3.038  -4.879   3.873  0.00  0.00    +0.092 C 
ATOM      6  C   UNL     1       2.043  -3.721   3.973  0.00  0.00    +0.016 C 
ATOM      7  C   UNL     1       1.577  -3.571   5.423  0.00  0.00    +0.020 C 
ATOM      8  C   UNL     1       0.869  -4.856   5.863  0.00  0.00    +0.108 C 
ATOM      9  N   UNL     1       1.769  -5.994   5.634  0.00  0.00    -0.300 N 
ATOM     10  C   UNL     1       2.347  -6.179   4.296  0.00  0.00    +0.120 C 
ATOM     11  C   UNL     1       2.059  -6.852   6.632  0.00  0.00    +0.222 C 
ATOM     12  O   UNL     1       2.725  -7.841   6.407  0.00  0.00    -0.275 OA
BRANCH  11  13
ATOM     13  C   UNL     1       1.556  -6.584   8.027  0.00  0.00    +0.048 C 
ATOM     14  C   UNL     1       2.068  -5.222   8.500  0.00  0.00    +0.019 C 
ATOM     15  C   UNL     1       1.557  -4.949   9.916  0.00  0.00    -0.009 C 
ATOM     16  C   UNL     1       2.064  -6.041  10.860  0.00  0.00    +0.007 C 
ATOM     17  C   UNL     1       1.552  -7.403  10.387  0.00  0.00    -0.009 C 
ATOM     18  C   UNL     1       2.063  -7.676   8.971  0.00  0.00    +0.019 C 
ATOM     19  C   UNL     1       0.022  -7.400  10.385  0.00  0.00    +0.007 C 
ATOM     20  C   UNL     1      -0.485  -6.308   9.441  0.00  0.00    -0.009 C 
ATOM     21  C   UNL     1       0.027  -4.946   9.915  0.00  0.00    +0.007 C 
ATOM     22  C   UNL     1       0.026  -6.581   8.025  0.00  0.00    +0.019 C 
ENDBRANCH  11  13
ENDBRANCH   2   5
BRANCH   1  28
ATOM     23  C   UNL     1       4.738  -2.708  -0.147  0.00  0.00    +0.093 C 
ATOM     24  C   UNL     1       5.229  -2.836  -1.591  0.00  0.00    +0.024 C 
ATOM     25  C   UNL     1       6.603  -3.508  -1.604  0.00  0.00    +0.002 C 
ATOM     26  C   UNL     1       6.497  -4.899  -0.976  0.00  0.00    +0.002 C 
ATOM     27  C   UNL     1       6.007  -4.771   0.468  0.00  0.00    +0.024 C 
ATOM     28  C   UNL     1       4.632  -4.099   0.481  0.00  0.00    +0.093 C 
BRANCH  23  31
ATOM     29  C   UNL     1       3.329  -0.720  -0.149  0.00  0.00    +0.244 C 
ATOM     30  O   UNL     1       4.337  -0.041  -0.173  0.00  0.00    -0.270 OA
ATOM     31  N   UNL     1       3.422  -2.064  -0.134  0.00  0.00    -0.307 N 
ATOM     32  H   UNL     1       2.618  -2.606  -0.115  0.00  0.00    +0.149 HD
BRANCH  29  36
ATOM     33  C   UNL     1      -0.487   1.146  -0.112  0.00  0.00    +0.000 A 
ATOM     34  C   UNL     1       0.659   1.921  -0.139  0.00  0.00    +0.001 A 
ATOM     35  C   UNL     1       1.901   1.321  -0.151  0.00  0.00    +0.013 A 
ATOM     36  C   UNL     1       2.001  -0.071  -0.136  0.00  0.00    +0.037 A 
ATOM     37  C   UNL     1       0.842  -0.847  -0.108  0.00  0.00    +0.013 A 
ATOM     38  C   UNL     1      -0.395  -0.235  -0.097  0.00  0.00    +0.001 A 
ENDBRANCH  29  36
ENDBRANCH  23  31
ENDBRANCH   1  28
TORSDOF 5
