REMARK  Name = ZINC25069597
REMARK  10 active torsions:
REMARK  status: ('A' for Active; 'I' for Inactive)
REMARK    1  A    between atoms: C_1  and  C_2
REMARK    2  A    between atoms: C_4  and  N_24
REMARK    3  A    between atoms: C_6  and  C_7
REMARK    4  A    between atoms: N_9  and  C_10
REMARK    5  A    between atoms: C_12  and  C_21
REMARK    6  A    between atoms: C_15  and  N_16
REMARK    7  A    between atoms: C_25  and  C_27
REMARK    8  A    between atoms: C_27  and  C_28
REMARK    9  A    between atoms: C_27  and  C_29
REMARK   10  A    between atoms: C_27  and  C_30
REMARK                            x       y       z     vdW  Elec       q    Type
REMARK                         _______ _______ _______ _____ _____    ______ ____
ROOT
ATOM      1  C   UNL     1      -2.743   5.215   0.190  0.00  0.00    +0.255 C 
ATOM      2  O   UNL     1      -1.739   5.904   0.229  0.00  0.00    -0.269 OA
ATOM      3  N   UNL     1      -2.639   3.880   0.041  0.00  0.00    -0.279 N 
ATOM      4  H   UNL     1      -3.545   3.266  -0.068  0.00  0.00    +0.155 HD
ENDROOT
BRANCH   1  10
ATOM      5  C   UNL     1      -3.311   8.235   0.554  0.00  0.00    +0.045 C 
ATOM      6  C   UNL     1      -4.381   7.177   0.470  0.00  0.00    -0.029 A 
ATOM      7  C   UNL     1      -5.710   7.500   0.548  0.00  0.00    +0.035 A 
ATOM      8  C   UNL     1      -6.644   6.489   0.472  0.00  0.00    +0.073 A 
ATOM      9  S   UNL     1      -5.670   5.067   0.282  0.00  0.00    -0.069 S 
ATOM     10  C   UNL     1      -4.061   5.837   0.306  0.00  0.00    +0.079 A 
BRANCH   8  11
ATOM     11  N   UNL     1      -8.028   6.585   0.534  0.00  0.00    -0.280 N 
ATOM     12  C   UNL     1      -8.786   5.474   0.442  0.00  0.00    +0.223 C 
ATOM     13  O   UNL     1      -8.259   4.391   0.304  0.00  0.00    -0.275 OA
ATOM     14  H   UNL     1      -8.506   7.568   0.659  0.00  0.00    +0.155 HD
BRANCH  12  15
ATOM     15  C   UNL     1     -10.288   5.579   0.509  0.00  0.00    +0.039 C 
ATOM     16  C   UNL     1     -10.902   4.184   0.380  0.00  0.00    +0.020 C 
ATOM     17  C   UNL     1     -10.697   6.194   1.849  0.00  0.00    +0.020 C 
ATOM     18  C   UNL     1     -10.789   6.465  -0.634  0.00  0.00    +0.020 C 
ENDBRANCH  12  15
ENDBRANCH   8  11
ENDBRANCH   1  10
BRANCH   3  19
ATOM     19  C   UNL     1      -1.376   3.273   0.023  0.00  0.00    +0.056 A 
ATOM     20  C   UNL     1      -0.301   3.931  -0.545  0.00  0.00    +0.038 A 
ATOM     21  C   UNL     1       0.957   3.322  -0.561  0.00  0.00    +0.038 A 
ATOM     22  C   UNL     1       1.124   2.052  -0.003  0.00  0.00    +0.015 A 
ATOM     23  C   UNL     1       0.050   1.400   0.562  0.00  0.00    +0.026 A 
ATOM     24  C   UNL     1      -1.203   2.001   0.574  0.00  0.00    +0.051 A 
BRANCH  24  25
ATOM     25  N   UNL     1      -2.288   1.336   1.142  0.00  0.00    -0.328 N 
ATOM     26  C   UNL     1      -1.851   0.091   1.824  0.00  0.00    +0.105 C 
ATOM     27  C   UNL     1      -3.018  -0.207   2.799  0.00  0.00    +0.020 C 
ATOM     28  C   UNL     1      -3.438   1.202   3.276  0.00  0.00    +0.020 C 
ATOM     29  C   UNL     1      -2.929   2.164   2.186  0.00  0.00    +0.105 C 
ENDBRANCH  24  25
BRANCH  21  30
ATOM     30  C   UNL     1       2.108   4.020  -1.165  0.00  0.00    +0.242 C 
ATOM     31  O   UNL     1       1.962   5.126  -1.651  0.00  0.00    -0.270 OA
ATOM     32  N   UNL     1       3.321   3.433  -1.180  0.00  0.00    -0.325 N 
ATOM     33  H   UNL     1       4.179   3.953  -1.631  0.00  0.00    +0.145 HD
ATOM     34  H   UNL     1       3.453   2.433  -0.741  0.00  0.00    +0.145 HD
ENDBRANCH  21  30
ENDBRANCH   3  19
TORSDOF 6
