REMARK  Name = ZINC39992603
REMARK  7 active torsions:
REMARK  status: ('A' for Active; 'I' for Inactive)
REMARK    1  A    between atoms: C_3  and  C_9
REMARK    2  A    between atoms: C_10  and  C_11
REMARK    3  A    between atoms: C_10  and  C_13
REMARK    4  A    between atoms: N_15  and  C_16
REMARK    5  A    between atoms: C_17  and  C_25
REMARK    6  A    between atoms: N_27  and  C_28
REMARK    7  A    between atoms: C_28  and  C_29
REMARK                            x       y       z     vdW  Elec       q    Type
REMARK                         _______ _______ _______ _____ _____    ______ ____
ROOT
ATOM      1  C   UNL     1       6.077   6.314  -0.445  0.00  0.00    +0.085 A 
ATOM      2  C   UNL     1       6.254   7.685  -0.546  0.00  0.00    +0.069 A 
ATOM      3  C   UNL     1       7.619   8.171  -0.654  0.00  0.00    -0.023 A 
ATOM      4  C   UNL     1       8.555   7.198  -0.641  0.00  0.00    -0.004 A 
ATOM      5  S   UNL     1       7.637   5.694  -0.483  0.00  0.00    -0.077 S 
ATOM      6  C   UNL     1      10.039   7.376  -0.737  0.00  0.00    +0.043 C 
ATOM      7  C   UNL     1      10.322   8.803  -1.231  0.00  0.00    +0.005 C 
ATOM      8  C   UNL     1       9.484   9.787  -0.410  0.00  0.00    +0.005 C 
ATOM      9  C   UNL     1       8.004   9.639  -0.772  0.00  0.00    +0.037 C 
ENDROOT
BRANCH   1  12
ATOM     10  C   UNL     1       4.899   4.271  -0.238  0.00  0.00    +0.259 C 
ATOM     11  O   UNL     1       5.957   3.671  -0.251  0.00  0.00    -0.269 OA
ATOM     12  N   UNL     1       4.886   5.615  -0.333  0.00  0.00    -0.275 N 
ATOM     13  H   UNL     1       4.042   6.093  -0.322  0.00  0.00    +0.156 HD
BRANCH  10  15
ATOM     14  C   UNL     1       3.648   2.155  -0.022  0.00  0.00    +0.033 C 
ATOM     15  C   UNL     1       3.634   3.529  -0.119  0.00  0.00    +0.114 C 
BRANCH  14  18
ATOM     16  C   UNL     1       0.131   1.160  -0.838  0.00  0.00    +0.020 A 
ATOM     17  C   UNL     1       1.310   1.871  -0.815  0.00  0.00    +0.011 A 
ATOM     18  C   UNL     1       2.389   1.406  -0.051  0.00  0.00    -0.005 A 
ATOM     19  C   UNL     1       2.257   0.219   0.685  0.00  0.00    +0.050 A 
ATOM     20  C   UNL     1       1.069  -0.480   0.650  0.00  0.00    +0.040 A 
ATOM     21  C   UNL     1       0.008  -0.012  -0.108  0.00  0.00    +0.042 A 
ATOM     22 CL   UNL     1      -1.484  -0.899  -0.144  0.00  0.00    -0.083 Cl
ATOM     23 CL   UNL     1       3.586  -0.369   1.635  0.00  0.00    -0.083 Cl
ENDBRANCH  14  18
BRANCH  15  24
ATOM     24  C   UNL     1       2.389   4.235  -0.103  0.00  0.00    +0.104 C 
ATOM     25  N   UNL     1       1.401   4.795  -0.091  0.00  0.00    -0.191 NA
ENDBRANCH  15  24
ENDBRANCH  10  15
ENDBRANCH   1  12
BRANCH   2  26
ATOM     26  C   UNL     1       5.113   8.605  -0.545  0.00  0.00    +0.247 C 
ATOM     27  O   UNL     1       4.697   9.057   0.505  0.00  0.00    -0.270 OA
ATOM     28  N   UNL     1       4.524   8.950  -1.708  0.00  0.00    -0.309 N 
ATOM     29  H   UNL     1       4.856   8.590  -2.545  0.00  0.00    +0.149 HD
BRANCH  28  30
ATOM     30  C   UNL     1       3.384   9.870  -1.707  0.00  0.00    +0.136 C 
BRANCH  30  31
ATOM     31  C   UNL     1       2.908  10.093  -3.143  0.00  0.00    +0.135 C 
ATOM     32  C   UNL     1       1.785  11.153  -3.164  0.00  0.00    +0.035 C 
ATOM     33  C   UNL     1       0.811  10.580  -4.229  0.00  0.00    +0.031 C 
ATOM     34  C   UNL     1       0.976   9.058  -3.990  0.00  0.00    +0.160 C 
ATOM     35  O   UNL     1       2.367   8.877  -3.671  0.00  0.00    -0.375 OA
ENDBRANCH  30  31
ENDBRANCH  28  30
ENDBRANCH   2  26
TORSDOF 7
