REMARK  Name = ZINC03960083
REMARK  6 active torsions:
REMARK  status: ('A' for Active; 'I' for Inactive)
REMARK    1  A    between atoms: C_13  and  C_15
REMARK    2  A    between atoms: C_17  and  C_30
REMARK    3  A    between atoms: N_19  and  C_20
REMARK    4  A    between atoms: C_23  and  N_26
REMARK    5  A    between atoms: C_27  and  C_29
REMARK    6  A    between atoms: C_29  and  N_53
REMARK                            x       y       z     vdW  Elec       q    Type
REMARK                         _______ _______ _______ _____ _____    ______ ____
ROOT
ATOM      1  C   UNL     1       2.461  -4.326   0.283  0.00  0.00    +0.075 A 
ATOM      2  C   UNL     1       1.359  -5.128   0.183  0.00  0.00    +0.062 A 
ATOM      3  C   UNL     1       1.790  -6.402  -0.189  0.00  0.00    +0.166 A 
ATOM      4  N   UNL     1       3.093  -6.383  -0.313  0.00  0.00    -0.162 NA
ATOM      5  N   UNL     1       3.549  -5.090  -0.028  0.00  0.00    -0.232 N 
ENDROOT
BRANCH   1  18
ATOM      6  C   UNL     1       2.585   3.885   2.426  0.00  0.00    +0.001 A 
ATOM      7  C   UNL     1       1.439   3.361   1.839  0.00  0.00    +0.001 A 
ATOM      8  C   UNL     1       1.379   2.045   1.480  0.00  0.00    +0.009 A 
ATOM      9  C   UNL     1       2.480   1.215   1.704  0.00  0.00    -0.010 A 
ATOM     10  C   UNL     1       3.647   1.745   2.300  0.00  0.00    -0.017 A 
ATOM     11  C   UNL     1       3.676   3.101   2.657  0.00  0.00    +0.008 A 
ATOM     12  C   UNL     1       4.764   0.908   2.528  0.00  0.00    +0.009 A 
ATOM     13  C   UNL     1       4.745  -0.396   2.188  0.00  0.00    +0.009 A 
ATOM     14  C   UNL     1       3.608  -0.987   1.588  0.00  0.00    -0.017 A 
ATOM     15  C   UNL     1       2.459  -0.202   1.334  0.00  0.00    -0.010 A 
ATOM     16  C   UNL     1       1.333  -0.781   0.741  0.00  0.00    +0.010 A 
ATOM     17  C   UNL     1       1.341  -2.102   0.407  0.00  0.00    +0.010 A 
ATOM     18  C   UNL     1       2.473  -2.894   0.653  0.00  0.00    +0.001 A 
ATOM     19  C   UNL     1       3.602  -2.342   1.240  0.00  0.00    +0.018 A 
ENDBRANCH   1  18
BRANCH   5  20
ATOM     20  C   UNL     1       4.883  -4.659  -0.054  0.00  0.00    +0.066 A 
ATOM     21  C   UNL     1       5.213  -3.461  -0.675  0.00  0.00    +0.029 A 
ATOM     22  C   UNL     1       6.525  -3.034  -0.696  0.00  0.00    +0.025 A 
ATOM     23  C   UNL     1       7.517  -3.807  -0.107  0.00  0.00    +0.033 A 
ATOM     24  C   UNL     1       7.187  -5.007   0.509  0.00  0.00    +0.025 A 
ATOM     25  C   UNL     1       5.874  -5.432   0.535  0.00  0.00    +0.029 A 
BRANCH  23  26
ATOM     26  N   UNL     1       8.849  -3.376  -0.134  0.00  0.00    -0.287 N 
ATOM     27  C   UNL     1       9.845  -4.275  -0.255  0.00  0.00    +0.200 C 
ATOM     28  O   UNL     1       9.594  -5.462  -0.258  0.00  0.00    -0.278 OA
ATOM     29  H   UNL     1       9.054  -2.431  -0.065  0.00  0.00    +0.155 HD
BRANCH  27  30
ATOM     30  C   UNL     1      11.271  -3.806  -0.387  0.00  0.00    +0.011 C 
BRANCH  30  33
ATOM     31  H   UNL     1      11.886  -5.559  -1.276  0.00  0.00    -0.089 HD
ATOM     32  H   UNL     1      13.123  -4.681  -0.594  0.00  0.00    -0.089 HD
ATOM     33  N   UNL     1      12.156  -4.981  -0.482  0.00  0.00    +0.384 N 
ATOM     34  H   UNL     1      12.075  -5.535   0.378  0.00  0.00    -0.089 HD
ENDBRANCH  30  33
ENDBRANCH  27  30
ENDBRANCH  23  26
ENDBRANCH   5  20
BRANCH   3  35
ATOM     35  C   UNL     1       0.902  -7.599  -0.413  0.00  0.00    +0.436 C 
ATOM     36  F   UNL     1       0.502  -7.640  -1.753  0.00  0.00    -0.164 F 
ATOM     37  F   UNL     1       1.607  -8.766  -0.101  0.00  0.00    -0.164 F 
ATOM     38  F   UNL     1      -0.227  -7.502   0.408  0.00  0.00    -0.164 F 
ENDBRANCH   3  35
TORSDOF 6
