REMARK  Name = ZINC40330491
REMARK  7 active torsions:
REMARK  status: ('A' for Active; 'I' for Inactive)
REMARK    1  A    between atoms: C_1  and  C_2
REMARK    2  A    between atoms: C_2  and  C_3
REMARK    3  A    between atoms: C_3  and  N_4
REMARK    4  A    between atoms: C_6  and  N_23
REMARK    5  A    between atoms: C_8  and  C_9
REMARK    6  A    between atoms: C_13  and  C_20
REMARK    7  A    between atoms: C_17  and  C_19
REMARK                            x       y       z     vdW  Elec       q    Type
REMARK                         _______ _______ _______ _____ _____    ______ ____
ROOT
ATOM      1  C   UNL     1      -1.209  -2.248  -1.737  0.00  0.00    +0.263 C 
ATOM      2  O   UNL     1      -1.660  -3.304  -2.140  0.00  0.00    -0.268 OA
ATOM      3  N   UNL     1      -1.804  -1.087  -2.078  0.00  0.00    -0.293 N 
ATOM      4  C   UNL     1      -1.278   0.195  -1.590  0.00  0.00    +0.121 C 
ATOM      5  C   UNL     1      -2.413   0.966  -0.909  0.00  0.00    +0.092 C 
ATOM      6  C   UNL     1      -3.589   1.097  -1.879  0.00  0.00    +0.016 C 
ATOM      7  C   UNL     1      -4.106  -0.295  -2.249  0.00  0.00    +0.023 C 
ATOM      8  C   UNL     1      -2.987  -1.080  -2.950  0.00  0.00    +0.073 C 
ATOM      9  C   UNL     1      -3.446  -2.517  -3.203  0.00  0.00    +0.028 C 
ENDROOT
BRANCH   1  14
ATOM     10  N   UNL     1       0.391  -3.254  -0.048  0.00  0.00    -0.341 N 
ATOM     11  C   UNL     1       1.539  -2.872   0.573  0.00  0.00    +0.109 A 
ATOM     12  C   UNL     1       1.867  -1.622   0.153  0.00  0.00    +0.043 A 
ATOM     13  C   UNL     1       0.890  -1.208  -0.763  0.00  0.00    +0.055 A 
ATOM     14  C   UNL     1      -0.019  -2.238  -0.881  0.00  0.00    +0.106 A 
BRANCH  12  15
ATOM     15  N   UNL     1       2.988  -0.877   0.564  0.00  0.00    -0.357 N 
ATOM     16  H   UNL     1       3.611  -1.252   1.206  0.00  0.00    +0.142 HD
ATOM     17  H   UNL     1       3.138   0.012   0.205  0.00  0.00    +0.142 HD
ENDBRANCH  12  15
BRANCH  10  18
ATOM     18  C   UNL     1      -0.293  -4.536   0.135  0.00  0.00    +0.122 C 
BRANCH  18  20
ATOM     19  C   UNL     1      -0.634  -6.816  -0.828  0.00  0.00    +0.005 C 
ATOM     20  C   UNL     1       0.171  -5.520  -0.940  0.00  0.00    +0.018 C 
ENDBRANCH  18  20
ENDBRANCH  10  18
ENDBRANCH   1  14
BRANCH   5  21
ATOM     21  C   UNL     1      -2.857   0.222   0.324  0.00  0.00    +0.215 C 
ATOM     22  O   UNL     1      -4.034  -0.011   0.501  0.00  0.00    -0.276 OA
ATOM     23  N   UNL     1      -1.946  -0.186   1.230  0.00  0.00    -0.329 N 
ATOM     24  H   UNL     1      -1.015   0.064   1.127  0.00  0.00    +0.145 HD
ATOM     25  H   UNL     1      -2.223  -0.728   1.985  0.00  0.00    +0.145 HD
ENDBRANCH   5  21
TORSDOF 5
