REMARK  Name = ZINC67393139
REMARK  12 active torsions:
REMARK  status: ('A' for Active; 'I' for Inactive)
REMARK    1  A    between atoms: C_1  and  C_2
REMARK    2  A    between atoms: C_2  and  C_3
REMARK    3  A    between atoms: C_3  and  N_4
REMARK    4  A    between atoms: C_7  and  C_10
REMARK    5  A    between atoms: C_10  and  N_11
REMARK    6  A    between atoms: C_12  and  C_14
REMARK    7  A    between atoms: N_16  and  C_17
REMARK    8  A    between atoms: C_20  and  C_24
REMARK    9  A    between atoms: C_22  and  C_23
REMARK   10  A    between atoms: N_26  and  C_27
REMARK   11  A    between atoms: C_27  and  C_28
REMARK   12  A    between atoms: C_27  and  C_29
REMARK                            x       y       z     vdW  Elec       q    Type
REMARK                         _______ _______ _______ _____ _____    ______ ____
ROOT
ATOM      1  C   UNL     1      -5.095  -7.378  -3.087  0.00  0.00    +0.303 C 
ATOM      2  O   UNL     1      -4.675  -7.002  -4.161  0.00  0.00    -0.265 OA
ATOM      3  N   UNL     1      -5.789  -8.530  -3.000  0.00  0.00    -0.278 N 
ATOM      4  H   UNL     1      -6.056  -8.872  -2.132  0.00  0.00    +0.155 HD
ENDROOT
BRANCH   3   5
ATOM      5  C   UNL     1      -6.124  -9.230  -4.157  0.00  0.00    +0.037 A 
ATOM      6  C   UNL     1      -6.227  -8.557  -5.371  0.00  0.00    +0.024 A 
ATOM      7  C   UNL     1      -6.557  -9.246  -6.516  0.00  0.00    +0.015 A 
ATOM      8  C   UNL     1      -6.790 -10.623  -6.458  0.00  0.00    +0.037 A 
ATOM      9  C   UNL     1      -6.685 -11.296  -5.238  0.00  0.00    +0.018 A 
ATOM     10  C   UNL     1      -6.349 -10.602  -4.098  0.00  0.00    -0.029 A 
ATOM     11  C   UNL     1      -6.230 -11.328  -2.782  0.00  0.00    +0.045 C 
BRANCH   8  12
ATOM     12  C   UNL     1      -7.144 -11.365  -7.684  0.00  0.00    +0.244 C 
ATOM     13  O   UNL     1      -7.346 -12.563  -7.633  0.00  0.00    -0.270 OA
ATOM     14  N   UNL     1      -7.245 -10.714  -8.860  0.00  0.00    -0.309 N 
ATOM     15  H   UNL     1      -7.084  -9.758  -8.901  0.00  0.00    +0.149 HD
BRANCH  14  16
ATOM     16  C   UNL     1      -7.598 -11.450 -10.077  0.00  0.00    +0.067 C 
ATOM     17  C   UNL     1      -8.242 -10.495 -11.082  0.00  0.00    +0.027 C 
ATOM     18  C   UNL     1      -6.334 -12.058 -10.689  0.00  0.00    +0.027 C 
ENDBRANCH  14  16
ENDBRANCH   8  12
ENDBRANCH   3   5
BRANCH   1  20
ATOM     19  N   UNL     1      -4.149  -5.412  -1.946  0.00  0.00    -0.307 N 
ATOM     20  C   UNL     1      -4.843  -6.564  -1.860  0.00  0.00    +0.299 C 
ATOM     21  O   UNL     1      -5.263  -6.940  -0.785  0.00  0.00    -0.265 OA
ATOM     22  H   UNL     1      -3.813  -5.112  -2.805  0.00  0.00    +0.149 HD
BRANCH  19  23
ATOM     23  C   UNL     1      -3.901  -4.614  -0.743  0.00  0.00    +0.106 C 
BRANCH  23  27
ATOM     24  N   UNL     1      -1.446  -1.982   0.007  0.00  0.00    +0.380 N 
ATOM     25  C   UNL     1      -0.873  -2.469  -1.266  0.00  0.00    -0.079 C 
ATOM     26  C   UNL     1      -1.674  -3.754  -1.594  0.00  0.00    -0.016 C 
ATOM     27  C   UNL     1      -3.098  -3.366  -1.115  0.00  0.00    -0.012 C 
ATOM     28  C   UNL     1      -2.821  -2.499   0.131  0.00  0.00    -0.074 C 
ATOM     29  H   UNL     1      -0.888  -2.314   0.778  0.00  0.00    -0.082 HD
BRANCH  24  30
ATOM     30  C   UNL     1      -1.469  -0.513   0.009  0.00  0.00    -0.079 C 
BRANCH  30  32
ATOM     31  C   UNL     1      -0.058   1.549   0.007  0.00  0.00    +0.002 C 
ATOM     32  C   UNL     1      -0.035   0.020   0.005  0.00  0.00    -0.022 C 
ENDBRANCH  30  32
ENDBRANCH  24  30
ENDBRANCH  23  27
ENDBRANCH  19  23
ENDBRANCH   1  20
TORSDOF 8
