REMARK  Name = ZINC38546567
REMARK  9 active torsions:
REMARK  status: ('A' for Active; 'I' for Inactive)
REMARK    1  A    between atoms: C_1  and  C_2
REMARK    2  A    between atoms: C_2  and  N_3
REMARK    3  A    between atoms: N_6  and  C_9
REMARK    4  A    between atoms: C_9  and  C_11
REMARK    5  A    between atoms: C_9  and  C_19
REMARK    6  A    between atoms: C_14  and  O_17
REMARK    7  A    between atoms: O_17  and  C_18
REMARK    8  A    between atoms: C_23  and  N_24
REMARK    9  A    between atoms: C_25  and  C_27
REMARK                            x       y       z     vdW  Elec       q    Type
REMARK                         _______ _______ _______ _____ _____    ______ ____
ROOT
ATOM      1  C   UNL     1      -4.926  -2.617  -1.119  0.00  0.00    +0.120 C 
ENDROOT
BRANCH   1   2
ATOM      2  C   UNL     1      -4.833  -4.112  -0.955  0.00  0.00    +0.006 A 
ATOM      3  C   UNL     1      -5.733  -4.781  -0.125  0.00  0.00    -0.030 A 
ATOM      4  C   UNL     1      -5.585  -6.130  -0.028  0.00  0.00    -0.005 A 
ATOM      5  S   UNL     1      -4.204  -6.484  -1.082  0.00  0.00    -0.078 S 
ATOM      6  C   UNL     1      -3.876  -4.813  -1.619  0.00  0.00    +0.078 A 
ATOM      7  C   UNL     1      -6.404  -7.080   0.785  0.00  0.00    +0.043 C 
ATOM      8  C   UNL     1      -7.226  -6.266   1.796  0.00  0.00    +0.005 C 
ATOM      9  C   UNL     1      -7.893  -5.100   1.061  0.00  0.00    +0.005 C 
ATOM     10  C   UNL     1      -6.839  -4.071   0.650  0.00  0.00    +0.036 C 
BRANCH   6  11
ATOM     11  N   UNL     1      -2.891  -4.347  -2.493  0.00  0.00    -0.273 N 
ATOM     12  C   UNL     1      -2.106  -5.222  -3.152  0.00  0.00    +0.284 C 
ATOM     13  O   UNL     1      -2.255  -6.418  -2.986  0.00  0.00    -0.266 OA
ATOM     14  H   UNL     1      -2.772  -3.393  -2.625  0.00  0.00    +0.156 HD
BRANCH  12  15
ATOM     15  C   UNL     1      -1.072  -4.732  -4.069  0.00  0.00    +0.189 A 
ATOM     16  C   UNL     1      -0.216  -5.506  -4.800  0.00  0.00    +0.054 A 
ATOM     17  C   UNL     1       0.596  -4.627  -5.533  0.00  0.00    +0.042 A 
ATOM     18  C   UNL     1       0.206  -3.371  -5.222  0.00  0.00    +0.196 A 
ATOM     19  O   UNL     1      -0.803  -3.439  -4.343  0.00  0.00    -0.458 OA
ENDBRANCH  12  15
ENDBRANCH   6  11
ENDBRANCH   1   2
BRANCH   1  23
ATOM     20  N   UNL     1      -1.516  -0.369  -0.028  0.00  0.00    +0.381 N 
ATOM     21  C   UNL     1      -2.203  -0.019  -1.278  0.00  0.00    -0.063 C 
ATOM     22  C   UNL     1      -3.628  -0.577  -1.251  0.00  0.00    +0.067 C 
ATOM     23  N   UNL     1      -3.576  -2.037  -1.093  0.00  0.00    -0.295 NA
ATOM     24  C   UNL     1      -2.869  -2.404   0.142  0.00  0.00    +0.067 C 
ATOM     25  C   UNL     1      -1.451  -1.831   0.104  0.00  0.00    -0.063 C 
ATOM     26  H   UNL     1      -2.024   0.016   0.754  0.00  0.00    -0.082 HD
BRANCH  20  28
ATOM     27  C   UNL     1      -0.223   1.710  -0.058  0.00  0.00    -0.017 C 
ATOM     28  C   UNL     1      -0.154   0.182  -0.047  0.00  0.00    -0.082 C 
ENDBRANCH  20  28
ENDBRANCH   1  23
BRANCH   1  29
ATOM     29  C   UNL     1      -5.585  -2.296  -2.436  0.00  0.00    -0.026 A 
ATOM     30  C   UNL     1      -4.829  -2.249  -3.593  0.00  0.00    +0.009 A 
ATOM     31  C   UNL     1      -5.430  -1.956  -4.801  0.00  0.00    +0.046 A 
ATOM     32  C   UNL     1      -6.794  -1.708  -4.854  0.00  0.00    +0.120 A 
ATOM     33  C   UNL     1      -7.551  -1.756  -3.692  0.00  0.00    +0.046 A 
ATOM     34  C   UNL     1      -6.945  -2.055  -2.486  0.00  0.00    +0.009 A 
BRANCH  32  35
ATOM     35  O   UNL     1      -7.388  -1.418  -6.041  0.00  0.00    -0.495 OA
ATOM     36  C   UNL     1      -8.796  -1.174  -6.019  0.00  0.00    +0.277 C 
ENDBRANCH  32  35
ENDBRANCH   1  29
TORSDOF 7
