REMARK  Name = ZINC13186035
REMARK  7 active torsions:
REMARK  status: ('A' for Active; 'I' for Inactive)
REMARK    1  A    between atoms: C_1  and  O_2
REMARK    2  A    between atoms: O_2  and  C_3
REMARK    3  A    between atoms: C_6  and  S_21
REMARK    4  A    between atoms: C_8  and  C_9
REMARK    5  A    between atoms: N_11  and  C_12
REMARK    6  A    between atoms: C_17  and  C_18
REMARK    7  A    between atoms: S_21  and  N_24
REMARK                            x       y       z     vdW  Elec       q    Type
REMARK                         _______ _______ _______ _____ _____    ______ ____
ROOT
ATOM      1  C   UNL     1      -0.014   1.368  -0.020  0.00  0.00    +0.132 A 
ATOM      2  C   UNL     1      -1.221   2.051  -0.027  0.00  0.00    +0.048 A 
ATOM      3  C   UNL     1      -1.235   3.432  -0.029  0.00  0.00    +0.032 A 
ATOM      4  C   UNL     1      -0.047   4.144  -0.036  0.00  0.00    +0.106 A 
ATOM      5  C   UNL     1       1.161   3.482  -0.035  0.00  0.00    +0.045 A 
ATOM      6  C   UNL     1       1.190   2.085  -0.027  0.00  0.00    +0.080 A 
ENDROOT
BRANCH   6   7
ATOM      7  C   UNL     1       2.480   1.369  -0.025  0.00  0.00    +0.252 C 
ATOM      8  O   UNL     1       2.500   0.154  -0.018  0.00  0.00    -0.270 OA
ATOM      9  N   UNL     1       3.635   2.063  -0.032  0.00  0.00    -0.281 N 
ATOM     10  H   UNL     1       3.620   3.030  -0.103  0.00  0.00    +0.155 HD
BRANCH   9  11
ATOM     11  C   UNL     1       4.850   1.391   0.065  0.00  0.00    +0.049 A 
ATOM     12  C   UNL     1       5.010   0.149  -0.533  0.00  0.00    +0.044 A 
ATOM     13  C   UNL     1       6.217  -0.516  -0.437  0.00  0.00    +0.043 A 
ATOM     14  C   UNL     1       7.277   0.052   0.256  0.00  0.00    +0.021 A 
ATOM     15  C   UNL     1       7.136   1.283   0.856  0.00  0.00    +0.018 A 
ATOM     16  C   UNL     1       5.923   1.970   0.762  0.00  0.00    +0.084 A 
ATOM     17 CL   UNL     1       6.410  -2.069  -1.188  0.00  0.00    -0.083 Cl
BRANCH  16  18
ATOM     18  C   UNL     1       5.768   3.291   1.395  0.00  0.00    +0.388 C 
ATOM     19  O   UNL     1       4.684   3.840   1.399  0.00  0.00    -0.241 OA
ATOM     20  O   UNL     1       6.829   3.891   1.970  0.00  0.00    -0.241 OA
ENDBRANCH  16  18
ENDBRANCH   9  11
ENDBRANCH   6   7
BRANCH   4  21
ATOM     21  S   UNL     1      -0.081   5.906  -0.046  0.00  0.00    +0.061 S 
ATOM     22  O   UNL     1      -1.333   6.291   0.505  0.00  0.00    -0.153 OA
ATOM     23  O   UNL     1       1.158   6.339   0.499  0.00  0.00    -0.153 OA
BRANCH  21  24
ATOM     24  N   UNL     1      -0.094   6.386  -1.631  0.00  0.00    -0.177 NA
ATOM     25  C   UNL     1       1.169   6.617  -2.295  0.00  0.00    +0.109 C 
ATOM     26  C   UNL     1       1.606   8.084  -2.098  0.00  0.00    +0.017 C 
ATOM     27  C   UNL     1       0.748   8.982  -2.886  0.00  0.00    +0.001 C 
ATOM     28  C   UNL     1      -0.722   8.966  -2.478  0.00  0.00    +0.001 C 
ATOM     29  C   UNL     1      -1.424   7.831  -3.182  0.00  0.00    +0.017 C 
ATOM     30  C   UNL     1      -1.395   6.566  -2.305  0.00  0.00    +0.109 C 
ENDBRANCH  21  24
ENDBRANCH   4  21
BRANCH   1  32
ATOM     31  C   UNL     1      -1.265  -0.651  -0.007  0.00  0.00    +0.277 C 
ATOM     32  O   UNL     1       0.001   0.011  -0.013  0.00  0.00    -0.494 OA
ENDBRANCH   1  32
TORSDOF 6
