REMARK  Name = ZINC50672141
REMARK  7 active torsions:
REMARK  status: ('A' for Active; 'I' for Inactive)
REMARK    1  A    between atoms: C_1  and  C_2
REMARK    2  A    between atoms: C_2  and  C_3
REMARK    3  A    between atoms: C_2  and  C_4
REMARK    4  A    between atoms: C_7  and  N_9
REMARK    5  A    between atoms: N_9  and  S_10
REMARK    6  A    between atoms: S_10  and  C_13
REMARK    7  A    between atoms: C_18  and  N_19
REMARK                            x       y       z     vdW  Elec       q    Type
REMARK                         _______ _______ _______ _____ _____    ______ ____
ROOT
ATOM      1  S   UNL     1      -5.602  -2.242  -1.892  0.00  0.00    +0.097 S 
ATOM      2  O   UNL     1      -5.483  -3.466  -1.181  0.00  0.00    -0.148 OA
ATOM      3  O   UNL     1      -6.342  -1.138  -1.389  0.00  0.00    -0.148 OA
ENDROOT
BRANCH   1   4
ATOM      4  C   UNL     1      -6.292  -2.637  -3.464  0.00  0.00    +0.150 A 
ATOM      5  C   UNL     1      -6.630  -3.942  -3.774  0.00  0.00    +0.034 A 
ATOM      6  C   UNL     1      -7.171  -4.208  -5.024  0.00  0.00    +0.022 A 
ATOM      7  C   UNL     1      -7.355  -3.170  -5.916  0.00  0.00    +0.113 A 
ATOM      8  N   UNL     1      -7.024  -1.934  -5.593  0.00  0.00    -0.239 NA
ATOM      9  C   UNL     1      -6.511  -1.639  -4.408  0.00  0.00    +0.143 A 
BRANCH   9  10
ATOM     10  N   UNL     1      -6.182  -0.322  -4.108  0.00  0.00    -0.342 N 
ATOM     11  H   UNL     1      -5.802  -0.102  -3.244  0.00  0.00    +0.144 HD
ATOM     12  H   UNL     1      -6.333   0.377  -4.764  0.00  0.00    +0.144 HD
ENDBRANCH   9  10
ENDBRANCH   1   4
BRANCH   1  13
ATOM     13  N   UNL     1      -4.061  -1.697  -2.157  0.00  0.00    -0.070 NA
BRANCH  13  17
ATOM     14  C   UNL     1      -1.412  -0.526   0.013  0.00  0.00    +0.053 A 
ATOM     15  C   UNL     1      -2.101  -0.677   1.169  0.00  0.00    +0.072 A 
ATOM     16  S   UNL     1      -3.654  -1.306   0.552  0.00  0.00    -0.057 S 
ATOM     17  C   UNL     1      -3.269  -1.309  -1.087  0.00  0.00    +0.202 A 
ATOM     18  N   UNL     1      -2.036  -0.850  -1.106  0.00  0.00    -0.227 NA
BRANCH  14  20
ATOM     19  C   UNL     1      -0.019   1.526   0.010  0.00  0.00    +0.014 C 
ATOM     20  C   UNL     1       0.002  -0.004   0.002  0.00  0.00    +0.032 C 
ATOM     21  C   UNL     1       0.742  -0.511   1.242  0.00  0.00    +0.014 C 
ENDBRANCH  14  20
ENDBRANCH  13  17
ENDBRANCH   1  13
TORSDOF 5
