REMARK  Name = ZINC13946251
REMARK  11 active torsions:
REMARK  status: ('A' for Active; 'I' for Inactive)
REMARK    1  A    between atoms: C_1  and  C_2
REMARK    2  A    between atoms: C_2  and  C_3
REMARK    3  A    between atoms: C_2  and  C_4
REMARK    4  A    between atoms: C_2  and  C_5
REMARK    5  A    between atoms: N_10  and  C_13
REMARK    6  A    between atoms: C_16  and  N_19
REMARK    7  A    between atoms: N_19  and  C_20
REMARK    8  A    between atoms: C_20  and  N_22
REMARK    9  A    between atoms: C_23  and  C_25
REMARK   10  A    between atoms: C_25  and  C_26
REMARK   11  A    between atoms: C_25  and  C_32
REMARK                            x       y       z     vdW  Elec       q    Type
REMARK                         _______ _______ _______ _____ _____    ______ ____
ROOT
ATOM      1  N   UNL     1      -1.676   5.301  -5.215  0.00  0.00    -0.297 N 
ATOM      2  H   UNL     1      -2.592   5.091  -5.455  0.00  0.00    +0.154 HD
ENDROOT
BRANCH   1   6
ATOM      3  C   UNL     1       0.532   2.634  -2.889  0.00  0.00    +0.030 A 
ATOM      4  C   UNL     1      -0.304   2.156  -3.890  0.00  0.00    +0.025 A 
ATOM      5  C   UNL     1      -1.039   3.038  -4.656  0.00  0.00    +0.025 A 
ATOM      6  C   UNL     1      -0.934   4.405  -4.433  0.00  0.00    +0.033 A 
ATOM      7  C   UNL     1      -0.094   4.884  -3.437  0.00  0.00    +0.025 A 
ATOM      8  C   UNL     1       0.636   4.001  -2.667  0.00  0.00    +0.025 A 
BRANCH   3  14
ATOM      9  C   UNL     1       1.648  -1.326   0.552  0.00  0.00    +0.221 C 
ATOM     10  O   UNL     1       1.481  -2.456   0.144  0.00  0.00    -0.275 OA
ATOM     11  N   UNL     1       1.854  -0.319  -0.320  0.00  0.00    -0.298 N 
ATOM     12  C   UNL     1       1.972  -0.582  -1.762  0.00  0.00    +0.126 C 
ATOM     13  C   UNL     1       1.013   0.351  -2.511  0.00  0.00    +0.124 C 
ATOM     14  N   UNL     1       1.273   1.740  -2.109  0.00  0.00    -0.327 N 
ATOM     15  C   UNL     1       1.003   1.940  -0.679  0.00  0.00    +0.124 C 
ATOM     16  C   UNL     1       1.961   1.073   0.144  0.00  0.00    +0.126 C 
BRANCH   9  18
ATOM     17  C   UNL     1       1.557  -2.371   2.799  0.00  0.00    +0.020 C 
ATOM     18  C   UNL     1       1.626  -1.048   2.033  0.00  0.00    +0.039 C 
ATOM     19  C   UNL     1       2.897  -0.294   2.429  0.00  0.00    +0.020 C 
ATOM     20  C   UNL     1       0.401  -0.197   2.373  0.00  0.00    +0.020 C 
ENDBRANCH   9  18
ENDBRANCH   3  14
ENDBRANCH   1   6
BRANCH   1  21
ATOM     21  C   UNL     1      -1.117   6.454  -5.632  0.00  0.00    +0.141 C 
ATOM     22  S   UNL     1       0.539   6.762  -5.326  0.00  0.00    -0.018 S 
BRANCH  21  23
ATOM     23  N   UNL     1      -1.861   7.364  -6.291  0.00  0.00    -0.267 N 
ATOM     24  C   UNL     1      -1.302   8.517  -6.709  0.00  0.00    +0.230 C 
ATOM     25  O   UNL     1      -0.129   8.735  -6.492  0.00  0.00    -0.274 OA
ATOM     26  H   UNL     1      -2.799   7.189  -6.465  0.00  0.00    +0.157 HD
BRANCH  24  27
ATOM     27  C   UNL     1      -2.134   9.534  -7.446  0.00  0.00    +0.135 C 
BRANCH  27  28
ATOM     28  C   UNL     1      -1.278  10.723  -7.799  0.00  0.00    -0.031 A 
ATOM     29  C   UNL     1      -0.132  10.550  -8.553  0.00  0.00    +0.005 A 
ATOM     30  C   UNL     1       0.651  11.640  -8.881  0.00  0.00    +0.000 A 
ATOM     31  C   UNL     1       0.294  12.903  -8.447  0.00  0.00    +0.000 A 
ATOM     32  C   UNL     1      -0.849  13.076  -7.689  0.00  0.00    +0.000 A 
ATOM     33  C   UNL     1      -1.635  11.986  -7.365  0.00  0.00    +0.005 A 
ENDBRANCH  27  28
BRANCH  27  34
ATOM     34  C   UNL     1      -2.682   8.917  -8.707  0.00  0.00    -0.031 A 
ATOM     35  C   UNL     1      -1.873   8.116  -9.492  0.00  0.00    +0.005 A 
ATOM     36  C   UNL     1      -2.377   7.546 -10.647  0.00  0.00    +0.000 A 
ATOM     37  C   UNL     1      -3.686   7.785 -11.021  0.00  0.00    +0.000 A 
ATOM     38  C   UNL     1      -4.493   8.590 -10.239  0.00  0.00    +0.000 A 
ATOM     39  C   UNL     1      -3.991   9.156  -9.082  0.00  0.00    +0.005 A 
ENDBRANCH  27  34
ENDBRANCH  24  27
ENDBRANCH  21  23
ENDBRANCH   1  21
TORSDOF 8
