REMARK  Name = ZINC13623344
REMARK  11 active torsions:
REMARK  status: ('A' for Active; 'I' for Inactive)
REMARK    1  A    between atoms: C_1  and  C_2
REMARK    2  A    between atoms: C_2  and  C_3
REMARK    3  A    between atoms: C_3  and  C_5
REMARK    4  A    between atoms: C_3  and  C_6
REMARK    5  A    between atoms: C_9  and  O_13
REMARK    6  A    between atoms: O_13  and  C_14
REMARK    7  A    between atoms: C_14  and  C_15
REMARK    8  A    between atoms: N_17  and  N_18
REMARK    9  A    between atoms: C_19  and  C_21
REMARK   10  A    between atoms: N_26  and  C_28
REMARK   11  A    between atoms: C_28  and  C_29
REMARK                            x       y       z     vdW  Elec       q    Type
REMARK                         _______ _______ _______ _____ _____    ______ ____
ROOT
ATOM      1  C   UNL     1      -0.014   1.209   0.009  0.00  0.00    +0.267 C 
ATOM      2  O   UNL     1       0.002  -0.004   0.002  0.00  0.00    -0.271 OA
ATOM      3  N   UNL     1      -1.191   1.867   0.018  0.00  0.00    -0.232 N 
ATOM      4  H   UNL     1      -1.204   2.837   0.023  0.00  0.00    +0.173 HD
ENDROOT
BRANCH   3   5
ATOM      5  N   UNL     1      -2.394   1.150   0.020  0.00  0.00    -0.234 N 
ATOM      6  C   UNL     1      -3.571   1.808   0.029  0.00  0.00    +0.234 C 
ATOM      7  O   UNL     1      -3.587   3.020   0.035  0.00  0.00    -0.274 OA
ATOM      8  H   UNL     1      -2.381   0.180   0.014  0.00  0.00    +0.173 HD
BRANCH   6   9
ATOM      9  C   UNL     1      -4.865   1.036   0.031  0.00  0.00    +0.102 C 
ATOM     10  C   UNL     1      -5.053   0.274   1.363  0.00  0.00    +0.110 C 
ATOM     11  C   UNL     1      -6.537   0.371   1.640  0.00  0.00    +0.217 C 
ATOM     12  O   UNL     1      -7.143  -0.321   2.430  0.00  0.00    -0.276 OA
ATOM     13  N   UNL     1      -7.086   1.337   0.884  0.00  0.00    -0.296 N 
ATOM     14  C   UNL     1      -6.078   1.993   0.042  0.00  0.00    +0.121 C 
BRANCH  13  15
ATOM     15  C   UNL     1      -8.508   1.691   0.898  0.00  0.00    +0.142 C 
BRANCH  15  16
ATOM     16  C   UNL     1      -9.241   0.866  -0.128  0.00  0.00    -0.030 A 
ATOM     17  C   UNL     1      -9.380   1.335  -1.421  0.00  0.00    +0.005 A 
ATOM     18  C   UNL     1     -10.049   0.576  -2.363  0.00  0.00    +0.000 A 
ATOM     19  C   UNL     1     -10.587  -0.648  -2.010  0.00  0.00    +0.000 A 
ATOM     20  C   UNL     1     -10.451  -1.115  -0.716  0.00  0.00    +0.000 A 
ATOM     21  C   UNL     1      -9.779  -0.358   0.225  0.00  0.00    +0.005 A 
ENDBRANCH  15  16
ENDBRANCH  13  15
ENDBRANCH   6   9
ENDBRANCH   3   5
BRANCH   1  22
ATOM     22  C   UNL     1       1.280   1.980   0.001  0.00  0.00    +0.326 C 
BRANCH  22  23
ATOM     23  O   UNL     1       2.379   1.066  -0.015  0.00  0.00    -0.482 OA
BRANCH  23  27
ATOM     24  C   UNL     1       6.170   2.695  -0.042  0.00  0.00    -0.043 A 
ATOM     25  C   UNL     1       5.062   3.523  -0.027  0.00  0.00    +0.007 A 
ATOM     26  C   UNL     1       3.792   2.980  -0.018  0.00  0.00    +0.047 A 
ATOM     27  C   UNL     1       3.628   1.603  -0.024  0.00  0.00    +0.135 A 
ATOM     28  C   UNL     1       4.741   0.773  -0.033  0.00  0.00    +0.060 A 
ATOM     29  C   UNL     1       6.009   1.322  -0.048  0.00  0.00    +0.022 A 
ATOM     30 BR   UNL     1       4.521  -1.105  -0.034  0.00  0.00    -0.047 Br
BRANCH  24  31
ATOM     31  C   UNL     1       7.554   3.291  -0.052  0.00  0.00    +0.016 C 
ATOM     32  C   UNL     1       8.319   2.823   1.188  0.00  0.00    +0.012 C 
BRANCH  31  34
ATOM     33  C   UNL     1       9.653   3.538  -1.384  0.00  0.00    +0.004 C 
ATOM     34  C   UNL     1       8.296   2.836  -1.311  0.00  0.00    +0.004 C 
ENDBRANCH  31  34
ENDBRANCH  24  31
ENDBRANCH  23  27
ENDBRANCH  22  23
ENDBRANCH   1  22
TORSDOF 9
