REMARK  Name = ZINC13428477
REMARK  6 active torsions:
REMARK  status: ('A' for Active; 'I' for Inactive)
REMARK    1  A    between atoms: C_1  and  C_2
REMARK    2  A    between atoms: N_11  and  S_12
REMARK    3  A    between atoms: S_12  and  C_15
REMARK    4  A    between atoms: C_19  and  C_21
REMARK    5  A    between atoms: N_23  and  C_24
REMARK    6  A    between atoms: C_29  and  C_30
REMARK                            x       y       z     vdW  Elec       q    Type
REMARK                         _______ _______ _______ _____ _____    ______ ____
ROOT
ATOM      1  C   UNL     1       6.539   6.838  -0.618  0.00  0.00    +0.109 A 
ATOM      2  C   UNL     1       5.428   7.630  -0.393  0.00  0.00    +0.029 A 
ATOM      3  C   UNL     1       4.190   7.052  -0.178  0.00  0.00    +0.003 A 
ATOM      4  C   UNL     1       4.056   5.679  -0.187  0.00  0.00    +0.013 A 
ATOM      5  C   UNL     1       5.173   4.873  -0.414  0.00  0.00    +0.039 A 
ATOM      6  C   UNL     1       6.420   5.463  -0.625  0.00  0.00    +0.042 A 
ENDROOT
BRANCH   5   7
ATOM      7  C   UNL     1       5.036   3.401  -0.426  0.00  0.00    +0.248 C 
ATOM      8  O   UNL     1       6.011   2.702  -0.624  0.00  0.00    -0.270 OA
ATOM      9  N   UNL     1       3.832   2.834  -0.217  0.00  0.00    -0.281 N 
ATOM     10  H   UNL     1       3.041   3.391  -0.136  0.00  0.00    +0.155 HD
BRANCH   9  11
ATOM     11  C   UNL     1       3.721   1.451  -0.119  0.00  0.00    +0.051 A 
ATOM     12  C   UNL     1       4.735   0.711   0.474  0.00  0.00    +0.062 A 
ATOM     13  C   UNL     1       4.626  -0.664   0.565  0.00  0.00    +0.125 A 
ATOM     14  C   UNL     1       3.502  -1.314   0.071  0.00  0.00    +0.039 A 
ATOM     15  C   UNL     1       2.485  -0.595  -0.515  0.00  0.00    +0.020 A 
ATOM     16  C   UNL     1       2.582   0.797  -0.614  0.00  0.00    +0.084 A 
ATOM     17  F   UNL     1       5.618  -1.381   1.139  0.00  0.00    -0.205 F 
BRANCH  16  18
ATOM     18  C   UNL     1       1.497   1.571  -1.239  0.00  0.00    +0.388 C 
ATOM     19  O   UNL     1       1.541   2.786  -1.243  0.00  0.00    -0.241 OA
ATOM     20  O   UNL     1       0.455   0.934  -1.808  0.00  0.00    -0.241 OA
ENDBRANCH  16  18
ENDBRANCH   9  11
ENDBRANCH   5   7
BRANCH   1  21
ATOM     21  S   UNL     1       8.112   7.585  -0.890  0.00  0.00    +0.075 S 
ATOM     22  O   UNL     1       8.889   6.643  -1.617  0.00  0.00    -0.150 OA
ATOM     23  O   UNL     1       7.859   8.898  -1.371  0.00  0.00    -0.150 OA
BRANCH  21  33
ATOM     24  C   UNL     1       7.249   9.145   1.851  0.00  0.00    +0.030 C 
ATOM     25  C   UNL     1       8.711   8.929   1.456  0.00  0.00    +0.099 C 
ATOM     26  C   UNL     1       9.554   8.603   2.700  0.00  0.00    +0.061 C 
ATOM     27  C   UNL     1      10.117   7.226   2.428  0.00  0.00    -0.023 A 
ATOM     28  C   UNL     1      10.947   6.421   3.183  0.00  0.00    +0.005 A 
ATOM     29  C   UNL     1      11.329   5.179   2.710  0.00  0.00    +0.000 A 
ATOM     30  C   UNL     1      10.878   4.745   1.477  0.00  0.00    +0.002 A 
ATOM     31  C   UNL     1      10.049   5.544   0.720  0.00  0.00    +0.025 A 
ATOM     32  C   UNL     1       9.659   6.800   1.191  0.00  0.00    +0.055 A 
ATOM     33  N   UNL     1       8.836   7.754   0.590  0.00  0.00    -0.200 N 
ENDBRANCH  21  33
ENDBRANCH   1  21
TORSDOF 5
