REMARK  Name = ZINC06281018
REMARK  6 active torsions:
REMARK  status: ('A' for Active; 'I' for Inactive)
REMARK    1  A    between atoms: C_1  and  C_2
REMARK    2  A    between atoms: C_9  and  C_11
REMARK    3  A    between atoms: C_12  and  C_36
REMARK    4  A    between atoms: C_16  and  C_18
REMARK    5  A    between atoms: C_21  and  O_24
REMARK    6  A    between atoms: C_28  and  C_31
REMARK                            x       y       z     vdW  Elec       q    Type
REMARK                         _______ _______ _______ _____ _____    ______ ____
ROOT
ATOM      1  C   UNL     1      -4.749  -4.134   1.374  0.00  0.00    +0.131 C 
ATOM      2  C   UNL     1      -4.144  -3.670   2.480  0.00  0.00    +0.029 C 
ATOM      3  N   UNL     1      -2.875  -3.163   2.416  0.00  0.00    -0.260 NA
ATOM      4  C   UNL     1      -2.348  -2.750   1.222  0.00  0.00    +0.049 C 
ATOM      5  C   UNL     1      -2.883  -3.170   0.055  0.00  0.00    +0.025 C 
ATOM      6  C   UNL     1      -4.054  -4.120   0.043  0.00  0.00    +0.071 C 
ATOM      7  C   UNL     1      -2.365  -2.737  -1.178  0.00  0.00    +0.162 C 
ATOM      8  O   UNL     1      -2.865  -3.141  -2.209  0.00  0.00    -0.292 OA
ATOM      9  C   UNL     1      -1.204  -1.783  -1.244  0.00  0.00    +0.091 C 
ATOM     10  C   UNL     1      -1.208  -0.905   0.012  0.00  0.00    +0.068 C 
ATOM     11  C   UNL     1      -1.162  -1.819   1.242  0.00  0.00    +0.067 C 
ATOM     12  C   UNL     1      -4.868  -3.709   3.801  0.00  0.00    +0.061 C 
ENDROOT
BRANCH   1  21
ATOM     13  C   UNL     1     -11.737  -7.523   0.892  0.00  0.00    +0.045 C 
ATOM     14  C   UNL     1     -10.383  -6.887   0.714  0.00  0.00    -0.032 A 
ATOM     15  C   UNL     1      -9.766  -6.888  -0.530  0.00  0.00    +0.008 A 
ATOM     16  C   UNL     1      -8.522  -6.293  -0.651  0.00  0.00    +0.044 A 
ATOM     17  C   UNL     1      -7.936  -5.718   0.472  0.00  0.00    +0.125 A 
ATOM     18  N   UNL     1      -8.554  -5.742   1.642  0.00  0.00    -0.240 NA
ATOM     19  C   UNL     1      -9.742  -6.297   1.786  0.00  0.00    +0.116 A 
ATOM     20  N   UNL     1      -6.684  -5.116   0.364  0.00  0.00    -0.270 N 
ATOM     21  C   UNL     1      -6.065  -4.648   1.466  0.00  0.00    +0.228 C 
ATOM     22  O   UNL     1      -6.638  -4.666   2.541  0.00  0.00    -0.275 OA
ATOM     23  H   UNL     1      -6.259  -5.034  -0.503  0.00  0.00    +0.156 HD
ENDBRANCH   1  21
BRANCH   6  24
ATOM     24  C   UNL     1      -3.563  -5.507  -0.281  0.00  0.00    -0.038 A 
ATOM     25  C   UNL     1      -2.634  -6.119   0.540  0.00  0.00    +0.008 A 
ATOM     26  C   UNL     1      -2.186  -7.393   0.249  0.00  0.00    +0.045 A 
ATOM     27  C   UNL     1      -2.662  -8.054  -0.874  0.00  0.00    +0.117 A 
ATOM     28  C   UNL     1      -3.590  -7.436  -1.699  0.00  0.00    +0.045 A 
ATOM     29  C   UNL     1      -4.039  -6.164  -1.400  0.00  0.00    +0.008 A 
BRANCH  27  30
ATOM     30  O   UNL     1      -2.218  -9.305  -1.167  0.00  0.00    -0.507 OA
ATOM     31  H   UNL     1      -1.434  -9.322  -1.731  0.00  0.00    +0.292 HD
ENDBRANCH  27  30
ENDBRANCH   6  24
BRANCH  10  32
ATOM     32  C   UNL     1       0.002  -0.006   0.005  0.00  0.00    +0.109 A 
ATOM     33  C   UNL     1      -0.018   1.339   0.015  0.00  0.00    +0.045 A 
ATOM     34  C   UNL     1       1.329   1.768   0.004  0.00  0.00    +0.041 A 
ATOM     35  C   UNL     1       2.091   0.660  -0.012  0.00  0.00    +0.195 A 
ATOM     36  O   UNL     1       1.282  -0.412  -0.011  0.00  0.00    -0.468 OA
ENDBRANCH  10  32
TORSDOF 4
