REMARK  Name = ZINC39980223
REMARK  6 active torsions:
REMARK  status: ('A' for Active; 'I' for Inactive)
REMARK    1  A    between atoms: N_7  and  S_8
REMARK    2  A    between atoms: S_8  and  C_11
REMARK    3  A    between atoms: C_18  and  N_23
REMARK    4  A    between atoms: N_23  and  C_24
REMARK    5  A    between atoms: C_27  and  C_30
REMARK    6  A    between atoms: C_30  and  O_32
REMARK                            x       y       z     vdW  Elec       q    Type
REMARK                         _______ _______ _______ _____ _____    ______ ____
ROOT
ATOM      1  C   UNL     1      -0.272   1.095   0.333  0.00  0.00    +0.002 A 
ATOM      2  C   UNL     1       0.836   1.949   0.204  0.00  0.00    +0.002 A 
ATOM      3  C   UNL     1       2.098   1.490   0.054  0.00  0.00    +0.030 A 
ATOM      4  C   UNL     1       2.355   0.096   0.020  0.00  0.00    +0.089 A 
ATOM      5  N   UNL     1       3.587  -0.345  -0.126  0.00  0.00    -0.226 NA
ATOM      6  C   UNL     1       3.865  -1.658  -0.162  0.00  0.00    +0.192 C 
ATOM      7  N   UNL     1       5.090  -2.070  -0.307  0.00  0.00    -0.110 NA
ATOM      8  C   UNL     1       2.732  -2.651  -0.032  0.00  0.00    +0.237 C 
ATOM      9  N   UNL     1       1.369  -2.122   0.130  0.00  0.00    -0.359 N 
ATOM     10  C   UNL     1       1.203  -0.829   0.154  0.00  0.00    +0.063 A 
ATOM     11  C   UNL     1      -0.139  -0.249   0.314  0.00  0.00    +0.027 A 
ATOM     12  H   UNL     1       0.612  -2.721   0.217  0.00  0.00    +0.162 HD
ENDROOT
BRANCH   7  13
ATOM     13  S   UNL     1       6.321  -0.971  -0.449  0.00  0.00    +0.100 S 
ATOM     14  O   UNL     1       6.115  -0.286  -1.676  0.00  0.00    -0.146 OA
ATOM     15  O   UNL     1       6.405  -0.293   0.797  0.00  0.00    -0.146 OA
BRANCH  13  16
ATOM     16  C   UNL     1       7.817  -1.885  -0.626  0.00  0.00    +0.113 A 
ATOM     17  C   UNL     1       8.540  -2.251   0.493  0.00  0.00    +0.030 A 
ATOM     18  C   UNL     1       9.713  -2.969   0.354  0.00  0.00    +0.017 A 
ATOM     19  C   UNL     1      10.164  -3.320  -0.905  0.00  0.00    +0.018 A 
ATOM     20  C   UNL     1       9.440  -2.953  -2.026  0.00  0.00    +0.017 A 
ATOM     21  C   UNL     1       8.264  -2.240  -1.885  0.00  0.00    +0.030 A 
ATOM     22 BR   UNL     1      11.769  -4.301  -1.096  0.00  0.00    -0.050 Br
ENDBRANCH  13  16
ENDBRANCH   7  13
BRANCH   8  23
ATOM     23  N   UNL     1       2.743  -3.501  -1.225  0.00  0.00    -0.318 N 
ATOM     24  H   UNL     1       2.868  -3.104  -2.102  0.00  0.00    +0.148 HD
BRANCH  23  25
ATOM     25  C   UNL     1       2.572  -4.875  -1.102  0.00  0.00    +0.029 A 
ATOM     26  C   UNL     1       2.743  -5.698  -2.212  0.00  0.00    +0.024 A 
ATOM     27  C   UNL     1       2.575  -7.054  -2.094  0.00  0.00    +0.017 A 
ATOM     28  C   UNL     1       2.233  -7.609  -0.857  0.00  0.00    +0.059 A 
ATOM     29  C   UNL     1       2.062  -6.780   0.255  0.00  0.00    +0.017 A 
ATOM     30  C   UNL     1       2.236  -5.425   0.132  0.00  0.00    +0.024 A 
BRANCH  28  31
ATOM     31  C   UNL     1       2.052  -9.066  -0.727  0.00  0.00    +0.337 C 
ATOM     32  O   UNL     1       2.200  -9.786  -1.695  0.00  0.00    -0.245 OA
BRANCH  31  33
ATOM     33  O   UNL     1       1.722  -9.600   0.466  0.00  0.00    -0.477 OA
ATOM     34  H   UNL     1       1.625 -10.562   0.453  0.00  0.00    +0.295 HD
ENDBRANCH  31  33
ENDBRANCH  28  31
ENDBRANCH  23  25
ENDBRANCH   8  23
TORSDOF 6
