REMARK  Name = ZINC27055344
REMARK  7 active torsions:
REMARK  status: ('A' for Active; 'I' for Inactive)
REMARK    1  A    between atoms: C_3  and  S_8
REMARK    2  A    between atoms: S_8  and  C_9
REMARK    3  A    between atoms: C_14  and  N_15
REMARK    4  A    between atoms: C_16  and  C_18
REMARK    5  A    between atoms: C_18  and  N_19
REMARK    6  A    between atoms: C_21  and  N_29
REMARK    7  A    between atoms: C_23  and  C_26
REMARK                            x       y       z     vdW  Elec       q    Type
REMARK                         _______ _______ _______ _____ _____    ______ ____
ROOT
ATOM      1  N   UNL     1      -3.812  -4.543  -1.914  0.00  0.00    -0.283 N 
ATOM      2  C   UNL     1      -3.912  -3.228  -1.637  0.00  0.00    +0.237 C 
ATOM      3  O   UNL     1      -3.728  -2.408  -2.512  0.00  0.00    -0.274 OA
ATOM      4  H   UNL     1      -4.032  -5.287  -1.134  0.00  0.00    +0.155 HD
ENDROOT
BRANCH   1  10
ATOM      5  C   UNL     1      -3.113  -6.301  -3.426  0.00  0.00    +0.034 A 
ATOM      6  C   UNL     1      -2.738  -6.712  -4.698  0.00  0.00    +0.018 A 
ATOM      7  C   UNL     1      -2.666  -5.793  -5.727  0.00  0.00    +0.021 A 
ATOM      8  C   UNL     1      -2.973  -4.463  -5.496  0.00  0.00    +0.043 A 
ATOM      9  C   UNL     1      -3.353  -4.046  -4.232  0.00  0.00    +0.044 A 
ATOM     10  C   UNL     1      -3.428  -4.962  -3.194  0.00  0.00    +0.049 A 
ATOM     11 CL   UNL     1      -2.880  -3.314  -6.794  0.00  0.00    -0.083 Cl
BRANCH   5  12
ATOM     12  S   UNL     1      -3.199  -7.470  -2.110  0.00  0.00    -0.088 S 
BRANCH  12  15
ATOM     13  C   UNL     1      -0.240  -7.791   0.595  0.00  0.00    +0.039 A 
ATOM     14  C   UNL     1      -1.401  -8.010  -0.119  0.00  0.00    +0.018 A 
ATOM     15  C   UNL     1      -1.717  -7.193  -1.198  0.00  0.00    +0.013 A 
ATOM     16  C   UNL     1      -0.860  -6.160  -1.558  0.00  0.00    +0.018 A 
ATOM     17  C   UNL     1       0.297  -5.942  -0.838  0.00  0.00    +0.039 A 
ATOM     18  C   UNL     1       0.610  -6.758   0.237  0.00  0.00    +0.123 A 
ATOM     19  F   UNL     1       1.746  -6.545   0.937  0.00  0.00    -0.205 F 
ENDBRANCH  12  15
ENDBRANCH   5  12
ENDBRANCH   1  10
BRANCH   2  20
ATOM     20  C   UNL     1      -4.253  -2.775  -0.241  0.00  0.00    +0.220 C 
BRANCH  20  21
ATOM     21  N   UNL     1      -4.302  -1.311  -0.200  0.00  0.00    -0.304 N 
ATOM     22  C   UNL     1      -5.471  -0.676  -0.452  0.00  0.00    +0.122 A 
ATOM     23  C   UNL     1      -5.556   0.679  -0.424  0.00  0.00    +0.143 A 
ATOM     24  C   UNL     1      -4.429   1.445  -0.132  0.00  0.00    +0.052 A 
ATOM     25  C   UNL     1      -3.222   0.799   0.128  0.00  0.00    +0.103 A 
ATOM     26  C   UNL     1      -3.182  -0.619   0.082  0.00  0.00    +0.264 A 
ATOM     27  O   UNL     1      -2.137  -1.208   0.300  0.00  0.00    -0.267 OA
BRANCH  25  28
ATOM     28  C   UNL     1      -2.010   1.572   0.440  0.00  0.00    +0.247 C 
ATOM     29  O   UNL     1      -2.078   2.779   0.580  0.00  0.00    -0.270 OA
ATOM     30  N   UNL     1      -0.825   0.944   0.571  0.00  0.00    -0.325 N 
ATOM     31  H   UNL     1       0.081   1.523   0.804  0.00  0.00    +0.145 HD
ATOM     32  H   UNL     1      -0.764  -0.147   0.444  0.00  0.00    +0.145 HD
ENDBRANCH  25  28
BRANCH  23  33
ATOM     33  N   UNL     1      -6.849   1.343  -0.704  0.00  0.00    +0.058 N 
ATOM     34  O   UNL     1      -7.835   0.675  -0.959  0.00  0.00    -0.126 OA
ATOM     35  O   UNL     1      -6.927   2.558  -0.679  0.00  0.00    -0.126 OA
ENDBRANCH  23  33
ENDBRANCH  20  21
ENDBRANCH   2  20
TORSDOF 7
