REMARK  Name = ZINC54382984
REMARK  10 active torsions:
REMARK  status: ('A' for Active; 'I' for Inactive)
REMARK    1  A    between atoms: C_1  and  C_2
REMARK    2  A    between atoms: C_2  and  C_4
REMARK    3  A    between atoms: C_2  and  N_15
REMARK    4  A    between atoms: C_7  and  S_10
REMARK    5  A    between atoms: S_10  and  N_13
REMARK    6  A    between atoms: N_13  and  C_14
REMARK    7  A    between atoms: N_18  and  C_19
REMARK    8  A    between atoms: C_23  and  C_25
REMARK    9  A    between atoms: C_25  and  C_26
REMARK   10  A    between atoms: C_25  and  C_27
REMARK                            x       y       z     vdW  Elec       q    Type
REMARK                         _______ _______ _______ _____ _____    ______ ____
ROOT
ATOM      1  N   UNL     1      -1.370  -0.517   0.012  0.00  0.00    -0.293 N 
ATOM      2  C   UNL     1      -2.051  -0.641  -1.144  0.00  0.00    +0.304 C 
ATOM      3  O   UNL     1      -1.526  -0.331  -2.196  0.00  0.00    -0.252 OA
ATOM      4  N   UNL     1      -3.315  -1.109  -1.135  0.00  0.00    -0.269 N 
ATOM      5  H   UNL     1      -1.790  -0.764   0.851  0.00  0.00    +0.151 HD
ATOM      6  H   UNL     1      -3.711  -1.420  -0.306  0.00  0.00    +0.156 HD
ENDROOT
BRANCH   4   7
ATOM      7  C   UNL     1      -4.056  -1.148  -2.322  0.00  0.00    +0.035 A 
ATOM      8  C   UNL     1      -5.423  -0.903  -2.297  0.00  0.00    +0.023 A 
ATOM      9  C   UNL     1      -6.151  -0.941  -3.470  0.00  0.00    +0.002 A 
ATOM     10  C   UNL     1      -5.520  -1.223  -4.668  0.00  0.00    +0.004 A 
ATOM     11  C   UNL     1      -4.160  -1.468  -4.696  0.00  0.00    -0.043 A 
ATOM     12  C   UNL     1      -3.425  -1.425  -3.527  0.00  0.00    +0.027 A 
BRANCH  11  13
ATOM     13  C   UNL     1      -3.477  -1.776  -6.004  0.00  0.00    +0.013 C 
ATOM     14  C   UNL     1      -4.092  -3.036  -6.616  0.00  0.00    +0.012 C 
ATOM     15  C   UNL     1      -3.661  -0.600  -6.965  0.00  0.00    +0.012 C 
ENDBRANCH  11  13
ENDBRANCH   4   7
BRANCH   1  17
ATOM     16  C   UNL     1      -0.019   1.522   0.021  0.00  0.00    +0.033 C 
ATOM     17  C   UNL     1       0.003  -0.008   0.002  0.00  0.00    +0.102 C 
BRANCH  17  18
ATOM     18  C   UNL     1       0.736  -0.515   1.218  0.00  0.00    -0.027 A 
ATOM     19  C   UNL     1       0.088  -0.579   2.438  0.00  0.00    +0.007 A 
ATOM     20  C   UNL     1       0.760  -1.044   3.553  0.00  0.00    +0.029 A 
ATOM     21  C   UNL     1       2.079  -1.445   3.448  0.00  0.00    +0.105 A 
ATOM     22  C   UNL     1       2.726  -1.381   2.228  0.00  0.00    +0.029 A 
ATOM     23  C   UNL     1       2.053  -0.920   1.112  0.00  0.00    +0.007 A 
BRANCH  21  24
ATOM     24  S   UNL     1       2.936  -2.036   4.869  0.00  0.00    +0.058 S 
ATOM     25  O   UNL     1       4.321  -1.835   4.622  0.00  0.00    -0.153 OA
ATOM     26  O   UNL     1       2.276  -1.484   6.000  0.00  0.00    -0.153 OA
BRANCH  24  27
ATOM     27  N   UNL     1       2.700  -3.674   4.937  0.00  0.00    -0.193 NA
ATOM     28  C   UNL     1       3.243  -4.536   3.884  0.00  0.00    +0.127 C 
ATOM     29  H   UNL     1       2.202  -4.063   5.673  0.00  0.00    +0.148 HD
ENDBRANCH  24  27
ENDBRANCH  21  24
ENDBRANCH  17  18
ENDBRANCH   1  17
TORSDOF 6
