REMARK  Name = ZINC10538538
REMARK  8 active torsions:
REMARK  status: ('A' for Active; 'I' for Inactive)
REMARK    1  A    between atoms: C_1  and  C_2
REMARK    2  A    between atoms: C_2  and  O_3
REMARK    3  A    between atoms: O_3  and  C_4
REMARK    4  A    between atoms: C_4  and  C_6
REMARK    5  A    between atoms: C_7  and  C_21
REMARK    6  A    between atoms: C_12  and  C_14
REMARK    7  A    between atoms: C_21  and  N_22
REMARK    8  A    between atoms: C_24  and  C_30
REMARK                            x       y       z     vdW  Elec       q    Type
REMARK                         _______ _______ _______ _____ _____    ______ ____
ROOT
ATOM      1  C   UNL     1      -0.007   0.019  -0.104  0.00  0.00    +0.080 C 
ATOM      2  C   UNL     1       0.004   1.369  -0.138  0.00  0.00    +0.044 C 
ATOM      3  N   UNL     1       1.173   2.067  -0.038  0.00  0.00    -0.271 N 
ATOM      4  C   UNL     1       2.373   1.489   0.099  0.00  0.00    +0.304 C 
ATOM      5  O   UNL     1       3.360   2.195   0.180  0.00  0.00    -0.252 OA
ATOM      6  N   UNL     1       2.524   0.151   0.149  0.00  0.00    -0.288 N 
ATOM      7  C   UNL     1       1.322  -0.694   0.050  0.00  0.00    +0.144 C 
ATOM      8  H   UNL     1       1.132   3.035  -0.068  0.00  0.00    +0.156 HD
ATOM      9  H   UNL     1       3.403  -0.246   0.249  0.00  0.00    +0.151 HD
ENDROOT
BRANCH   7  10
ATOM     10  C   UNL     1       1.496  -1.612  -1.132  0.00  0.00    -0.022 A 
ATOM     11  C   UNL     1       1.919  -1.103  -2.346  0.00  0.00    +0.007 A 
ATOM     12  C   UNL     1       2.085  -1.946  -3.429  0.00  0.00    +0.020 A 
ATOM     13  C   UNL     1       1.815  -3.297  -3.301  0.00  0.00    +0.041 A 
ATOM     14  C   UNL     1       1.385  -3.805  -2.088  0.00  0.00    +0.020 A 
ATOM     15  C   UNL     1       1.226  -2.962  -1.004  0.00  0.00    +0.007 A 
ATOM     16 CL   UNL     1       2.014  -4.355  -4.663  0.00  0.00    -0.084 Cl
ENDBRANCH   7  10
BRANCH   1  17
ATOM     17  C   UNL     1      -1.218  -0.706  -0.207  0.00  0.00    +0.339 C 
ATOM     18  O   UNL     1      -1.721  -1.195   0.788  0.00  0.00    -0.245 OA
BRANCH  17  19
ATOM     19  O   UNL     1      -1.815  -0.855  -1.408  0.00  0.00    -0.462 OA
BRANCH  19  21
ATOM     20  C   UNL     1      -3.559  -1.660  -2.874  0.00  0.00    +0.048 C 
ATOM     21  C   UNL     1      -3.035  -1.598  -1.438  0.00  0.00    +0.229 C 
ENDBRANCH  19  21
ENDBRANCH  17  19
ENDBRANCH   1  17
BRANCH   2  22
ATOM     22  C   UNL     1      -1.295   2.116  -0.296  0.00  0.00    +0.176 C 
BRANCH  22  23
ATOM     23  N   UNL     1      -1.550   2.911   0.908  0.00  0.00    -0.308 N 
ATOM     24  C   UNL     1      -1.086   4.184   0.984  0.00  0.00    +0.102 A 
ATOM     25  C   UNL     1      -1.309   4.938   2.085  0.00  0.00    +0.073 A 
ATOM     26  C   UNL     1      -2.028   4.405   3.164  0.00  0.00    +0.039 A 
ATOM     27  C   UNL     1      -2.494   3.125   3.088  0.00  0.00    +0.106 A 
ATOM     28  C   UNL     1      -2.248   2.371   1.926  0.00  0.00    +0.270 A 
ATOM     29  O   UNL     1      -2.663   1.226   1.842  0.00  0.00    -0.266 OA
ATOM     30 CL   UNL     1      -3.388   2.436   4.407  0.00  0.00    -0.078 Cl
BRANCH  25  31
ATOM     31  C   UNL     1      -0.787   6.350   2.151  0.00  0.00    +0.419 C 
ATOM     32  F   UNL     1      -1.790   7.238   1.749  0.00  0.00    -0.166 F 
ATOM     33  F   UNL     1      -0.403   6.644   3.464  0.00  0.00    -0.166 F 
ATOM     34  F   UNL     1       0.318   6.479   1.302  0.00  0.00    -0.166 F 
ENDBRANCH  25  31
ENDBRANCH  22  23
ENDBRANCH   2  22
TORSDOF 7
