REMARK  Name = ZINC00865796
REMARK  8 active torsions:
REMARK  status: ('A' for Active; 'I' for Inactive)
REMARK    1  A    between atoms: C_1  and  O_2
REMARK    2  A    between atoms: O_2  and  C_3
REMARK    3  A    between atoms: C_6  and  N_11
REMARK    4  A    between atoms: C_7  and  O_9
REMARK    5  A    between atoms: O_9  and  C_10
REMARK    6  A    between atoms: C_12  and  C_14
REMARK    7  A    between atoms: C_19  and  C_30
REMARK    8  A    between atoms: C_22  and  C_25
REMARK                            x       y       z     vdW  Elec       q    Type
REMARK                         _______ _______ _______ _____ _____    ______ ____
ROOT
ATOM      1  C   UNL     1       3.477  -2.363  -6.534  0.00  0.00    +0.163 A 
ATOM      2  C   UNL     1       3.996  -1.707  -7.674  0.00  0.00    +0.089 A 
ATOM      3  C   UNL     1       4.400  -2.656  -8.541  0.00  0.00    +0.133 A 
ATOM      4  N   UNL     1       4.152  -3.878  -7.981  0.00  0.00    -0.237 N 
ATOM      5  N   UNL     1       3.580  -3.667  -6.727  0.00  0.00    -0.163 NA
ATOM      6  C   UNL     1       4.466  -5.151  -8.635  0.00  0.00    +0.215 C 
ATOM      7  C   UNL     1       5.502  -4.900  -9.738  0.00  0.00    +0.063 C 
ATOM      8  C   UNL     1       5.045  -3.740 -10.629  0.00  0.00    +0.111 C 
ATOM      9  N   UNL     1       4.977  -2.516  -9.807  0.00  0.00    -0.321 N 
ATOM     10 BR   UNL     1       4.103   0.163  -7.934  0.00  0.00    -0.044 Br
ATOM     11  H   UNL     1       5.313  -1.663 -10.127  0.00  0.00    +0.148 HD
ENDROOT
BRANCH   8  12
ATOM     12  C   UNL     1       3.684  -4.047 -11.201  0.00  0.00    +0.010 A 
ATOM     13  C   UNL     1       3.362  -4.519 -12.430  0.00  0.00    +0.013 A 
ATOM     14  C   UNL     1       2.031  -4.728 -12.739  0.00  0.00    +0.008 A 
ATOM     15  C   UNL     1       1.088  -4.455 -11.804  0.00  0.00    +0.045 A 
ATOM     16  S   UNL     1       2.080  -3.890 -10.432  0.00  0.00    -0.100 S 
ENDBRANCH   8  12
BRANCH   1  18
ATOM     17  N   UNL     1       2.461  -2.451  -4.310  0.00  0.00    -0.277 N 
ATOM     18  C   UNL     1       2.921  -1.706  -5.334  0.00  0.00    +0.270 C 
ATOM     19  O   UNL     1       2.878  -0.492  -5.271  0.00  0.00    -0.268 OA
ATOM     20  H   UNL     1       2.568  -3.415  -4.325  0.00  0.00    +0.155 HD
BRANCH  17  24
ATOM     21  C   UNL     1       0.576  -0.611  -1.071  0.00  0.00    +0.124 A 
ATOM     22  C   UNL     1       0.592   0.010  -2.312  0.00  0.00    +0.047 A 
ATOM     23  C   UNL     1       1.215  -0.599  -3.384  0.00  0.00    +0.030 A 
ATOM     24  C   UNL     1       1.829  -1.833  -3.221  0.00  0.00    +0.076 A 
ATOM     25  C   UNL     1       1.814  -2.457  -1.976  0.00  0.00    +0.145 A 
ATOM     26  C   UNL     1       1.193  -1.842  -0.902  0.00  0.00    +0.093 A 
BRANCH  21  28
ATOM     27  C   UNL     1      -0.654   1.257  -0.264  0.00  0.00    +0.277 C 
ATOM     28  O   UNL     1      -0.039  -0.009  -0.019  0.00  0.00    -0.495 OA
ENDBRANCH  21  28
BRANCH  25  29
ATOM     29  O   UNL     1       2.414  -3.667  -1.814  0.00  0.00    -0.493 OA
ATOM     30  C   UNL     1       2.361  -4.248  -0.510  0.00  0.00    +0.277 C 
ENDBRANCH  25  29
ENDBRANCH  17  24
ENDBRANCH   1  18
BRANCH   6  31
ATOM     31  C   UNL     1       5.037  -6.129  -7.606  0.00  0.00    +0.412 C 
ATOM     32  F   UNL     1       4.094  -6.346  -6.596  0.00  0.00    -0.168 F 
ATOM     33  F   UNL     1       5.336  -7.344  -8.233  0.00  0.00    -0.168 F 
ATOM     34  F   UNL     1       6.202  -5.593  -7.049  0.00  0.00    -0.168 F 
ENDBRANCH   6  31
TORSDOF 6
