REMARK  Name = ZINC35424579
REMARK  8 active torsions:
REMARK  status: ('A' for Active; 'I' for Inactive)
REMARK    1  A    between atoms: C_1  and  C_2
REMARK    2  A    between atoms: C_5  and  N_9
REMARK    3  A    between atoms: C_7  and  C_8
REMARK    4  A    between atoms: C_10  and  C_12
REMARK    5  A    between atoms: N_15  and  S_18
REMARK    6  A    between atoms: S_18  and  C_21
REMARK    7  A    between atoms: C_23  and  C_26
REMARK    8  A    between atoms: C_31  and  C_34
REMARK                            x       y       z     vdW  Elec       q    Type
REMARK                         _______ _______ _______ _____ _____    ______ ____
ROOT
ATOM      1  C   UNL     1      -0.537  -6.552  -0.252  0.00  0.00    +0.078 C 
ATOM      2  C   UNL     1       0.822  -7.106   0.185  0.00  0.00    +0.030 C 
ATOM      3  C   UNL     1       0.824  -8.629   0.024  0.00  0.00    +0.110 C 
ATOM      4  N   UNL     1       0.454  -8.959  -1.359  0.00  0.00    -0.176 NA
ATOM      5  C   UNL     1      -0.789  -8.403  -1.910  0.00  0.00    +0.110 C 
ATOM      6  C   UNL     1      -0.773  -6.882  -1.727  0.00  0.00    +0.030 C 
ENDROOT
BRANCH   1   8
ATOM      7  N   UNL     1      -0.366  -4.531   1.164  0.00  0.00    -0.285 N 
ATOM      8  C   UNL     1      -0.554  -5.057  -0.062  0.00  0.00    +0.220 C 
ATOM      9  O   UNL     1      -0.738  -4.327  -1.014  0.00  0.00    -0.275 OA
ATOM     10  H   UNL     1      -0.145  -5.109   1.911  0.00  0.00    +0.155 HD
BRANCH   7  15
ATOM     11  C   UNL     1      -0.867   1.064   1.959  0.00  0.00    +0.044 C 
ATOM     12  C   UNL     1      -0.734  -0.422   1.748  0.00  0.00    -0.047 A 
ATOM     13  C   UNL     1      -1.461  -1.045   0.750  0.00  0.00    +0.005 A 
ATOM     14  C   UNL     1      -1.341  -2.407   0.554  0.00  0.00    +0.023 A 
ATOM     15  C   UNL     1      -0.489  -3.151   1.360  0.00  0.00    +0.034 A 
ATOM     16  C   UNL     1       0.240  -2.522   2.361  0.00  0.00    +0.027 A 
ATOM     17  C   UNL     1       0.119  -1.159   2.548  0.00  0.00    -0.046 A 
ATOM     18  C   UNL     1       0.914  -0.475   3.630  0.00  0.00    +0.044 C 
ENDBRANCH   7  15
ENDBRANCH   1   8
BRANCH   4  19
ATOM     19  S   UNL     1       1.422  -9.937  -2.280  0.00  0.00    +0.067 S 
ATOM     20  O   UNL     1       1.141  -9.624  -3.638  0.00  0.00    -0.152 OA
ATOM     21  O   UNL     1       2.730  -9.847  -1.733  0.00  0.00    -0.152 OA
BRANCH  19  22
ATOM     22  C   UNL     1       0.882 -11.595  -2.023  0.00  0.00    +0.143 A 
ATOM     23  C   UNL     1      -0.045 -12.290  -2.712  0.00  0.00    +0.049 A 
ATOM     24  C   UNL     1      -0.275 -13.643  -2.264  0.00  0.00    +0.046 A 
ATOM     25  C   UNL     1       0.469 -14.077  -1.190  0.00  0.00    +0.060 A 
ATOM     26  S   UNL     1       1.432 -12.760  -0.796  0.00  0.00    -0.076 S 
BRANCH  24  27
ATOM     27  C   UNL     1      -1.258 -14.516  -2.924  0.00  0.00    +0.247 C 
ATOM     28  O   UNL     1      -1.294 -14.585  -4.137  0.00  0.00    -0.270 OA
ATOM     29  N   UNL     1      -2.120 -15.241  -2.182  0.00  0.00    -0.297 N 
ATOM     30  C   UNL     1      -3.169 -16.043  -2.825  0.00  0.00    +0.108 C 
ATOM     31  C   UNL     1      -4.523 -15.660  -2.220  0.00  0.00    +0.022 C 
ATOM     32  C   UNL     1      -4.459 -15.812  -0.699  0.00  0.00    -0.011 C 
ATOM     33  C   UNL     1      -3.393 -14.870  -0.134  0.00  0.00    +0.022 C 
ATOM     34  C   UNL     1      -2.023 -15.249  -0.716  0.00  0.00    +0.108 C 
ATOM     35  C   UNL     1      -5.820 -15.463  -0.094  0.00  0.00    +0.007 C 
ENDBRANCH  24  27
ENDBRANCH  19  22
ENDBRANCH   4  19
TORSDOF 5
