REMARK  Name = ZINC13204480
REMARK  9 active torsions:
REMARK  status: ('A' for Active; 'I' for Inactive)
REMARK    1  A    between atoms: C_1  and  C_2
REMARK    2  A    between atoms: C_7  and  N_12
REMARK    3  A    between atoms: C_9  and  C_11
REMARK    4  A    between atoms: C_16  and  C_18
REMARK    5  A    between atoms: C_18  and  S_19
REMARK    6  A    between atoms: S_19  and  C_20
REMARK    7  A    between atoms: C_23  and  C_28
REMARK    8  A    between atoms: N_24  and  C_25
REMARK    9  A    between atoms: C_25  and  C_26
REMARK                            x       y       z     vdW  Elec       q    Type
REMARK                         _______ _______ _______ _____ _____    ______ ____
ROOT
ATOM      1  C   UNL     1       6.758  -1.102  -0.316  0.00  0.00    +0.173 C 
ENDROOT
BRANCH   1   6
ATOM      2  N   UNL     1      10.681  -3.879  -0.406  0.00  0.00    -0.296 N 
ATOM      3  C   UNL     1      10.108  -2.680  -0.633  0.00  0.00    +0.306 C 
ATOM      4  O   UNL     1      10.773  -1.762  -1.069  0.00  0.00    -0.252 OA
ATOM      5  N   UNL     1       8.797  -2.501  -0.376  0.00  0.00    -0.239 N 
ATOM      6  C   UNL     1       8.224  -1.303  -0.603  0.00  0.00    +0.231 C 
ATOM      7  O   UNL     1       8.887  -0.386  -1.038  0.00  0.00    -0.274 OA
ATOM      8  H   UNL     1      10.151  -4.612  -0.058  0.00  0.00    +0.151 HD
ATOM      9  H   UNL     1       8.266  -3.235  -0.028  0.00  0.00    +0.159 HD
BRANCH   2  15
ATOM     10  C   UNL     1      14.896  -4.126   0.208  0.00  0.00    +0.008 C 
ATOM     11  C   UNL     1      14.134  -5.415  -0.107  0.00  0.00    -0.009 C 
ATOM     12  C   UNL     1      14.320  -5.769  -1.584  0.00  0.00    +0.003 C 
ATOM     13  C   UNL     1      13.781  -4.632  -2.454  0.00  0.00    +0.002 C 
ATOM     14  C   UNL     1      12.293  -4.428  -2.162  0.00  0.00    +0.022 C 
ATOM     15  C   UNL     1      12.106  -4.074  -0.685  0.00  0.00    +0.078 C 
ATOM     16  C   UNL     1      12.645  -5.211   0.184  0.00  0.00    +0.009 C 
ATOM     17  C   UNL     1      12.459  -4.857   1.661  0.00  0.00    +0.009 C 
ENDBRANCH   2  15
ENDBRANCH   1   6
BRANCH   1  18
ATOM     18  S   UNL     1       6.291   0.599  -0.720  0.00  0.00    -0.077 S 
BRANCH  18  19
ATOM     19  C   UNL     1       4.580   0.555  -0.301  0.00  0.00    +0.193 A 
ATOM     20  N   UNL     1       3.919  -0.479   0.169  0.00  0.00    -0.122 NA
ATOM     21  N   UNL     1       2.690  -0.163   0.370  0.00  0.00    -0.128 NA
ATOM     22  C   UNL     1       2.489   1.090   0.033  0.00  0.00    +0.165 A 
ATOM     23  N   UNL     1       3.694   1.589  -0.404  0.00  0.00    -0.291 N 
BRANCH  22  24
ATOM     24  C   UNL     1       1.210   1.827   0.115  0.00  0.00    +0.019 A 
ATOM     25  C   UNL     1       0.002   1.130   0.168  0.00  0.00    +0.013 A 
ATOM     26  C   UNL     1      -1.189   1.823   0.237  0.00  0.00    +0.021 A 
ATOM     27  C   UNL     1      -1.186   3.207   0.265  0.00  0.00    +0.041 A 
ATOM     28  C   UNL     1       0.009   3.904   0.213  0.00  0.00    +0.021 A 
ATOM     29  C   UNL     1       1.206   3.222   0.138  0.00  0.00    +0.013 A 
ATOM     30 CL   UNL     1      -2.688   4.073   0.359  0.00  0.00    -0.084 Cl
ENDBRANCH  22  24
BRANCH  23  31
ATOM     31  C   UNL     1       3.969   2.947  -0.880  0.00  0.00    +0.250 C 
BRANCH  31  32
ATOM     32  C   UNL     1       4.431   3.800   0.274  0.00  0.00    +0.375 C 
ATOM     33  O   UNL     1       4.521   3.322   1.380  0.00  0.00    -0.244 OA
ATOM     34  O   UNL     1       4.743   5.090   0.072  0.00  0.00    -0.244 OA
ENDBRANCH  31  32
ENDBRANCH  23  31
ENDBRANCH  18  19
ENDBRANCH   1  18
TORSDOF 7
