REMARK  Name = ZINC12655693
REMARK  7 active torsions:
REMARK  status: ('A' for Active; 'I' for Inactive)
REMARK    1  A    between atoms: C_1  and  C_2
REMARK    2  A    between atoms: C_2  and  C_13
REMARK    3  A    between atoms: N_3  and  N_4
REMARK    4  A    between atoms: C_5  and  C_7
REMARK    5  A    between atoms: C_19  and  C_38
REMARK    6  A    between atoms: C_30  and  C_37
REMARK    7  A    between atoms: C_33  and  O_36
REMARK                            x       y       z     vdW  Elec       q    Type
REMARK                         _______ _______ _______ _____ _____    ______ ____
ROOT
ATOM      1  C   UNL     1       6.035   3.322   0.025  0.00  0.00    +0.041 C 
ATOM      2  C   UNL     1       6.661   3.768   1.362  0.00  0.00    +0.010 C 
ATOM      3  C   UNL     1       5.730   4.864   1.916  0.00  0.00    +0.005 C 
ATOM      4  C   UNL     1       4.324   4.498   1.370  0.00  0.00    -0.001 C 
ATOM      5  C   UNL     1       4.599   3.840   0.016  0.00  0.00    -0.021 C 
ATOM      6  C   UNL     1       3.555   2.857  -0.443  0.00  0.00    +0.008 C 
ATOM      7  C   UNL     1       3.022   1.956   0.665  0.00  0.00    +0.005 C 
ATOM      8  C   UNL     1       2.461   2.854   1.773  0.00  0.00    -0.001 C 
ATOM      9  C   UNL     1       3.629   3.613   2.395  0.00  0.00    -0.004 C 
ATOM     10  C   UNL     1       4.601   2.652   3.069  0.00  0.00    +0.004 C 
ATOM     11  C   UNL     1       3.866   1.834   4.138  0.00  0.00    +0.004 C 
ATOM     12  C   UNL     1       2.733   1.054   3.478  0.00  0.00    -0.002 C 
ATOM     13  C   UNL     1       1.737   2.003   2.819  0.00  0.00    -0.026 C 
ATOM     14  C   UNL     1       0.633   1.188   2.137  0.00  0.00    +0.010 C 
ATOM     15  C   UNL     1      -0.060   0.270   3.142  0.00  0.00    +0.032 C 
ATOM     16  C   UNL     1       0.960  -0.668   3.786  0.00  0.00    +0.115 C 
ATOM     17  C   UNL     1       2.037   0.155   4.497  0.00  0.00    +0.035 C 
ATOM     18  C   UNL     1       1.095   2.927   3.858  0.00  0.00    +0.012 C 
ATOM     19  C   UNL     1       4.572   4.990  -1.031  0.00  0.00    +0.012 C 
ENDROOT
BRANCH   1  21
ATOM     20  C   UNL     1       6.684   0.991   0.989  0.00  0.00    +0.062 C 
ATOM     21  C   UNL     1       6.143   1.835  -0.137  0.00  0.00    +0.037 C 
ATOM     22  N   UNL     1       5.776   1.282  -1.231  0.00  0.00    -0.189 NA
BRANCH  22  23
ATOM     23  N   UNL     1       5.452   2.073  -2.341  0.00  0.00    -0.203 N 
ATOM     24  C   UNL     1       4.960   1.499  -3.457  0.00  0.00    +0.263 C 
ATOM     25  O   UNL     1       4.705   0.311  -3.468  0.00  0.00    -0.268 OA
ATOM     26  H   UNL     1       5.582   3.033  -2.307  0.00  0.00    +0.178 HD
BRANCH  24  27
ATOM     27  C   UNL     1       4.730   2.316  -4.670  0.00  0.00    +0.041 A 
ATOM     28  C   UNL     1       4.295   1.728  -5.862  0.00  0.00    +0.033 A 
ATOM     29  C   UNL     1       4.099   2.527  -6.971  0.00  0.00    +0.111 A 
ATOM     30  N   UNL     1       4.306   3.827  -6.914  0.00  0.00    -0.263 NA
ATOM     31  C   UNL     1       4.716   4.422  -5.811  0.00  0.00    +0.111 A 
ATOM     32  C   UNL     1       4.942   3.699  -4.657  0.00  0.00    +0.033 A 
ENDBRANCH  24  27
ENDBRANCH  22  23
ENDBRANCH   1  21
BRANCH  16  33
ATOM     33  O   UNL     1       0.304  -1.515   4.731  0.00  0.00    -0.392 OA
ATOM     34  H   UNL     1      -0.392  -2.067   4.348  0.00  0.00    +0.210 HD
ENDBRANCH  16  33
TORSDOF 4
