REMARK  Name = ZINC16116479
REMARK  8 active torsions:
REMARK  status: ('A' for Active; 'I' for Inactive)
REMARK    1  A    between atoms: C_1  and  C_2
REMARK    2  A    between atoms: C_7  and  S_28
REMARK    3  A    between atoms: C_12  and  C_14
REMARK    4  A    between atoms: C_14  and  O_15
REMARK    5  A    between atoms: O_15  and  C_16
REMARK    6  A    between atoms: C_16  and  C_18
REMARK    7  A    between atoms: C_19  and  C_20
REMARK    8  A    between atoms: S_28  and  N_31
REMARK                            x       y       z     vdW  Elec       q    Type
REMARK                         _______ _______ _______ _____ _____    ______ ____
ROOT
ATOM      1  C   UNL     1       6.000  -6.370  -1.345  0.00  0.00    +0.029 C 
ATOM      2  C   UNL     1       5.226  -6.759  -0.084  0.00  0.00    +0.083 C 
ATOM      3  C   UNL     1       4.920  -8.266  -0.089  0.00  0.00    +0.059 C 
ATOM      4  C   UNL     1       3.411  -8.348  -0.075  0.00  0.00    -0.022 A 
ATOM      5  C   UNL     1       2.562  -9.439  -0.073  0.00  0.00    +0.034 A 
ATOM      6  C   UNL     1       1.193  -9.253  -0.059  0.00  0.00    +0.105 A 
ATOM      7  C   UNL     1       0.672  -7.972  -0.047  0.00  0.00    +0.030 A 
ATOM      8  C   UNL     1       1.514  -6.881  -0.049  0.00  0.00    +0.026 A 
ATOM      9  C   UNL     1       2.899  -7.060  -0.058  0.00  0.00    +0.040 A 
ATOM     10  N   UNL     1       3.917  -6.101  -0.068  0.00  0.00    -0.265 N 
ATOM     11  C   UNL     1       3.722  -4.768  -0.059  0.00  0.00    +0.258 C 
ATOM     12  O   UNL     1       4.674  -4.016  -0.064  0.00  0.00    -0.271 OA
ENDROOT
BRANCH   6  13
ATOM     13  S   UNL     1       0.113 -10.646  -0.056  0.00  0.00    +0.056 S 
ATOM     14  O   UNL     1      -1.125 -10.200  -0.592  0.00  0.00    -0.153 OA
ATOM     15  O   UNL     1       0.843 -11.727  -0.619  0.00  0.00    -0.153 OA
BRANCH  13  16
ATOM     16  N   UNL     1      -0.172 -11.040   1.527  0.00  0.00    -0.204 NA
ATOM     17  H   UNL     1       0.239 -10.523   2.238  0.00  0.00    +0.144 HD
ATOM     18  H   UNL     1      -0.750 -11.789   1.744  0.00  0.00    +0.144 HD
ENDBRANCH  13  16
ENDBRANCH   6  13
BRANCH  11  19
ATOM     19  C   UNL     1       2.322  -4.211  -0.043  0.00  0.00    +0.328 C 
BRANCH  19  20
ATOM     20  O   UNL     1       2.377  -2.783  -0.036  0.00  0.00    -0.452 OA
BRANCH  20  21
ATOM     21  C   UNL     1       1.200  -2.124  -0.021  0.00  0.00    +0.332 C 
ATOM     22  O   UNL     1       0.155  -2.747  -0.014  0.00  0.00    -0.246 OA
BRANCH  21  23
ATOM     23  C   UNL     1       1.180  -0.663  -0.013  0.00  0.00    +0.092 C 
ATOM     24  C   UNL     1       0.002  -0.004   0.002  0.00  0.00    +0.018 C 
BRANCH  24  25
ATOM     25  C   UNL     1      -0.018   1.466   0.010  0.00  0.00    +0.011 A 
ATOM     26  C   UNL     1       1.182   2.186   0.003  0.00  0.00    +0.026 A 
ATOM     27  C   UNL     1       1.155   3.565   0.010  0.00  0.00    +0.019 A 
ATOM     28  C   UNL     1      -0.056   4.239   0.024  0.00  0.00    +0.018 A 
ATOM     29  C   UNL     1      -1.247   3.536   0.032  0.00  0.00    +0.040 A 
ATOM     30  C   UNL     1      -1.238   2.154   0.020  0.00  0.00    +0.131 A 
ATOM     31  F   UNL     1      -2.403   1.469   0.021  0.00  0.00    -0.205 F 
ATOM     32 BR   UNL     1       2.775   4.539  -0.001  0.00  0.00    -0.050 Br
ENDBRANCH  24  25
ENDBRANCH  21  23
ENDBRANCH  20  21
ENDBRANCH  19  20
ENDBRANCH  11  19
TORSDOF 7
