REMARK  Name = ZINC32134091
REMARK  5 active torsions:
REMARK  status: ('A' for Active; 'I' for Inactive)
REMARK    1  A    between atoms: C_1  and  C_2
REMARK    2  A    between atoms: N_4  and  C_5
REMARK    3  A    between atoms: C_9  and  N_11
REMARK    4  A    between atoms: C_12  and  C_14
REMARK    5  A    between atoms: C_18  and  N_20
REMARK                            x       y       z     vdW  Elec       q    Type
REMARK                         _______ _______ _______ _____ _____    ______ ____
ROOT
ATOM      1  N   UNL     1       1.126   2.171  -0.005  0.00  0.00    -0.281 N 
ATOM      2  C   UNL     1       0.122   1.487  -0.589  0.00  0.00    +0.248 C 
ATOM      3  O   UNL     1      -0.791   2.087  -1.123  0.00  0.00    -0.270 OA
ATOM      4  H   UNL     1       1.914   1.631   0.540  0.00  0.00    +0.155 HD
ENDROOT
BRANCH   2   5
ATOM      5  C   UNL     1       0.134   0.010  -0.587  0.00  0.00    +0.039 A 
ATOM      6  C   UNL     1       1.188  -0.680   0.016  0.00  0.00    +0.016 A 
ATOM      7  C   UNL     1       1.195  -2.059   0.022  0.00  0.00    +0.041 A 
ATOM      8  C   UNL     1       0.164  -2.764  -0.578  0.00  0.00    +0.144 A 
ATOM      9  C   UNL     1      -0.888  -2.084  -1.186  0.00  0.00    +0.061 A 
ATOM     10  C   UNL     1      -0.905  -0.699  -1.192  0.00  0.00    +0.038 A 
ATOM     11  F   UNL     1       0.180  -4.115  -0.573  0.00  0.00    -0.204 F 
BRANCH   9  12
ATOM     12  N   UNL     1      -1.927  -2.799  -1.790  0.00  0.00    -0.356 N 
ATOM     13  H   UNL     1      -2.758  -2.262  -2.271  0.00  0.00    +0.142 HD
ATOM     14  H   UNL     1      -1.913  -3.899  -1.786  0.00  0.00    +0.142 HD
ENDBRANCH   9  12
ENDBRANCH   2   5
BRANCH   1  19
ATOM     15  C   UNL     1       2.420   5.606  -0.272  0.00  0.00    +0.035 A 
ATOM     16  C   UNL     1       1.235   6.331  -0.260  0.00  0.00    +0.023 A 
ATOM     17  C   UNL     1       0.022   5.676  -0.163  0.00  0.00    +0.004 A 
ATOM     18  C   UNL     1      -0.016   4.297  -0.079  0.00  0.00    +0.023 A 
ATOM     19  C   UNL     1       1.165   3.566  -0.091  0.00  0.00    +0.035 A 
ATOM     20  C   UNL     1       2.385   4.222  -0.182  0.00  0.00    +0.046 A 
BRANCH  15  24
ATOM     21  C   UNL     1       5.164   8.137   0.207  0.00  0.00    +0.109 C 
ATOM     22  C   UNL     1       3.813   7.469   0.223  0.00  0.00    +0.214 C 
ATOM     23  O   UNL     1       2.876   8.010   0.771  0.00  0.00    -0.276 OA
ATOM     24  N   UNL     1       3.647   6.271  -0.370  0.00  0.00    -0.286 N 
ATOM     25  H   UNL     1       4.476   5.815  -0.932  0.00  0.00    +0.155 HD
ENDBRANCH  15  24
ENDBRANCH   1  19
TORSDOF 4
