REMARK  Name = ZINC00619816
REMARK  7 active torsions:
REMARK  status: ('A' for Active; 'I' for Inactive)
REMARK    1  A    between atoms: C_1  and  C_2
REMARK    2  A    between atoms: C_2  and  C_3
REMARK    3  A    between atoms: C_3  and  C_4
REMARK    4  A    between atoms: C_11  and  N_24
REMARK    5  A    between atoms: C_12  and  C_22
REMARK    6  A    between atoms: C_13  and  C_15
REMARK    7  A    between atoms: C_20  and  C_21
REMARK                            x       y       z     vdW  Elec       q    Type
REMARK                         _______ _______ _______ _____ _____    ______ ____
ROOT
ATOM      1  C   UNL     1       0.755   3.444   0.011  0.00  0.00    +0.071 A 
ATOM      2  C   UNL     1       1.124   2.106   0.003  0.00  0.00    +0.049 A 
ATOM      3  C   UNL     1      -0.016   1.352   0.009  0.00  0.00    +0.222 A 
ATOM      4  N   UNL     1      -1.060   2.196   0.018  0.00  0.00    -0.246 N 
ATOM      5  H   UNL     1      -2.026   1.938   0.021  0.00  0.00    +0.192 HD
ATOM      6  N   UNL     1      -0.555   3.506   0.024  0.00  0.00    -0.176 NA
ATOM      7  O   UNL     1       0.002  -0.004   0.002  0.00  0.00    -0.423 OA
ATOM      8  C   UNL     1       1.171  -0.611  -0.289  0.00  0.00    +0.200 C 
ATOM      9  C   UNL     1       2.363   0.025  -0.314  0.00  0.00    +0.098 C 
ATOM     10  C   UNL     1       2.502   1.496  -0.011  0.00  0.00    +0.102 C 
ENDROOT
BRANCH  10  11
ATOM     11  C   UNL     1       3.152   1.677   1.337  0.00  0.00    -0.032 A 
ATOM     12  C   UNL     1       2.550   1.162   2.470  0.00  0.00    +0.005 A 
ATOM     13  C   UNL     1       3.146   1.329   3.705  0.00  0.00    +0.000 A 
ATOM     14  C   UNL     1       4.344   2.010   3.809  0.00  0.00    +0.000 A 
ATOM     15  C   UNL     1       4.946   2.525   2.676  0.00  0.00    +0.003 A 
ATOM     16  C   UNL     1       4.352   2.355   1.439  0.00  0.00    -0.046 A 
ATOM     17  C   UNL     1       5.012   2.911   0.204  0.00  0.00    +0.044 C 
ENDBRANCH  10  11
BRANCH   8  18
ATOM     18  N   UNL     1       1.148  -1.953  -0.576  0.00  0.00    -0.328 N 
ATOM     19  H   UNL     1       0.307  -2.437  -0.565  0.00  0.00    +0.145 HD
ATOM     20  H   UNL     1       1.972  -2.418  -0.789  0.00  0.00    +0.145 HD
ENDBRANCH   8  18
BRANCH   9  21
ATOM     21  C   UNL     1       3.538  -0.726  -0.641  0.00  0.00    +0.101 C 
ATOM     22  N   UNL     1       4.470  -1.322  -0.900  0.00  0.00    -0.191 NA
ENDBRANCH   9  21
BRANCH   1  23
ATOM     23  C   UNL     1       1.696   4.621   0.006  0.00  0.00    +0.057 C 
BRANCH  23  25
ATOM     24  C   UNL     1       2.956   6.220  -1.443  0.00  0.00    +0.004 C 
ATOM     25  C   UNL     1       2.001   5.025  -1.438  0.00  0.00    +0.003 C 
ENDBRANCH  23  25
ENDBRANCH   1  23
TORSDOF 5
