REMARK  Name = ZINC32697618
REMARK  12 active torsions:
REMARK  status: ('A' for Active; 'I' for Inactive)
REMARK    1  A    between atoms: C_1  and  C_2
REMARK    2  A    between atoms: C_2  and  O_3
REMARK    3  A    between atoms: O_3  and  C_4
REMARK    4  A    between atoms: C_4  and  C_6
REMARK    5  A    between atoms: C_7  and  C_36
REMARK    6  A    between atoms: C_8  and  C_27
REMARK    7  A    between atoms: C_10  and  N_11
REMARK    8  A    between atoms: C_12  and  C_14
REMARK    9  A    between atoms: C_14  and  S_15
REMARK   10  A    between atoms: S_15  and  C_16
REMARK   11  A    between atoms: C_22  and  C_26
REMARK   12  A    between atoms: N_29  and  C_30
REMARK                            x       y       z     vdW  Elec       q    Type
REMARK                         _______ _______ _______ _____ _____    ______ ____
ROOT
ATOM      1  C   UNL     1       7.942   5.778  -0.026  0.00  0.00    +0.091 A 
ATOM      2  C   UNL     1       9.329   5.805  -0.048  0.00  0.00    -0.015 A 
ATOM      3  C   UNL     1       9.988   4.606  -0.059  0.00  0.00    +0.080 A 
ATOM      4  S   UNL     1       8.653   3.424  -0.032  0.00  0.00    -0.068 S 
ATOM      5  C   UNL     1       7.316   4.527  -0.018  0.00  0.00    +0.087 A 
ATOM      6  C   UNL     1      10.083   7.109  -0.058  0.00  0.00    +0.046 C 
ENDROOT
BRANCH   5   7
ATOM      7  N   UNL     1       5.965   4.241   0.003  0.00  0.00    -0.279 N 
ATOM      8  C   UNL     1       5.547   2.960   0.008  0.00  0.00    +0.228 C 
ATOM      9  O   UNL     1       6.357   2.058  -0.005  0.00  0.00    -0.275 OA
ATOM     10  H   UNL     1       5.230   5.059   0.015  0.00  0.00    +0.155 HD
BRANCH   8  11
ATOM     11  C   UNL     1       4.073   2.648   0.031  0.00  0.00    +0.173 C 
BRANCH  11  12
ATOM     12  S   UNL     1       3.836   0.854   0.032  0.00  0.00    -0.079 S 
BRANCH  12  13
ATOM     13  C   UNL     1       2.075   0.778   0.060  0.00  0.00    +0.168 A 
ATOM     14  N   UNL     1       1.339  -0.373   0.070  0.00  0.00    -0.333 N 
ATOM     15  H   UNL     1       1.845  -1.350   0.060  0.00  0.00    +0.168 HD
ATOM     16  C   UNL     1       0.004  -0.006   0.092  0.00  0.00    +0.067 A 
ATOM     17  C   UNL     1      -1.188  -0.715   0.110  0.00  0.00    +0.028 A 
ATOM     18  C   UNL     1      -2.390  -0.037   0.130  0.00  0.00    +0.005 A 
ATOM     19  C   UNL     1      -2.415   1.350   0.133  0.00  0.00    -0.048 A 
ATOM     20  C   UNL     1      -1.241   2.070   0.120  0.00  0.00    +0.033 A 
ATOM     21  C   UNL     1      -0.016   1.399   0.094  0.00  0.00    +0.090 A 
ATOM     22  N   UNL     1       1.277   1.817   0.074  0.00  0.00    -0.222 NA
ATOM     23  C   UNL     1      -3.736   2.074   0.156  0.00  0.00    +0.044 C 
ENDBRANCH  12  13
ENDBRANCH  11  12
ENDBRANCH   8  11
ENDBRANCH   5   7
BRANCH   3  24
ATOM     24  C   UNL     1      11.430   4.355  -0.082  0.00  0.00    +0.255 C 
ATOM     25  O   UNL     1      12.210   5.290  -0.093  0.00  0.00    -0.269 OA
ATOM     26  N   UNL     1      11.894   3.090  -0.091  0.00  0.00    -0.281 N 
ATOM     27  H   UNL     1      11.194   2.247  -0.004  0.00  0.00    +0.155 HD
BRANCH  26  28
ATOM     28  C   UNL     1      13.267   2.849  -0.210  0.00  0.00    +0.034 A 
ATOM     29  C   UNL     1      13.720   1.740  -0.911  0.00  0.00    +0.023 A 
ATOM     30  C   UNL     1      15.077   1.508  -1.032  0.00  0.00    +0.002 A 
ATOM     31  C   UNL     1      15.982   2.374  -0.446  0.00  0.00    +0.000 A 
ATOM     32  C   UNL     1      15.534   3.476   0.258  0.00  0.00    +0.002 A 
ATOM     33  C   UNL     1      14.179   3.717   0.378  0.00  0.00    +0.023 A 
ENDBRANCH  26  28
ENDBRANCH   3  24
BRANCH   1  34
ATOM     34  C   UNL     1       7.160   7.019  -0.013  0.00  0.00    +0.342 C 
ATOM     35  O   UNL     1       6.851   7.532   1.045  0.00  0.00    -0.245 OA
BRANCH  34  36
ATOM     36  O   UNL     1       6.782   7.590  -1.175  0.00  0.00    -0.461 OA
BRANCH  36  38
ATOM     37  C   UNL     1       5.675   9.311  -2.494  0.00  0.00    +0.048 C 
ATOM     38  C   UNL     1       6.009   8.816  -1.086  0.00  0.00    +0.229 C 
ENDBRANCH  36  38
ENDBRANCH  34  36
ENDBRANCH   1  34
TORSDOF 9
