REMARK  Name = ZINC03007163
REMARK  12 active torsions:
REMARK  status: ('A' for Active; 'I' for Inactive)
REMARK    1  A    between atoms: C_1  and  C_2
REMARK    2  A    between atoms: C_2  and  O_3
REMARK    3  A    between atoms: O_3  and  C_4
REMARK    4  A    between atoms: C_4  and  C_6
REMARK    5  A    between atoms: C_10  and  N_11
REMARK    6  A    between atoms: C_12  and  C_14
REMARK    7  A    between atoms: C_17  and  S_20
REMARK    8  A    between atoms: S_20  and  N_23
REMARK    9  A    between atoms: C_27  and  C_30
REMARK   10  A    between atoms: N_32  and  C_35
REMARK   11  A    between atoms: C_35  and  C_36
REMARK   12  A    between atoms: C_35  and  C_37
REMARK                            x       y       z     vdW  Elec       q    Type
REMARK                         _______ _______ _______ _____ _____    ______ ____
ROOT
ATOM      1  N   UNL     1      -3.131  -2.434   2.525  0.00  0.00    -0.275 N 
ATOM      2  C   UNL     1      -3.917  -2.774   3.565  0.00  0.00    +0.249 C 
ATOM      3  O   UNL     1      -5.014  -3.258   3.366  0.00  0.00    -0.270 OA
ATOM      4  H   UNL     1      -2.256  -2.048   2.684  0.00  0.00    +0.156 HD
ENDROOT
BRANCH   1   9
ATOM      5  C   UNL     1      -2.908  -2.348   0.044  0.00  0.00    +0.091 A 
ATOM      6  C   UNL     1      -3.595  -2.662  -1.193  0.00  0.00    -0.025 A 
ATOM      7  C   UNL     1      -4.824  -3.200  -1.025  0.00  0.00    -0.021 A 
ATOM      8  S   UNL     1      -5.042  -3.280   0.726  0.00  0.00    -0.079 S 
ATOM      9  C   UNL     1      -3.574  -2.635   1.228  0.00  0.00    +0.086 A 
ATOM     10  C   UNL     1      -5.762  -3.617  -2.114  0.00  0.00    -0.035 C 
ATOM     11  N   UNL     1      -5.305  -3.007  -3.377  0.00  0.00    +0.384 N 
ATOM     12  C   UNL     1      -3.875  -3.279  -3.568  0.00  0.00    -0.073 C 
ATOM     13  C   UNL     1      -3.042  -2.438  -2.594  0.00  0.00    +0.018 C 
ATOM     14  H   UNL     1      -5.456  -2.010  -3.342  0.00  0.00    -0.081 HD
BRANCH  11  15
ATOM     15  C   UNL     1      -6.065  -3.577  -4.498  0.00  0.00    -0.074 C 
ATOM     16  C   UNL     1      -7.563  -3.412  -4.235  0.00  0.00    -0.014 C 
ATOM     17  C   UNL     1      -5.691  -2.848  -5.790  0.00  0.00    -0.014 C 
ENDBRANCH  11  15
BRANCH   5  18
ATOM     18  C   UNL     1      -1.567  -1.758   0.045  0.00  0.00    +0.342 C 
ATOM     19  O   UNL     1      -0.587  -2.478   0.051  0.00  0.00    -0.245 OA
BRANCH  18  20
ATOM     20  O   UNL     1      -1.420  -0.418   0.040  0.00  0.00    -0.461 OA
BRANCH  20  22
ATOM     21  C   UNL     1      -0.117   1.618   0.036  0.00  0.00    +0.048 C 
ATOM     22  C   UNL     1      -0.083   0.088   0.042  0.00  0.00    +0.229 C 
ENDBRANCH  20  22
ENDBRANCH  18  20
ENDBRANCH   5  18
ENDBRANCH   1   9
BRANCH   2  23
ATOM     23  C   UNL     1      -3.445  -2.559   4.949  0.00  0.00    +0.037 A 
ATOM     24  C   UNL     1      -2.188  -1.999   5.182  0.00  0.00    +0.015 A 
ATOM     25  C   UNL     1      -1.753  -1.800   6.476  0.00  0.00    +0.029 A 
ATOM     26  C   UNL     1      -2.560  -2.156   7.542  0.00  0.00    +0.106 A 
ATOM     27  C   UNL     1      -3.807  -2.713   7.319  0.00  0.00    +0.029 A 
ATOM     28  C   UNL     1      -4.256  -2.911   6.029  0.00  0.00    +0.015 A 
BRANCH  26  29
ATOM     29  S   UNL     1      -1.997  -1.899   9.192  0.00  0.00    +0.061 S 
ATOM     30  O   UNL     1      -2.709  -2.816  10.011  0.00  0.00    -0.153 OA
ATOM     31  O   UNL     1      -0.577  -1.870   9.137  0.00  0.00    -0.153 OA
BRANCH  29  32
ATOM     32  N   UNL     1      -2.484  -0.383   9.645  0.00  0.00    -0.176 NA
ATOM     33  C   UNL     1      -1.625   0.784   9.400  0.00  0.00    +0.109 C 
ATOM     34  C   UNL     1      -1.427   1.536  10.720  0.00  0.00    +0.017 C 
ATOM     35  C   UNL     1      -2.794   1.876  11.318  0.00  0.00    +0.006 C 
ATOM     36  C   UNL     1      -3.562   0.585  11.609  0.00  0.00    +0.002 C 
ATOM     37  C   UNL     1      -3.786  -0.178  10.294  0.00  0.00    +0.112 C 
ATOM     38  C   UNL     1      -4.915   0.925  12.238  0.00  0.00    +0.009 C 
ENDBRANCH  29  32
ENDBRANCH  26  29
ENDBRANCH   2  23
TORSDOF 8
