REMARK  Name = ZINC24537987
REMARK  7 active torsions:
REMARK  status: ('A' for Active; 'I' for Inactive)
REMARK    1  A    between atoms: C_3  and  C_6
REMARK    2  A    between atoms: C_6  and  C_8
REMARK    3  A    between atoms: C_6  and  N_28
REMARK    4  A    between atoms: C_8  and  N_9
REMARK    5  A    between atoms: C_10  and  C_12
REMARK    6  A    between atoms: N_15  and  S_18
REMARK    7  A    between atoms: S_18  and  C_21
REMARK                            x       y       z     vdW  Elec       q    Type
REMARK                         _______ _______ _______ _____ _____    ______ ____
ROOT
ATOM      1  N   UNL     1       3.832   5.035  -1.251  0.00  0.00    -0.316 N 
ATOM      2  C   UNL     1       4.400   5.591  -2.340  0.00  0.00    +0.216 C 
ATOM      3  O   UNL     1       4.155   5.151  -3.443  0.00  0.00    -0.276 OA
ATOM      4  H   UNL     1       4.055   5.433  -0.250  0.00  0.00    +0.149 HD
ENDROOT
BRANCH   2   5
ATOM      5  C   UNL     1       5.340   6.759  -2.185  0.00  0.00    +0.077 C 
ATOM      6  C   UNL     1       4.603   7.921  -1.516  0.00  0.00    +0.030 C 
ATOM      7  C   UNL     1       5.570   9.094  -1.330  0.00  0.00    +0.110 C 
ATOM      8  N   UNL     1       6.167   9.427  -2.631  0.00  0.00    -0.177 NA
ATOM      9  C   UNL     1       6.822   8.361  -3.401  0.00  0.00    +0.110 C 
ATOM     10  C   UNL     1       5.840   7.196  -3.564  0.00  0.00    +0.030 C 
BRANCH   8  11
ATOM     11  S   UNL     1       6.102  10.974  -3.218  0.00  0.00    +0.061 S 
ATOM     12  O   UNL     1       5.947  11.829  -2.093  0.00  0.00    -0.153 OA
ATOM     13  O   UNL     1       7.181  11.106  -4.133  0.00  0.00    -0.153 OA
BRANCH  11  14
ATOM     14  C   UNL     1       4.621  11.111  -4.162  0.00  0.00    +0.106 A 
ATOM     15  C   UNL     1       4.634  10.823  -5.514  0.00  0.00    +0.030 A 
ATOM     16  C   UNL     1       3.471  10.925  -6.254  0.00  0.00    +0.022 A 
ATOM     17  C   UNL     1       2.296  11.327  -5.644  0.00  0.00    +0.041 A 
ATOM     18  C   UNL     1       2.285  11.620  -4.292  0.00  0.00    +0.022 A 
ATOM     19  C   UNL     1       3.447  11.512  -3.552  0.00  0.00    +0.030 A 
ATOM     20 CL   UNL     1       0.837  11.462  -6.574  0.00  0.00    -0.084 Cl
ENDBRANCH  11  14
ENDBRANCH   8  11
ENDBRANCH   2   5
BRANCH   1  21
ATOM     21  C   UNL     1       2.919   3.899  -1.401  0.00  0.00    +0.094 C 
BRANCH  21  22
ATOM     22  C   UNL     1       2.301   3.558  -0.043  0.00  0.00    -0.013 C 
BRANCH  22  23
ATOM     23  N   UNL     1       1.490   4.690   0.424  0.00  0.00    +0.386 N 
ATOM     24  C   UNL     1       0.658   4.303   1.592  0.00  0.00    -0.078 C 
ATOM     25  C   UNL     1       0.313   5.664   2.248  0.00  0.00    -0.020 C 
ATOM     26  C   UNL     1       1.614   6.477   2.063  0.00  0.00    -0.020 C 
ATOM     27  C   UNL     1       2.348   5.801   0.890  0.00  0.00    -0.078 C 
ATOM     28  H   UNL     1       0.873   4.991  -0.436  0.00  0.00    -0.081 HD
ENDBRANCH  22  23
BRANCH  22  31
ATOM     29  C   UNL     1       0.713   0.096  -0.009  0.00  0.00    +0.008 A 
ATOM     30  C   UNL     1       1.669   1.067   0.226  0.00  0.00    +0.009 A 
ATOM     31  C   UNL     1       1.429   2.337  -0.180  0.00  0.00    -0.022 A 
ATOM     32  S   UNL     1      -0.189   2.189  -0.920  0.00  0.00    -0.103 S 
ATOM     33  C   UNL     1      -0.436   0.444  -0.638  0.00  0.00    +0.045 A 
ENDBRANCH  22  31
ENDBRANCH  21  22
ENDBRANCH   1  21
TORSDOF 7
