REMARK  Name = ZINC63708503
REMARK  11 active torsions:
REMARK  status: ('A' for Active; 'I' for Inactive)
REMARK    1  A    between atoms: C_1  and  C_2
REMARK    2  A    between atoms: C_2  and  C_3
REMARK    3  A    between atoms: C_2  and  C_4
REMARK    4  A    between atoms: C_2  and  C_5
REMARK    5  A    between atoms: C_8  and  C_11
REMARK    6  A    between atoms: C_11  and  S_12
REMARK    7  A    between atoms: S_12  and  C_13
REMARK    8  A    between atoms: N_24  and  N_25
REMARK    9  A    between atoms: C_26  and  C_28
REMARK   10  A    between atoms: C_28  and  C_29
REMARK   11  A    between atoms: C_29  and  C_30
REMARK                            x       y       z     vdW  Elec       q    Type
REMARK                         _______ _______ _______ _____ _____    ______ ____
ROOT
ATOM      1  C   UNL     1       3.373  -1.391  -7.491  0.00  0.00    +0.241 C 
ATOM      2  N   UNL     1       4.788  -1.546  -7.133  0.00  0.00    -0.316 N 
ATOM      3  C   UNL     1       5.157  -2.598  -6.303  0.00  0.00    +0.041 A 
ATOM      4  C   UNL     1       6.257  -2.515  -5.465  0.00  0.00    +0.024 A 
ATOM      5  C   UNL     1       6.591  -3.591  -4.666  0.00  0.00    +0.002 A 
ATOM      6  C   UNL     1       5.835  -4.753  -4.697  0.00  0.00    +0.001 A 
ATOM      7  C   UNL     1       4.734  -4.851  -5.522  0.00  0.00    +0.015 A 
ATOM      8  C   UNL     1       4.383  -3.771  -6.330  0.00  0.00    +0.059 A 
ATOM      9  C   UNL     1       3.203  -3.818  -7.210  0.00  0.00    +0.267 C 
ATOM     10  O   UNL     1       2.608  -4.864  -7.384  0.00  0.00    -0.268 OA
ATOM     11  N   UNL     1       2.790  -2.692  -7.819  0.00  0.00    -0.186 N 
ATOM     12  H   UNL     1       5.453  -0.926  -7.470  0.00  0.00    +0.149 HD
ENDROOT
BRANCH  11  13
ATOM     13  N   UNL     1       1.780  -2.769  -8.786  0.00  0.00    -0.229 N 
ATOM     14  C   UNL     1       2.057  -3.253 -10.013  0.00  0.00    +0.230 C 
ATOM     15  O   UNL     1       3.181  -3.620 -10.281  0.00  0.00    -0.274 OA
ATOM     16  H   UNL     1       0.880  -2.475  -8.572  0.00  0.00    +0.173 HD
BRANCH  14  17
ATOM     17  C   UNL     1       0.970  -3.336 -11.054  0.00  0.00    +0.102 C 
BRANCH  17  18
ATOM     18  C   UNL     1       1.545  -3.915 -12.348  0.00  0.00    +0.042 C 
BRANCH  18  19
ATOM     19  C   UNL     1       0.458  -3.998 -13.388  0.00  0.00    -0.041 C 
ATOM     20  C   UNL     1       0.181  -3.088 -14.350  0.00  0.00    -0.001 A 
ATOM     21  C   UNL     1       0.786  -1.798 -14.701  0.00  0.00    +0.010 A 
ATOM     22  C   UNL     1       0.278  -1.097 -15.740  0.00  0.00    +0.001 A 
ATOM     23  C   UNL     1      -0.808  -1.570 -16.488  0.00  0.00    +0.002 A 
ATOM     24  C   UNL     1      -1.417  -2.746 -16.226  0.00  0.00    +0.026 A 
ATOM     25  C   UNL     1      -0.965  -3.566 -15.155  0.00  0.00    +0.043 A 
ATOM     26  N   UNL     1      -1.381  -4.726 -14.709  0.00  0.00    -0.380 N 
ATOM     27  C   UNL     1      -0.541  -5.119 -13.572  0.00  0.00    +0.144 C 
ATOM     28  H   UNL     1      -2.119  -5.241 -15.072  0.00  0.00    +0.160 HD
ENDBRANCH  18  19
ENDBRANCH  17  18
ENDBRANCH  14  17
ENDBRANCH  11  13
BRANCH   1  29
ATOM     29  S   UNL     1       2.476  -0.666  -6.091  0.00  0.00    -0.113 S 
BRANCH  29  30
ATOM     30  C   UNL     1       2.707  -1.868  -4.752  0.00  0.00    +0.107 C 
BRANCH  30  34
ATOM     31  C   UNL     1       0.707  -0.490  -1.238  0.00  0.00    -0.042 A 
ATOM     32  C   UNL     1       0.036  -1.284  -2.148  0.00  0.00    +0.004 A 
ATOM     33  C   UNL     1       0.683  -1.730  -3.286  0.00  0.00    +0.005 A 
ATOM     34  C   UNL     1       2.001  -1.381  -3.513  0.00  0.00    -0.037 A 
ATOM     35  C   UNL     1       2.672  -0.586  -2.603  0.00  0.00    +0.005 A 
ATOM     36  C   UNL     1       2.024  -0.137  -1.467  0.00  0.00    +0.004 A 
BRANCH  31  38
ATOM     37  C   UNL     1      -0.019   1.526   0.010  0.00  0.00    +0.015 C 
ATOM     38  C   UNL     1       0.002  -0.004   0.002  0.00  0.00    -0.013 C 
ATOM     39  C   UNL     1       0.742  -0.511   1.242  0.00  0.00    +0.015 C 
ATOM     40  C   UNL     1      -1.433  -0.534   0.013  0.00  0.00    +0.015 C 
ENDBRANCH  31  38
ENDBRANCH  30  34
ENDBRANCH  29  30
ENDBRANCH   1  29
TORSDOF 8
