REMARK  Name = ZINC09237766
REMARK  7 active torsions:
REMARK  status: ('A' for Active; 'I' for Inactive)
REMARK    1  A    between atoms: C_1  and  C_2
REMARK    2  A    between atoms: C_7  and  N_8
REMARK    3  A    between atoms: C_9  and  C_11
REMARK    4  A    between atoms: C_13  and  C_23
REMARK    5  A    between atoms: C_17  and  C_22
REMARK    6  A    between atoms: C_26  and  O_30
REMARK    7  A    between atoms: O_30  and  C_31
REMARK                            x       y       z     vdW  Elec       q    Type
REMARK                         _______ _______ _______ _____ _____    ______ ____
ROOT
ATOM      1  C   UNL     1       1.384   4.098  -1.411  0.00  0.00    +0.166 C 
ATOM      2  C   UNL     1       1.150   3.575   0.012  0.00  0.00    +0.140 C 
ATOM      3  N   UNL     1       2.196   4.060   0.914  0.00  0.00    -0.272 N 
ATOM      4  N   UNL     1       2.265   5.414   0.993  0.00  0.00    -0.225 N 
ATOM      5  C   UNL     1       2.815   6.163   1.993  0.00  0.00    +0.148 A 
ATOM      6  N   UNL     1       2.683   7.417   1.656  0.00  0.00    -0.132 NA
ATOM      7  N   UNL     1       2.087   7.510   0.518  0.00  0.00    -0.121 NA
ATOM      8  C   UNL     1       1.807   6.316   0.075  0.00  0.00    +0.209 A 
ATOM      9  S   UNL     1       0.988   5.873  -1.425  0.00  0.00    -0.069 S 
ATOM     10  C   UNL     1       3.454   5.640   3.253  0.00  0.00    +0.090 C 
ATOM     11  H   UNL     1       2.102   3.649   1.831  0.00  0.00    +0.167 HD
ENDROOT
BRANCH   2  12
ATOM     12  C   UNL     1       1.163   2.068  -0.003  0.00  0.00    -0.023 A 
ATOM     13  C   UNL     1       2.367   1.389  -0.020  0.00  0.00    +0.009 A 
ATOM     14  C   UNL     1       2.382   0.008  -0.034  0.00  0.00    +0.047 A 
ATOM     15  C   UNL     1       1.188  -0.698  -0.030  0.00  0.00    +0.134 A 
ATOM     16  C   UNL     1      -0.019  -0.014  -0.012  0.00  0.00    +0.060 A 
ATOM     17  C   UNL     1      -0.029   1.368   0.002  0.00  0.00    +0.024 A 
ATOM     18 BR   UNL     1      -1.649  -0.972  -0.006  0.00  0.00    -0.047 Br
BRANCH  15  19
ATOM     19  O   UNL     1       1.201  -2.057  -0.044  0.00  0.00    -0.494 OA
ATOM     20  C   UNL     1       2.480  -2.694  -0.062  0.00  0.00    +0.277 C 
ENDBRANCH  15  19
ENDBRANCH   2  12
BRANCH   1  22
ATOM     21  N   UNL     1       0.922   3.092  -3.623  0.00  0.00    -0.284 N 
ATOM     22  C   UNL     1       0.487   3.367  -2.377  0.00  0.00    +0.233 C 
ATOM     23  O   UNL     1      -0.625   3.027  -2.034  0.00  0.00    -0.274 OA
ATOM     24  H   UNL     1       1.779   3.433  -3.924  0.00  0.00    +0.155 HD
BRANCH  21  31
ATOM     25  C   UNL     1       1.289   3.400  -6.428  0.00  0.00    +0.045 C 
ATOM     26  C   UNL     1       0.284   2.432  -5.857  0.00  0.00    -0.029 A 
ATOM     27  C   UNL     1      -0.492   1.663  -6.702  0.00  0.00    +0.005 A 
ATOM     28  C   UNL     1      -1.414   0.775  -6.179  0.00  0.00    +0.000 A 
ATOM     29  C   UNL     1      -1.562   0.654  -4.809  0.00  0.00    +0.002 A 
ATOM     30  C   UNL     1      -0.785   1.417  -3.959  0.00  0.00    +0.023 A 
ATOM     31  C   UNL     1       0.138   2.314  -4.481  0.00  0.00    +0.036 A 
ENDBRANCH  21  31
ENDBRANCH   1  22
TORSDOF 4
