REMARK  Name = ZINC30983250
REMARK  10 active torsions:
REMARK  status: ('A' for Active; 'I' for Inactive)
REMARK    1  A    between atoms: C_6  and  C_7
REMARK    2  A    between atoms: C_7  and  S_8
REMARK    3  A    between atoms: S_8  and  C_9
REMARK    4  A    between atoms: C_9  and  C_10
REMARK    5  A    between atoms: C_10  and  C_11
REMARK    6  A    between atoms: C_11  and  N_12
REMARK    7  A    between atoms: C_13  and  C_15
REMARK    8  A    between atoms: N_18  and  C_21
REMARK    9  A    between atoms: C_21  and  C_22
REMARK   10  A    between atoms: C_24  and  C_27
REMARK                            x       y       z     vdW  Elec       q    Type
REMARK                         _______ _______ _______ _____ _____    ______ ____
ROOT
ATOM      1  C   UNL     1      -1.214   3.626   0.028  0.00  0.00    +0.071 C 
ATOM      2  C   UNL     1      -0.501   4.140   1.281  0.00  0.00    -0.006 C 
ATOM      3  C   UNL     1      -0.578   5.668   1.315  0.00  0.00    -0.077 C 
ATOM      4  N   UNL     1      -1.985   6.088   1.323  0.00  0.00    +0.386 N 
ATOM      5  C   UNL     1      -2.679   5.646   0.107  0.00  0.00    -0.077 C 
ATOM      6  C   UNL     1      -2.664   4.118   0.037  0.00  0.00    -0.006 C 
ATOM      7  H   UNL     1      -2.474   5.606   2.182  0.00  0.00    -0.081 HD
ENDROOT
BRANCH   1   9
ATOM      8  N   UNL     1      -0.018   1.461   0.010  0.00  0.00    -0.315 N 
ATOM      9  C   UNL     1      -1.194   2.119   0.019  0.00  0.00    +0.216 C 
ATOM     10  O   UNL     1      -2.236   1.498   0.021  0.00  0.00    -0.276 OA
ATOM     11  H   UNL     1       0.927   2.024   0.009  0.00  0.00    +0.149 HD
BRANCH   8  12
ATOM     12  C   UNL     1       0.002  -0.004   0.002  0.00  0.00    +0.105 C 
BRANCH  12  13
ATOM     13  C   UNL     1       1.451  -0.494  -0.015  0.00  0.00    +0.029 C 
BRANCH  13  14
ATOM     14  C   UNL     1       1.472  -2.024  -0.023  0.00  0.00    +0.071 C 
BRANCH  14  15
ATOM     15  S   UNL     1       3.190  -2.606  -0.042  0.00  0.00    -0.156 S 
BRANCH  15  16
ATOM     16  C   UNL     1       3.042  -4.413  -0.051  0.00  0.00    +0.104 C 
BRANCH  16  22
ATOM     17  C   UNL     1       5.033  -5.312  -1.272  0.00  0.00    +0.007 A 
ATOM     18  C   UNL     1       6.296  -5.873  -1.288  0.00  0.00    +0.038 A 
ATOM     19  C   UNL     1       6.939  -6.163  -0.097  0.00  0.00    +0.123 A 
ATOM     20  C   UNL     1       6.319  -5.886   1.109  0.00  0.00    +0.038 A 
ATOM     21  C   UNL     1       5.058  -5.319   1.123  0.00  0.00    +0.007 A 
ATOM     22  C   UNL     1       4.417  -5.030  -0.067  0.00  0.00    -0.037 A 
ATOM     23  F   UNL     1       8.172  -6.716  -0.112  0.00  0.00    -0.205 F 
ENDBRANCH  16  22
ENDBRANCH  15  16
ENDBRANCH  14  15
ENDBRANCH  13  14
ENDBRANCH  12  13
ENDBRANCH   8  12
ENDBRANCH   1   9
BRANCH   4  24
ATOM     24  C   UNL     1      -2.099   7.543   1.495  0.00  0.00    +0.022 C 
BRANCH  24  25
ATOM     25  C   UNL     1      -1.595   7.928   2.862  0.00  0.00    +0.211 A 
ATOM     26  N   UNL     1      -0.365   8.249   3.176  0.00  0.00    -0.193 NA
ATOM     27  C   UNL     1      -0.387   8.517   4.501  0.00  0.00    +0.202 A 
ATOM     28  N   UNL     1      -1.617   8.345   4.910  0.00  0.00    -0.056 NA
ATOM     29  O   UNL     1      -2.322   8.012   3.981  0.00  0.00    -0.340 OA
BRANCH  27  30
ATOM     30  C   UNL     1       0.769   8.929   5.336  0.00  0.00    +0.023 A 
ATOM     31  C   UNL     1       2.032   9.068   4.761  0.00  0.00    +0.014 A 
ATOM     32  C   UNL     1       3.103   9.455   5.540  0.00  0.00    +0.039 A 
ATOM     33  C   UNL     1       2.927   9.697   6.893  0.00  0.00    +0.123 A 
ATOM     34  C   UNL     1       1.675   9.556   7.469  0.00  0.00    +0.039 A 
ATOM     35  C   UNL     1       0.597   9.173   6.697  0.00  0.00    +0.014 A 
ATOM     36  F   UNL     1       3.979  10.072   7.652  0.00  0.00    -0.205 F 
ENDBRANCH  27  30
ENDBRANCH  24  25
ENDBRANCH   4  24
TORSDOF 10
