REMARK  Name = ZINC45811942
REMARK  9 active torsions:
REMARK  status: ('A' for Active; 'I' for Inactive)
REMARK    1  A    between atoms: C_1  and  C_2
REMARK    2  A    between atoms: C_2  and  N_3
REMARK    3  A    between atoms: N_6  and  C_9
REMARK    4  A    between atoms: C_12  and  N_16
REMARK    5  A    between atoms: C_13  and  C_15
REMARK    6  A    between atoms: C_17  and  C_19
REMARK    7  A    between atoms: C_19  and  N_20
REMARK    8  A    between atoms: C_21  and  C_23
REMARK    9  A    between atoms: C_26  and  C_29
REMARK                            x       y       z     vdW  Elec       q    Type
REMARK                         _______ _______ _______ _____ _____    ______ ____
ROOT
ATOM      1  N   UNL     1      -0.162  -5.310  -7.841  0.00  0.00    -0.284 N 
ATOM      2  C   UNL     1      -1.204  -5.041  -8.653  0.00  0.00    +0.234 C 
ATOM      3  O   UNL     1      -1.832  -4.013  -8.512  0.00  0.00    -0.274 OA
ATOM      4  H   UNL     1       0.376  -6.104  -7.989  0.00  0.00    +0.155 HD
ENDROOT
BRANCH   1   8
ATOM      5  C   UNL     1       0.751  -2.729  -4.694  0.00  0.00    +0.030 A 
ATOM      6  C   UNL     1       0.081  -2.251  -5.813  0.00  0.00    +0.025 A 
ATOM      7  C   UNL     1      -0.221  -3.105  -6.854  0.00  0.00    +0.025 A 
ATOM      8  C   UNL     1       0.145  -4.443  -6.784  0.00  0.00    +0.036 A 
ATOM      9  C   UNL     1       0.814  -4.921  -5.666  0.00  0.00    -0.028 A 
ATOM     10  C   UNL     1       1.122  -4.066  -4.626  0.00  0.00    +0.028 A 
ATOM     11  C   UNL     1       1.210  -6.373  -5.589  0.00  0.00    +0.046 C 
BRANCH   5  15
ATOM     12  N   UNL     1       0.763  -0.381  -1.288  0.00  0.00    +0.382 N 
ATOM     13  C   UNL     1       0.009   0.011  -2.486  0.00  0.00    -0.060 C 
ATOM     14  C   UNL     1       0.780  -0.423  -3.738  0.00  0.00    +0.086 C 
ATOM     15  N   UNL     1       1.057  -1.864  -3.639  0.00  0.00    -0.333 N 
ATOM     16  C   UNL     1       1.666  -2.369  -2.398  0.00  0.00    +0.086 C 
ATOM     17  C   UNL     1       0.853  -1.844  -1.210  0.00  0.00    -0.060 C 
ATOM     18  H   UNL     1       1.692   0.010  -1.336  0.00  0.00    -0.082 HD
BRANCH  12  20
ATOM     19  C   UNL     1       0.095   1.660  -0.112  0.00  0.00    -0.017 C 
ATOM     20  C   UNL     1       0.080   0.131  -0.093  0.00  0.00    -0.082 C 
ENDBRANCH  12  20
ENDBRANCH   5  15
ENDBRANCH   1   8
BRANCH   2  21
ATOM     21  C   UNL     1      -1.589  -6.017  -9.734  0.00  0.00    +0.200 C 
BRANCH  21  22
ATOM     22  N   UNL     1      -2.743  -5.498 -10.473  0.00  0.00    -0.303 N 
ATOM     23  C   UNL     1      -3.264  -6.208 -11.493  0.00  0.00    +0.244 C 
ATOM     24  O   UNL     1      -2.777  -7.278 -11.800  0.00  0.00    -0.270 OA
ATOM     25  H   UNL     1      -3.131  -4.644 -10.227  0.00  0.00    +0.150 HD
BRANCH  23  26
ATOM     26  C   UNL     1      -4.429  -5.684 -12.238  0.00  0.00    +0.037 A 
ATOM     27  C   UNL     1      -4.987  -4.453 -11.891  0.00  0.00    +0.013 A 
ATOM     28  C   UNL     1      -6.074  -3.970 -12.591  0.00  0.00    +0.013 A 
ATOM     29  C   UNL     1      -6.611  -4.704 -13.634  0.00  0.00    +0.055 A 
ATOM     30  C   UNL     1      -6.062  -5.925 -13.982  0.00  0.00    +0.013 A 
ATOM     31  C   UNL     1      -4.972  -6.417 -13.295  0.00  0.00    +0.013 A 
BRANCH  29  32
ATOM     32  C   UNL     1      -7.798  -4.170 -14.393  0.00  0.00    +0.417 C 
ATOM     33  F   UNL     1      -7.353  -3.399 -15.473  0.00  0.00    -0.166 F 
ATOM     34  F   UNL     1      -8.566  -5.238 -14.869  0.00  0.00    -0.166 F 
ATOM     35  F   UNL     1      -8.577  -3.377 -13.544  0.00  0.00    -0.166 F 
ENDBRANCH  29  32
ENDBRANCH  23  26
ENDBRANCH  21  22
ENDBRANCH   2  21
TORSDOF 7
