REMARK  Name = ZINC22218654
REMARK  2 active torsions:
REMARK  status: ('A' for Active; 'I' for Inactive)
REMARK    1  A    between atoms: C_6  and  N_7
REMARK    2  A    between atoms: N_14  and  C_15
REMARK                            x       y       z     vdW  Elec       q    Type
REMARK                         _______ _______ _______ _____ _____    ______ ____
ROOT
ATOM      1  C   UNL     1      -0.017   1.389   0.010  0.00  0.00    +0.025 A 
ATOM      2  C   UNL     1       1.143   2.119   0.003  0.00  0.00    +0.031 A 
ATOM      3  C   UNL     1       2.402   1.478  -0.013  0.00  0.00    +0.080 A 
ATOM      4  C   UNL     1       2.386   0.065  -0.020  0.00  0.00    +0.043 A 
ATOM      5  C   UNL     1       1.224  -0.664  -0.013  0.00  0.00    +0.040 A 
ATOM      6  C   UNL     1       0.002  -0.004   0.002  0.00  0.00    +0.026 A 
ATOM      7  S   UNL     1       4.118  -0.334  -0.039  0.00  0.00    -0.052 S 
ATOM      8  C   UNL     1       4.734   1.344  -0.036  0.00  0.00    +0.167 A 
ATOM      9  N   UNL     1       3.628   2.049  -0.021  0.00  0.00    -0.225 NA
ATOM     10  N   UNL     1       6.048   1.787  -0.046  0.00  0.00    -0.248 N 
ATOM     11  C   UNL     1       6.313   3.109  -0.041  0.00  0.00    +0.306 C 
ATOM     12  O   UNL     1       5.400   3.912  -0.028  0.00  0.00    -0.252 OA
ATOM     13  N   UNL     1       7.590   3.540  -0.051  0.00  0.00    -0.296 N 
ATOM     14  H   UNL     1       6.873   1.060  -0.058  0.00  0.00    +0.158 HD
ATOM     15  H   UNL     1       8.415   2.813  -0.063  0.00  0.00    +0.151 HD
ENDROOT
BRANCH  13  16
ATOM     16  C   UNL     1       7.878   4.976  -0.046  0.00  0.00    +0.074 C 
ATOM     17  C   UNL     1       7.841   5.509  -1.480  0.00  0.00    +0.022 C 
ATOM     18  C   UNL     1       8.142   7.009  -1.475  0.00  0.00    +0.002 C 
ATOM     19  C   UNL     1       9.530   7.248  -0.877  0.00  0.00    +0.000 C 
ATOM     20  C   UNL     1       9.567   6.716   0.557  0.00  0.00    +0.002 C 
ATOM     21  C   UNL     1       9.266   5.216   0.551  0.00  0.00    +0.022 C 
ENDBRANCH  13  16
BRANCH   6  22
ATOM     22  N   UNL     1      -1.195  -0.729   0.010  0.00  0.00    -0.358 N 
ATOM     23  H   UNL     1      -1.172  -1.829   0.004  0.00  0.00    +0.142 HD
ATOM     24  H   UNL     1      -2.159  -0.199   0.022  0.00  0.00    +0.142 HD
ENDBRANCH   6  22
TORSDOF 2
