REMARK  Name = ZINC10384409
REMARK  6 active torsions:
REMARK  status: ('A' for Active; 'I' for Inactive)
REMARK    1  A    between atoms: C_2  and  N_9
REMARK    2  A    between atoms: C_10  and  C_12
REMARK    3  A    between atoms: C_12  and  C_13
REMARK    4  A    between atoms: C_26  and  C_27
REMARK    5  A    between atoms: C_26  and  N_66
REMARK    6  A    between atoms: C_32  and  C_35
REMARK                            x       y       z     vdW  Elec       q    Type
REMARK                         _______ _______ _______ _____ _____    ______ ____
ROOT
ATOM      1  C   UNL     1      -3.491   6.676   2.636  0.00  0.00    +0.029 C 
ATOM      2  C   UNL     1      -3.333   6.949   4.104  0.00  0.00    +0.200 C 
ATOM      3  O   UNL     1      -3.731   8.009   4.540  0.00  0.00    -0.278 OA
ATOM      4  N   UNL     1      -2.774   6.079   4.956  0.00  0.00    -0.315 N 
ATOM      5  C   UNL     1      -2.209   4.814   4.506  0.00  0.00    +0.059 C 
ATOM      6  C   UNL     1      -2.467   3.694   5.511  0.00  0.00    +0.021 C 
ATOM      7  C   UNL     1      -1.794   2.413   5.008  0.00  0.00    +0.002 C 
ATOM      8  C   UNL     1      -2.360   2.029   3.641  0.00  0.00    -0.001 C 
ATOM      9  C   UNL     1      -2.128   3.166   2.641  0.00  0.00    -0.013 C 
ATOM     10  C   UNL     1      -2.819   4.427   3.157  0.00  0.00    -0.046 C 
ATOM     11  H   UNL     1      -2.745   6.298   5.901  0.00  0.00    +0.149 HD
ATOM     12  N   UNL     1      -2.625   5.554   2.230  0.00  0.00    +0.396 N 
ATOM     13  H   UNL     1      -1.644   5.855   2.267  0.00  0.00    -0.080 HD
ENDROOT
BRANCH   1  14
ATOM     14  C   UNL     1      -3.087   7.922   1.845  0.00  0.00    +0.090 C 
BRANCH  14  16
ATOM     15  N   UNL     1      -1.153   9.460   1.731  0.00  0.00    -0.285 N 
ATOM     16  C   UNL     1      -1.683   8.321   2.219  0.00  0.00    +0.216 C 
ATOM     17  O   UNL     1      -1.029   7.617   2.960  0.00  0.00    -0.276 OA
ATOM     18  H   UNL     1      -1.652   9.993   1.092  0.00  0.00    +0.155 HD
BRANCH  15  20
ATOM     19  C   UNL     1       0.387  11.226   2.315  0.00  0.00    +0.043 A 
ATOM     20  C   UNL     1       0.118   9.875   2.145  0.00  0.00    +0.036 A 
ATOM     21  C   UNL     1       1.110   8.935   2.393  0.00  0.00    +0.043 A 
ATOM     22  C   UNL     1       2.366   9.348   2.796  0.00  0.00    +0.044 A 
ATOM     23  C   UNL     1       2.631  10.695   2.965  0.00  0.00    +0.040 A 
ATOM     24  C   UNL     1       1.643  11.634   2.725  0.00  0.00    +0.044 A 
ATOM     25 CL   UNL     1       1.980  13.323   2.938  0.00  0.00    -0.083 Cl
ATOM     26 CL   UNL     1       3.609   8.174   3.099  0.00  0.00    -0.083 Cl
ENDBRANCH  15  20
ENDBRANCH  14  16
ENDBRANCH   1  14
BRANCH  12  27
ATOM     27  C   UNL     1      -2.948   5.136   0.847  0.00  0.00    +0.020 C 
BRANCH  27  28
ATOM     28  C   UNL     1      -4.393   4.716   0.754  0.00  0.00    +0.199 C 
ATOM     29  O   UNL     1      -5.062   4.620   1.761  0.00  0.00    -0.278 OA
ATOM     30  N   UNL     1      -4.941   4.449  -0.447  0.00  0.00    -0.303 N 
ATOM     31  C   UNL     1      -4.118   4.456  -1.664  0.00  0.00    +0.108 C 
ATOM     32  C   UNL     1      -4.309   3.116  -2.391  0.00  0.00    +0.032 C 
ATOM     33  C   UNL     1      -5.801   2.889  -2.644  0.00  0.00    +0.078 C 
ATOM     34  C   UNL     1      -6.543   2.821  -1.307  0.00  0.00    +0.032 C 
ATOM     35  C   UNL     1      -6.375   4.152  -0.567  0.00  0.00    +0.108 C 
BRANCH  33  36
ATOM     36  C   UNL     1      -5.992   1.593  -3.390  0.00  0.00    +0.214 C 
ATOM     37  O   UNL     1      -6.604   0.681  -2.875  0.00  0.00    -0.276 OA
ATOM     38  N   UNL     1      -5.482   1.448  -4.629  0.00  0.00    -0.329 N 
ATOM     39  H   UNL     1      -4.932   2.149  -5.013  0.00  0.00    +0.145 HD
ATOM     40  H   UNL     1      -5.665   0.642  -5.138  0.00  0.00    +0.145 HD
ENDBRANCH  33  36
ENDBRANCH  27  28
ENDBRANCH  12  27
TORSDOF 6
