REMARK  Name = ZINC08754498
REMARK  12 active torsions:
REMARK  status: ('A' for Active; 'I' for Inactive)
REMARK    1  A    between atoms: C_1  and  C_2
REMARK    2  A    between atoms: C_5  and  S_8
REMARK    3  A    between atoms: S_8  and  N_11
REMARK    4  A    between atoms: N_11  and  C_12
REMARK    5  A    between atoms: N_11  and  C_13
REMARK    6  A    between atoms: C_15  and  S_21
REMARK    7  A    between atoms: C_16  and  C_20
REMARK    8  A    between atoms: C_18  and  C_19
REMARK    9  A    between atoms: S_21  and  N_24
REMARK   10  A    between atoms: N_24  and  C_25
REMARK   11  A    between atoms: C_28  and  N_31
REMARK   12  A    between atoms: C_32  and  C_34
REMARK                            x       y       z     vdW  Elec       q    Type
REMARK                         _______ _______ _______ _____ _____    ______ ____
ROOT
ATOM      1  C   UNL     1       1.124   5.138  -1.770  0.00  0.00    +0.056 A 
ATOM      2  C   UNL     1       0.011   4.577  -1.157  0.00  0.00    +0.054 A 
ATOM      3  C   UNL     1       0.170   3.544  -0.254  0.00  0.00    +0.113 A 
ATOM      4  C   UNL     1       1.434   3.060   0.031  0.00  0.00    -0.023 A 
ATOM      5  C   UNL     1       2.543   3.613  -0.582  0.00  0.00    +0.010 A 
ATOM      6  C   UNL     1       2.392   4.650  -1.481  0.00  0.00    -0.027 A 
ATOM      7  C   UNL     1       3.602   5.252  -2.148  0.00  0.00    +0.046 C 
ATOM      8  C   UNL     1       1.602   1.929   1.012  0.00  0.00    +0.046 C 
ENDROOT
BRANCH   3   9
ATOM      9  S   UNL     1      -1.241   2.835   0.529  0.00  0.00    +0.073 S 
ATOM     10  O   UNL     1      -2.380   3.474  -0.032  0.00  0.00    -0.150 OA
ATOM     11  O   UNL     1      -0.975   2.840   1.925  0.00  0.00    -0.150 OA
BRANCH   9  12
ATOM     12  N   UNL     1      -1.312   1.247   0.066  0.00  0.00    -0.216 N 
ATOM     13  H   UNL     1      -1.240   0.544   0.730  0.00  0.00    +0.174 HD
BRANCH  12  14
ATOM     14  C   UNL     1      -1.477   0.919  -1.284  0.00  0.00    +0.048 A 
ATOM     15  C   UNL     1      -2.440   1.569  -2.045  0.00  0.00    +0.026 A 
ATOM     16  C   UNL     1      -2.606   1.241  -3.375  0.00  0.00    +0.025 A 
ATOM     17  C   UNL     1      -1.810   0.261  -3.954  0.00  0.00    +0.033 A 
ATOM     18  C   UNL     1      -0.847  -0.389  -3.194  0.00  0.00    +0.025 A 
ATOM     19  C   UNL     1      -0.680  -0.061  -1.863  0.00  0.00    +0.026 A 
BRANCH  17  20
ATOM     20  N   UNL     1      -1.979  -0.071  -5.305  0.00  0.00    -0.286 N 
ATOM     21  C   UNL     1      -0.910  -0.406  -6.054  0.00  0.00    +0.214 C 
ATOM     22  O   UNL     1       0.185  -0.501  -5.542  0.00  0.00    -0.276 OA
ATOM     23  C   UNL     1      -1.076  -0.664  -7.530  0.00  0.00    +0.109 C 
ATOM     24  H   UNL     1      -2.864  -0.060  -5.700  0.00  0.00    +0.155 HD
ENDBRANCH  17  20
ENDBRANCH  12  14
ENDBRANCH   9  12
ENDBRANCH   3   9
BRANCH   1  25
ATOM     25  N   UNL     1       0.968   6.187  -2.679  0.00  0.00    -0.206 N 
ATOM     26  C   UNL     1       0.894   7.569  -2.197  0.00  0.00    +0.157 C 
BRANCH  25  27
ATOM     27  S   UNL     1       0.866   5.869  -4.301  0.00  0.00    +0.074 S 
ATOM     28  O   UNL     1       1.416   6.995  -4.971  0.00  0.00    -0.150 OA
ATOM     29  O   UNL     1       1.366   4.552  -4.489  0.00  0.00    -0.150 OA
BRANCH  27  34
ATOM     30  C   UNL     1      -4.995   5.708  -5.723  0.00  0.00    +0.044 C 
ATOM     31  C   UNL     1      -3.531   5.748  -5.368  0.00  0.00    -0.050 A 
ATOM     32  C   UNL     1      -2.813   6.918  -5.528  0.00  0.00    +0.005 A 
ATOM     33  C   UNL     1      -1.470   6.955  -5.203  0.00  0.00    +0.029 A 
ATOM     34  C   UNL     1      -0.846   5.822  -4.716  0.00  0.00    +0.109 A 
ATOM     35  C   UNL     1      -1.563   4.651  -4.561  0.00  0.00    +0.029 A 
ATOM     36  C   UNL     1      -2.907   4.615  -4.882  0.00  0.00    +0.005 A 
ENDBRANCH  27  34
ENDBRANCH  25  27
ENDBRANCH   1  25
TORSDOF 7
