REMARK  Name = ZINC02717791
REMARK  9 active torsions:
REMARK  status: ('A' for Active; 'I' for Inactive)
REMARK    1  A    between atoms: C_1  and  C_2
REMARK    2  A    between atoms: C_2  and  O_3
REMARK    3  A    between atoms: O_3  and  C_4
REMARK    4  A    between atoms: C_4  and  C_6
REMARK    5  A    between atoms: C_10  and  N_11
REMARK    6  A    between atoms: C_12  and  C_14
REMARK    7  A    between atoms: C_14  and  S_15
REMARK    8  A    between atoms: S_15  and  C_16
REMARK    9  A    between atoms: N_23  and  C_26
REMARK                            x       y       z     vdW  Elec       q    Type
REMARK                         _______ _______ _______ _____ _____    ______ ____
ROOT
ATOM      1  N   UNL     1       3.744  -2.426   1.392  0.00  0.00    -0.279 N 
ATOM      2  C   UNL     1       5.047  -2.736   1.540  0.00  0.00    +0.228 C 
ATOM      3  O   UNL     1       5.445  -3.193   2.591  0.00  0.00    -0.275 OA
ATOM      4  H   UNL     1       3.425  -2.060   0.551  0.00  0.00    +0.155 HD
ENDROOT
BRANCH   1   9
ATOM      5  C   UNL     1       1.496  -2.371   2.467  0.00  0.00    +0.091 A 
ATOM      6  C   UNL     1       0.787  -2.682   3.696  0.00  0.00    -0.021 A 
ATOM      7  C   UNL     1       1.570  -3.187   4.673  0.00  0.00    -0.004 A 
ATOM      8  S   UNL     1       3.191  -3.243   3.966  0.00  0.00    -0.077 S 
ATOM      9  C   UNL     1       2.859  -2.629   2.439  0.00  0.00    +0.086 A 
ATOM     10  C   UNL     1       1.140  -3.603   6.046  0.00  0.00    +0.043 C 
ATOM     11  C   UNL     1      -0.255  -3.018   6.312  0.00  0.00    +0.005 C 
ATOM     12  C   UNL     1      -1.153  -3.312   5.107  0.00  0.00    +0.005 C 
ATOM     13  C   UNL     1      -0.705  -2.473   3.907  0.00  0.00    +0.037 C 
BRANCH   5  14
ATOM     14  C   UNL     1       0.801  -1.814   1.305  0.00  0.00    +0.342 C 
ATOM     15  O   UNL     1       0.321  -2.557   0.470  0.00  0.00    -0.245 OA
BRANCH  14  16
ATOM     16  O   UNL     1       0.693  -0.477   1.160  0.00  0.00    -0.461 OA
BRANCH  16  18
ATOM     17  C   UNL     1      -0.019   1.526   0.010  0.00  0.00    +0.048 C 
ATOM     18  C   UNL     1       0.002  -0.004   0.002  0.00  0.00    +0.229 C 
ENDBRANCH  16  18
ENDBRANCH  14  16
ENDBRANCH   5  14
ENDBRANCH   1   9
BRANCH   2  19
ATOM     19  C   UNL     1       6.009  -2.515   0.401  0.00  0.00    +0.173 C 
BRANCH  19  20
ATOM     20  S   UNL     1       7.674  -3.025   0.908  0.00  0.00    -0.077 S 
BRANCH  20  21
ATOM     21  C   UNL     1       8.668  -2.709  -0.512  0.00  0.00    +0.194 A 
ATOM     22  N   UNL     1       8.092  -2.199  -1.596  0.00  0.00    -0.183 NA
ATOM     23  C   UNL     1       8.795  -1.943  -2.689  0.00  0.00    +0.285 A 
ATOM     24  O   UNL     1       8.200  -1.423  -3.788  0.00  0.00    -0.265 OA
ATOM     25  C   UNL     1      10.174  -2.223  -2.683  0.00  0.00    +0.105 A 
ATOM     26  C   UNL     1      11.217  -2.090  -3.626  0.00  0.00    +0.150 A 
ATOM     27  N   UNL     1      12.323  -2.510  -3.082  0.00  0.00    -0.172 NA
ATOM     28  N   UNL     1      12.073  -2.936  -1.771  0.00  0.00    -0.214 N 
ATOM     29  C   UNL     1      10.743  -2.763  -1.512  0.00  0.00    +0.171 A 
ATOM     30  N   UNL     1       9.961  -2.983  -0.459  0.00  0.00    -0.202 NA
BRANCH  28  31
ATOM     31  C   UNL     1      13.023  -3.451  -0.880  0.00  0.00    +0.068 A 
ATOM     32  C   UNL     1      12.919  -3.184   0.478  0.00  0.00    +0.028 A 
ATOM     33  C   UNL     1      13.857  -3.694   1.355  0.00  0.00    +0.002 A 
ATOM     34  C   UNL     1      14.899  -4.470   0.880  0.00  0.00    +0.000 A 
ATOM     35  C   UNL     1      15.005  -4.738  -0.472  0.00  0.00    +0.002 A 
ATOM     36  C   UNL     1      14.067  -4.236  -1.353  0.00  0.00    +0.028 A 
ENDBRANCH  28  31
ENDBRANCH  20  21
ENDBRANCH  19  20
ENDBRANCH   2  19
TORSDOF 8
