REMARK  Name = ZINC13426640
REMARK  5 active torsions:
REMARK  status: ('A' for Active; 'I' for Inactive)
REMARK    1  A    between atoms: C_6  and  N_13
REMARK    2  A    between atoms: C_7  and  C_11
REMARK    3  A    between atoms: C_14  and  C_16
REMARK    4  A    between atoms: N_21  and  S_23
REMARK    5  A    between atoms: S_23  and  C_26
REMARK                            x       y       z     vdW  Elec       q    Type
REMARK                         _______ _______ _______ _____ _____    ______ ____
ROOT
ATOM      1  N   UNL     1      -0.146  -0.078  -0.043  0.00  0.00    -0.285 N 
ATOM      2  C   UNL     1       0.974  -0.815  -0.180  0.00  0.00    +0.222 C 
ATOM      3  O   UNL     1       2.059  -0.273  -0.189  0.00  0.00    -0.275 OA
ATOM      4  H   UNL     1      -1.009  -0.516   0.024  0.00  0.00    +0.155 HD
ENDROOT
BRANCH   1  10
ATOM      5  C   UNL     1       1.234   6.080   0.754  0.00  0.00    +0.001 A 
ATOM      6  C   UNL     1       2.232   5.301   1.339  0.00  0.00    +0.001 A 
ATOM      7  C   UNL     1       2.171   3.942   1.305  0.00  0.00    +0.008 A 
ATOM      8  C   UNL     1       1.086   3.308   0.673  0.00  0.00    -0.016 A 
ATOM      9  C   UNL     1       0.997   1.907   0.623  0.00  0.00    +0.032 A 
ATOM     10  C   UNL     1      -0.064   1.313   0.004  0.00  0.00    +0.048 A 
ATOM     11  C   UNL     1      -1.078   2.094  -0.596  0.00  0.00    +0.085 A 
ATOM     12  C   UNL     1      -1.014   3.477  -0.555  0.00  0.00    +0.025 A 
ATOM     13  C   UNL     1       0.070   4.101   0.078  0.00  0.00    -0.017 A 
ATOM     14  C   UNL     1       0.169   5.503   0.133  0.00  0.00    +0.008 A 
BRANCH  11  15
ATOM     15  C   UNL     1      -2.213   1.432  -1.265  0.00  0.00    +0.388 C 
ATOM     16  O   UNL     1      -2.321   0.222  -1.224  0.00  0.00    -0.241 OA
ATOM     17  O   UNL     1      -3.131   2.168  -1.921  0.00  0.00    -0.241 OA
ENDBRANCH  11  15
ENDBRANCH   1  10
BRANCH   2  18
ATOM     18  C   UNL     1       0.879  -2.312  -0.324  0.00  0.00    +0.091 C 
ATOM     19  C   UNL     1       0.199  -2.901   0.914  0.00  0.00    +0.015 C 
ATOM     20  C   UNL     1       0.072  -4.418   0.754  0.00  0.00    +0.018 C 
ATOM     21  C   UNL     1       1.469  -5.034   0.631  0.00  0.00    +0.109 C 
ATOM     22  N   UNL     1       2.183  -4.369  -0.468  0.00  0.00    -0.175 NA
ATOM     23  C   UNL     1       2.285  -2.903  -0.460  0.00  0.00    +0.122 C 
BRANCH  22  24
ATOM     24  S   UNL     1       2.860  -5.255  -1.692  0.00  0.00    +0.067 S 
ATOM     25  O   UNL     1       3.898  -4.458  -2.245  0.00  0.00    -0.152 OA
ATOM     26  O   UNL     1       3.094  -6.556  -1.171  0.00  0.00    -0.152 OA
BRANCH  24  27
ATOM     27  C   UNL     1       1.635  -5.428  -2.948  0.00  0.00    +0.143 A 
ATOM     28  C   UNL     1       1.382  -4.625  -4.010  0.00  0.00    +0.036 A 
ATOM     29  C   UNL     1       0.359  -4.962  -4.876  0.00  0.00    +0.010 A 
ATOM     30  C   UNL     1      -0.361  -6.086  -4.638  0.00  0.00    +0.047 A 
ATOM     31  S   UNL     1       0.411  -6.712  -3.155  0.00  0.00    -0.077 S 
ENDBRANCH  24  27
ENDBRANCH  22  24
ENDBRANCH   2  18
TORSDOF 5
