REMARK  Name = ZINC41098405
REMARK  7 active torsions:
REMARK  status: ('A' for Active; 'I' for Inactive)
REMARK    1  A    between atoms: C_1  and  C_2
REMARK    2  A    between atoms: C_2  and  C_3
REMARK    3  A    between atoms: C_2  and  C_4
REMARK    4  A    between atoms: C_2  and  C_5
REMARK    5  A    between atoms: N_13  and  C_17
REMARK    6  A    between atoms: C_17  and  C_18
REMARK    7  A    between atoms: N_20  and  C_21
REMARK                            x       y       z     vdW  Elec       q    Type
REMARK                         _______ _______ _______ _____ _____    ______ ____
ROOT
ATOM      1  C   UNL     1       0.718  -0.497  -1.257  0.00  0.00    -0.005 C 
ATOM      2  C   UNL     1      -0.024   0.007  -2.496  0.00  0.00    +0.006 C 
ATOM      3  C   UNL     1       0.688  -0.495  -3.755  0.00  0.00    +0.035 C 
ATOM      4  C   UNL     1       2.127   0.008  -3.763  0.00  0.00    +0.113 C 
ATOM      5  C   UNL     1       2.873  -0.471  -2.522  0.00  0.00    +0.035 C 
ATOM      6  C   UNL     1       2.154   0.032  -1.267  0.00  0.00    +0.006 C 
ATOM      7  C   UNL     1       2.839  -0.449  -5.015  0.00  0.00    +0.247 C 
ATOM      8  O   UNL     1       3.049  -1.590  -5.365  0.00  0.00    -0.273 OA
ATOM      9  N   UNL     1       3.191   0.682  -5.662  0.00  0.00    -0.215 N 
ATOM     10  C   UNL     1       2.801   1.774  -4.993  0.00  0.00    +0.310 C 
ATOM     11  O   UNL     1       3.005   2.909  -5.376  0.00  0.00    -0.252 OA
ATOM     12  N   UNL     1       2.159   1.473  -3.848  0.00  0.00    -0.285 N 
ATOM     13  H   UNL     1       1.789   2.101  -3.207  0.00  0.00    +0.151 HD
ENDROOT
BRANCH   1  15
ATOM     14  C   UNL     1      -0.019   1.526   0.010  0.00  0.00    +0.011 C 
ATOM     15  C   UNL     1       0.002  -0.004   0.002  0.00  0.00    -0.035 C 
ATOM     16  C   UNL     1       0.742  -0.511   1.242  0.00  0.00    +0.011 C 
ATOM     17  C   UNL     1      -1.433  -0.534   0.013  0.00  0.00    +0.011 C 
ENDBRANCH   1  15
BRANCH   9  18
ATOM     18  C   UNL     1       3.912   0.711  -6.937  0.00  0.00    +0.213 C 
BRANCH  18  19
ATOM     19  C   UNL     1       2.922   0.706  -8.073  0.00  0.00    +0.231 C 
ATOM     20  O   UNL     1       1.732   0.681  -7.841  0.00  0.00    -0.274 OA
ATOM     21  N   UNL     1       3.359   0.730  -9.348  0.00  0.00    -0.310 N 
ATOM     22  H   UNL     1       4.311   0.750  -9.534  0.00  0.00    +0.149 HD
BRANCH  21  23
ATOM     23  C   UNL     1       2.397   0.725 -10.453  0.00  0.00    +0.095 C 
ATOM     24  C   UNL     1       1.949   2.167 -10.745  0.00  0.00    +0.046 C 
ATOM     25  C   UNL     1       1.186   2.171 -12.101  0.00  0.00    +0.168 C 
ATOM     26  S   UNL     1       2.237   1.019 -13.082  0.00  0.00    -0.029 S 
ATOM     27  O   UNL     1       3.213   1.772 -13.790  0.00  0.00    -0.174 OA
ATOM     28  O   UNL     1       1.398   0.120 -13.793  0.00  0.00    -0.174 OA
ATOM     29  C   UNL     1       3.061   0.115 -11.710  0.00  0.00    +0.188 C 
ENDBRANCH  21  23
ENDBRANCH  18  19
ENDBRANCH   9  18
TORSDOF 4
