REMARK  Name = ZINC21045928
REMARK  2 active torsions:
REMARK  status: ('A' for Active; 'I' for Inactive)
REMARK    1  A    between atoms: C_8  and  N_13
REMARK    2  A    between atoms: N_13  and  C_14
REMARK                            x       y       z     vdW  Elec       q    Type
REMARK                         _______ _______ _______ _____ _____    ______ ____
ROOT
ATOM      1  C   UNL     1      -0.017   1.379   0.010  0.00  0.00    +0.017 A 
ATOM      2  C   UNL     1       1.164   2.093   0.002  0.00  0.00    +0.025 A 
ATOM      3  C   UNL     1       2.386   1.423  -0.013  0.00  0.00    +0.039 A 
ATOM      4  C   UNL     1       2.392   0.034  -0.021  0.00  0.00    +0.004 A 
ATOM      5  C   UNL     1       1.213  -0.676  -0.012  0.00  0.00    +0.023 A 
ATOM      6  C   UNL     1       0.002  -0.004   0.002  0.00  0.00    +0.018 A 
ATOM      7 BR   UNL     1      -1.621  -0.975   0.012  0.00  0.00    -0.050 Br
ATOM      8  C   UNL     1       3.844  -0.385  -0.038  0.00  0.00    +0.190 C 
ATOM      9  C   UNL     1       4.605   0.924  -0.038  0.00  0.00    +0.242 C 
ATOM     10  O   UNL     1       5.810   1.057  -0.049  0.00  0.00    -0.273 OA
ATOM     11  N   UNL     1       3.694   1.911  -0.024  0.00  0.00    -0.283 N 
ATOM     12  H   UNL     1       3.919   2.855  -0.022  0.00  0.00    +0.155 HD
ENDROOT
BRANCH   8  13
ATOM     13  N   UNL     1       4.166  -1.168   1.158  0.00  0.00    -0.327 N 
ATOM     14  H   UNL     1       3.642  -1.056   1.966  0.00  0.00    +0.147 HD
BRANCH  13  15
ATOM     15  C   UNL     1       5.230  -2.078   1.133  0.00  0.00    +0.067 A 
ATOM     16  C   UNL     1       5.984  -2.234  -0.022  0.00  0.00    +0.029 A 
ATOM     17  C   UNL     1       7.033  -3.133  -0.046  0.00  0.00    +0.043 A 
ATOM     18  C   UNL     1       7.335  -3.878   1.080  0.00  0.00    +0.161 A 
ATOM     19  C   UNL     1       6.585  -3.725   2.236  0.00  0.00    +0.195 A 
ATOM     20  C   UNL     1       5.536  -2.822   2.266  0.00  0.00    +0.182 A 
ATOM     21  F   UNL     1       4.808  -2.667   3.394  0.00  0.00    -0.200 F 
ATOM     22  F   UNL     1       6.880  -4.454   3.335  0.00  0.00    -0.199 F 
ATOM     23  F   UNL     1       8.361  -4.757   1.053  0.00  0.00    -0.202 F 
ENDBRANCH  13  15
ENDBRANCH   8  13
TORSDOF 2
