REMARK  Name = ZINC39684530
REMARK  9 active torsions:
REMARK  status: ('A' for Active; 'I' for Inactive)
REMARK    1  A    between atoms: C_1  and  C_2
REMARK    2  A    between atoms: C_2  and  C_4
REMARK    3  A    between atoms: C_2  and  N_8
REMARK    4  A    between atoms: C_4  and  C_5
REMARK    5  A    between atoms: C_4  and  C_6
REMARK    6  A    between atoms: C_4  and  C_7
REMARK    7  A    between atoms: C_9  and  C_11
REMARK    8  A    between atoms: C_22  and  C_24
REMARK    9  A    between atoms: N_28  and  C_29
REMARK                            x       y       z     vdW  Elec       q    Type
REMARK                         _______ _______ _______ _____ _____    ______ ____
ROOT
ATOM      1  C   UNL     1       1.822  -1.884   4.302  0.00  0.00    +0.100 C 
ATOM      2  C   UNL     1       1.597  -3.413   4.287  0.00  0.00    +0.121 C 
ATOM      3  N   UNL     1       2.837  -3.968   3.695  0.00  0.00    -0.295 N 
ATOM      4  C   UNL     1       3.924  -3.140   4.271  0.00  0.00    +0.115 C 
ATOM      5  C   UNL     1       3.350  -1.710   4.295  0.00  0.00    -0.004 C 
ATOM      6  C   UNL     1       3.789  -0.946   3.050  0.00  0.00    -0.010 C 
ATOM      7  C   UNL     1       5.305  -0.735   3.094  0.00  0.00    -0.082 C 
ATOM      8  N   UNL     1       5.662   0.015   4.304  0.00  0.00    +0.379 N 
ATOM      9  C   UNL     1       5.320  -0.768   5.498  0.00  0.00    -0.082 C 
ATOM     10  C   UNL     1       3.804  -0.980   5.556  0.00  0.00    -0.010 C 
ATOM     11  C   UNL     1       2.951  -4.993   2.827  0.00  0.00    +0.263 C 
ATOM     12  O   UNL     1       4.048  -5.454   2.571  0.00  0.00    -0.268 OA
ATOM     13  H   UNL     1       6.652   0.205   4.301  0.00  0.00    -0.086 HD
ATOM     14  H   UNL     1       5.154   0.887   4.319  0.00  0.00    -0.086 HD
ENDROOT
BRANCH  11  15
ATOM     15  C   UNL     1       1.753  -5.553   2.192  0.00  0.00    +0.104 A 
ATOM     16  C   UNL     1       0.520  -4.945   2.100  0.00  0.00    +0.032 A 
ATOM     17  C   UNL     1      -0.325  -5.829   1.421  0.00  0.00    +0.020 A 
ATOM     18  C   UNL     1       0.392  -6.937   1.116  0.00  0.00    +0.086 A 
ATOM     19  N   UNL     1       1.658  -6.780   1.575  0.00  0.00    -0.346 N 
ATOM     20  C   UNL     1       2.743  -7.755   1.439  0.00  0.00    +0.149 C 
ENDBRANCH  11  15
BRANCH   1  22
ATOM     21  N   UNL     1       0.770   0.018   3.122  0.00  0.00    -0.312 N 
ATOM     22  C   UNL     1       1.216  -1.252   3.075  0.00  0.00    +0.218 C 
ATOM     23  O   UNL     1       1.131  -1.888   2.046  0.00  0.00    -0.275 OA
ATOM     24  H   UNL     1       0.772   0.502   3.963  0.00  0.00    +0.149 HD
BRANCH  21  26
ATOM     25  C   UNL     1       1.463   1.254   1.129  0.00  0.00    +0.028 C 
ATOM     26  C   UNL     1       0.281   0.669   1.904  0.00  0.00    +0.075 C 
BRANCH  26  27
ATOM     27  C   UNL     1      -0.689   1.791   2.279  0.00  0.00    -0.020 C 
ATOM     28  C   UNL     1      -1.310   2.374   1.008  0.00  0.00    +0.012 C 
ATOM     29  C   UNL     1      -1.795   1.230   3.176  0.00  0.00    +0.012 C 
ATOM     30  C   UNL     1       0.067   2.890   3.028  0.00  0.00    +0.012 C 
ENDBRANCH  26  27
ENDBRANCH  21  26
ENDBRANCH   1  22
TORSDOF 4
