REMARK  Name = ZINC49413776
REMARK  6 active torsions:
REMARK  status: ('A' for Active; 'I' for Inactive)
REMARK    1  A    between atoms: C_1  and  C_2
REMARK    2  A    between atoms: C_4  and  C_8
REMARK    3  A    between atoms: C_5  and  C_7
REMARK    4  A    between atoms: C_8  and  C_10
REMARK    5  A    between atoms: C_8  and  N_11
REMARK    6  A    between atoms: N_14  and  C_15
REMARK                            x       y       z     vdW  Elec       q    Type
REMARK                         _______ _______ _______ _____ _____    ______ ____
ROOT
ATOM      1  N   UNL     1      -2.784  -3.077   0.476  0.00  0.00    -0.292 N 
ATOM      2  C   UNL     1      -3.542  -4.045   1.028  0.00  0.00    +0.304 C 
ATOM      3  O   UNL     1      -3.108  -5.176   1.126  0.00  0.00    -0.252 OA
ATOM      4  N   UNL     1      -4.782  -3.758   1.472  0.00  0.00    -0.269 N 
ATOM      5  H   UNL     1      -3.130  -2.175   0.398  0.00  0.00    +0.151 HD
ATOM      6  H   UNL     1      -5.104  -2.843   1.455  0.00  0.00    +0.156 HD
ENDROOT
BRANCH   4   7
ATOM      7  C   UNL     1      -5.606  -4.781   1.955  0.00  0.00    +0.036 A 
ATOM      8  C   UNL     1      -6.976  -4.735   1.732  0.00  0.00    +0.023 A 
ATOM      9  C   UNL     1      -7.787  -5.745   2.210  0.00  0.00    +0.003 A 
ATOM     10  C   UNL     1      -7.236  -6.803   2.911  0.00  0.00    +0.015 A 
ATOM     11  C   UNL     1      -5.872  -6.851   3.136  0.00  0.00    +0.020 A 
ATOM     12  C   UNL     1      -5.055  -5.846   2.655  0.00  0.00    +0.038 A 
ATOM     13 BR   UNL     1      -5.124  -8.299   4.096  0.00  0.00    -0.050 Br
ENDBRANCH   4   7
BRANCH   1  14
ATOM     14  C   UNL     1      -1.436  -3.389  -0.006  0.00  0.00    +0.105 C 
ATOM     15  C   UNL     1      -1.518  -3.935  -1.433  0.00  0.00    +0.033 C 
BRANCH  14  19
ATOM     16  C   UNL     1      -0.004   1.500   0.048  0.00  0.00    +0.086 C 
ATOM     17  C   UNL     1       0.013  -0.007   0.030  0.00  0.00    +0.103 A 
ATOM     18  C   UNL     1      -1.070  -0.805   0.024  0.00  0.00    +0.050 A 
ATOM     19  C   UNL     1      -0.596  -2.137   0.006  0.00  0.00    +0.013 A 
ATOM     20  C   UNL     1       0.747  -2.073   0.001  0.00  0.00    +0.107 A 
ATOM     21  O   UNL     1       1.111  -0.780   0.009  0.00  0.00    -0.465 OA
ATOM     22  C   UNL     1       1.686  -3.252  -0.017  0.00  0.00    +0.086 C 
ENDBRANCH  14  19
ENDBRANCH   1  14
TORSDOF 3
