REMARK  Name = ZINC39600350
REMARK  8 active torsions:
REMARK  status: ('A' for Active; 'I' for Inactive)
REMARK    1  A    between atoms: C_1  and  C_2
REMARK    2  A    between atoms: C_2  and  C_4
REMARK    3  A    between atoms: C_2  and  O_32
REMARK    4  A    between atoms: C_8  and  C_17
REMARK    5  A    between atoms: N_19  and  C_20
REMARK    6  A    between atoms: C_20  and  C_21
REMARK    7  A    between atoms: C_23  and  C_28
REMARK    8  A    between atoms: O_32  and  C_33
REMARK                            x       y       z     vdW  Elec       q    Type
REMARK                         _______ _______ _______ _____ _____    ______ ____
ROOT
ATOM      1  C   UNL     1       0.721  -0.653   1.098  0.00  0.00    +0.256 C 
ATOM      2  O   UNL     1      -0.068  -1.104   1.901  0.00  0.00    -0.272 OA
ATOM      3  N   UNL     1       2.029  -0.569   1.412  0.00  0.00    -0.297 N 
ATOM      4  C   UNL     1       3.144  -0.125   0.543  0.00  0.00    +0.121 C 
ATOM      5  C   UNL     1       4.055   0.708   1.473  0.00  0.00    +0.100 C 
ATOM      6  C   UNL     1       3.745   0.194   2.889  0.00  0.00    -0.004 C 
ATOM      7  C   UNL     1       2.675  -0.892   2.706  0.00  0.00    +0.115 C 
ATOM      8  C   UNL     1       4.999  -0.399   3.523  0.00  0.00    -0.010 C 
ATOM      9  C   UNL     1       4.680  -0.850   4.951  0.00  0.00    -0.082 C 
ATOM     10  N   UNL     1       4.208   0.299   5.734  0.00  0.00    +0.379 N 
ATOM     11  C   UNL     1       2.950   0.806   5.172  0.00  0.00    -0.082 C 
ATOM     12  C   UNL     1       3.197   1.326   3.753  0.00  0.00    -0.010 C 
ATOM     13  H   UNL     1       4.056   0.013   6.690  0.00  0.00    -0.086 HD
ATOM     14  H   UNL     1       4.904   1.029   5.711  0.00  0.00    -0.086 HD
ENDROOT
BRANCH   5  15
ATOM     15  C   UNL     1       3.722   2.173   1.359  0.00  0.00    +0.218 C 
ATOM     16  O   UNL     1       2.567   2.526   1.250  0.00  0.00    -0.275 OA
ATOM     17  N   UNL     1       4.708   3.092   1.378  0.00  0.00    -0.311 N 
ATOM     18  H   UNL     1       5.632   2.810   1.465  0.00  0.00    +0.149 HD
BRANCH  17  19
ATOM     19  C   UNL     1       4.385   4.516   1.267  0.00  0.00    +0.139 C 
BRANCH  19  20
ATOM     20  C   UNL     1       5.655   5.325   1.315  0.00  0.00    -0.027 A 
ATOM     21  C   UNL     1       6.150   5.764   2.529  0.00  0.00    +0.017 A 
ATOM     22  C   UNL     1       7.316   6.506   2.574  0.00  0.00    +0.058 A 
ATOM     23  C   UNL     1       7.987   6.811   1.405  0.00  0.00    +0.050 A 
ATOM     24  C   UNL     1       7.492   6.372   0.188  0.00  0.00    +0.124 A 
ATOM     25  C   UNL     1       6.328   5.624   0.145  0.00  0.00    +0.043 A 
ATOM     26  F   UNL     1       8.147   6.670  -0.955  0.00  0.00    -0.205 F 
BRANCH  22  27
ATOM     27  C   UNL     1       7.854   6.983   3.898  0.00  0.00    +0.418 C 
ATOM     28  F   UNL     1       8.723   6.020   4.422  0.00  0.00    -0.166 F 
ATOM     29  F   UNL     1       8.546   8.185   3.714  0.00  0.00    -0.166 F 
ATOM     30  F   UNL     1       6.793   7.186   4.787  0.00  0.00    -0.166 F 
ENDBRANCH  22  27
ENDBRANCH  19  20
ENDBRANCH  17  19
ENDBRANCH   5  15
BRANCH   1  32
ATOM     31  C   UNL     1       0.345   1.335  -0.335  0.00  0.00    +0.062 C 
ATOM     32  C   UNL     1       0.238  -0.189  -0.252  0.00  0.00    +0.256 C 
BRANCH  32  33
ATOM     33  O   UNL     1      -1.124  -0.581  -0.432  0.00  0.00    -0.480 OA
BRANCH  33  34
ATOM     34  C   UNL     1      -1.560  -0.729  -1.711  0.00  0.00    +0.122 A 
ATOM     35  C   UNL     1      -0.728  -0.398  -2.771  0.00  0.00    +0.045 A 
ATOM     36  C   UNL     1      -1.173  -0.551  -4.070  0.00  0.00    +0.004 A 
ATOM     37  C   UNL     1      -2.446  -1.032  -4.314  0.00  0.00    +0.000 A 
ATOM     38  C   UNL     1      -3.277  -1.363  -3.259  0.00  0.00    +0.004 A 
ATOM     39  C   UNL     1      -2.834  -1.218  -1.958  0.00  0.00    +0.045 A 
ENDBRANCH  33  34
ENDBRANCH  32  33
ENDBRANCH   1  32
TORSDOF 7
