REMARK  Name = ZINC33063317
REMARK  4 active torsions:
REMARK  status: ('A' for Active; 'I' for Inactive)
REMARK    1  A    between atoms: C_4  and  N_7
REMARK    2  A    between atoms: C_8  and  C_10
REMARK    3  A    between atoms: C_13  and  C_16
REMARK    4  A    between atoms: C_21  and  C_29
REMARK                            x       y       z     vdW  Elec       q    Type
REMARK                         _______ _______ _______ _____ _____    ______ ____
ROOT
ATOM      1  C   UNL     1       0.988   6.130   0.422  0.00  0.00    +0.191 C 
ATOM      2  N   UNL     1      -0.119   5.282  -0.013  0.00  0.00    -0.322 N 
ATOM      3  C   UNL     1      -0.068   3.890   0.003  0.00  0.00    +0.056 A 
ATOM      4  C   UNL     1      -1.264   3.174   0.015  0.00  0.00    +0.037 A 
ATOM      5  C   UNL     1      -1.248   1.796   0.002  0.00  0.00    +0.057 A 
ATOM      6  C   UNL     1      -0.046   1.112  -0.012  0.00  0.00    +0.014 A 
ATOM      7  C   UNL     1       1.145   1.815  -0.018  0.00  0.00    +0.031 A 
ATOM      8  C   UNL     1       1.133   3.195  -0.004  0.00  0.00    +0.126 A 
ATOM      9  S   UNL     1       2.658   4.088   0.024  0.00  0.00    +0.062 S 
ATOM     10  O   UNL     1       3.157   4.015   1.352  0.00  0.00    -0.153 OA
ATOM     11  O   UNL     1       3.408   3.665  -1.106  0.00  0.00    -0.153 OA
ATOM     12  N   UNL     1       2.224   5.676  -0.247  0.00  0.00    -0.166 NA
ATOM     13  H   UNL     1      -1.052   5.738  -0.375  0.00  0.00    +0.148 HD
ATOM     14  H   UNL     1       2.705   6.314  -1.003  0.00  0.00    +0.150 HD
ENDROOT
BRANCH   1  18
ATOM     15  C   UNL     1       1.454   5.821   4.662  0.00  0.00    +0.037 A 
ATOM     16  C   UNL     1       2.561   6.082   3.852  0.00  0.00    +0.013 A 
ATOM     17  C   UNL     1       2.403   6.181   2.485  0.00  0.00    +0.007 A 
ATOM     18  C   UNL     1       1.152   6.021   1.916  0.00  0.00    -0.011 A 
ATOM     19  C   UNL     1       0.051   5.766   2.713  0.00  0.00    +0.007 A 
ATOM     20  C   UNL     1       0.195   5.660   4.081  0.00  0.00    +0.013 A 
BRANCH  15  22
ATOM     21  N   UNL     1       0.545   5.461   6.906  0.00  0.00    -0.282 N 
ATOM     22  C   UNL     1       1.615   5.714   6.127  0.00  0.00    +0.248 C 
ATOM     23  O   UNL     1       2.713   5.855   6.630  0.00  0.00    -0.270 OA
ATOM     24  H   UNL     1      -0.459   5.410   6.461  0.00  0.00    +0.155 HD
BRANCH  21  28
ATOM     25  C   UNL     1       1.040   4.876  11.000  0.00  0.00    +0.000 A 
ATOM     26  C   UNL     1       1.843   5.781  10.331  0.00  0.00    +0.002 A 
ATOM     27  C   UNL     1       1.682   5.977   8.973  0.00  0.00    +0.023 A 
ATOM     28  C   UNL     1       0.712   5.264   8.281  0.00  0.00    +0.034 A 
ATOM     29  C   UNL     1      -0.097   4.360   8.957  0.00  0.00    +0.023 A 
ATOM     30  C   UNL     1       0.074   4.164  10.313  0.00  0.00    +0.002 A 
ENDBRANCH  21  28
ENDBRANCH  15  22
ENDBRANCH   1  18
BRANCH   5  31
ATOM     31  C   UNL     1      -2.546   1.030   0.009  0.00  0.00    +0.417 C 
ATOM     32  F   UNL     1      -2.277  -0.343  -0.001  0.00  0.00    -0.166 F 
ATOM     33  F   UNL     1      -3.273   1.355   1.160  0.00  0.00    -0.166 F 
ATOM     34  F   UNL     1      -3.293   1.367  -1.125  0.00  0.00    -0.166 F 
ENDBRANCH   5  31
TORSDOF 4
