REMARK  Name = ZINC19757554
REMARK  5 active torsions:
REMARK  status: ('A' for Active; 'I' for Inactive)
REMARK    1  A    between atoms: C_1  and  C_2
REMARK    2  A    between atoms: C_2  and  C_3
REMARK    3  A    between atoms: N_6  and  C_20
REMARK    4  A    between atoms: C_9  and  C_14
REMARK    5  A    between atoms: C_20  and  C_21
REMARK                            x       y       z     vdW  Elec       q    Type
REMARK                         _______ _______ _______ _____ _____    ______ ____
ROOT
ATOM      1  C   UNL     1      -4.721   0.325   0.100  0.00  0.00    +0.190 C 
ATOM      2  C   UNL     1      -3.692   1.457   0.213  0.00  0.00    +0.150 C 
ATOM      3  N   UNL     1      -2.351   0.888   0.037  0.00  0.00    -0.315 N 
ATOM      4  C   UNL     1      -2.264   0.087  -1.106  0.00  0.00    +0.073 A 
ATOM      5  C   UNL     1      -1.007  -0.174  -1.638  0.00  0.00    +0.037 A 
ATOM      6  C   UNL     1      -0.879  -0.971  -2.772  0.00  0.00    +0.003 A 
ATOM      7  C   UNL     1      -2.017  -1.508  -3.374  0.00  0.00    +0.014 A 
ATOM      8  C   UNL     1      -3.263  -1.246  -2.845  0.00  0.00    +0.048 A 
ATOM      9  C   UNL     1      -3.393  -0.449  -1.714  0.00  0.00    +0.142 A 
ATOM     10  O   UNL     1      -4.642  -0.210  -1.225  0.00  0.00    -0.485 OA
ENDROOT
BRANCH   6  11
ATOM     11  C   UNL     1       0.463  -1.249  -3.339  0.00  0.00    +0.080 A 
ATOM     12  C   UNL     1       0.588  -1.944  -4.507  0.00  0.00    +0.076 A 
ATOM     13  S   UNL     1       2.366  -1.972  -4.691  0.00  0.00    -0.060 S 
ATOM     14  C   UNL     1       2.760  -1.061  -3.204  0.00  0.00    +0.156 A 
ATOM     15  N   UNL     1       1.558  -0.818  -2.717  0.00  0.00    -0.225 NA
ATOM     16  N   UNL     1       4.000  -0.700  -2.700  0.00  0.00    -0.338 N 
ATOM     17  H   UNL     1       4.067  -0.133  -1.761  0.00  0.00    +0.144 HD
ATOM     18  H   UNL     1       4.916  -0.982  -3.240  0.00  0.00    +0.144 HD
ENDBRANCH   6  11
BRANCH   1  20
ATOM     19  C   UNL     1      -7.132  -0.277   0.360  0.00  0.00    +0.007 C 
ATOM     20  C   UNL     1      -6.127   0.876   0.352  0.00  0.00    +0.043 C 
ENDBRANCH   1  20
BRANCH   3  21
ATOM     21  C   UNL     1      -1.330   1.944   0.019  0.00  0.00    +0.200 C 
BRANCH  21  22
ATOM     22  C   UNL     1      -1.222   2.562   1.389  0.00  0.00    +0.228 C 
ATOM     23  O   UNL     1      -1.846   2.093   2.317  0.00  0.00    -0.274 OA
ATOM     24  N   UNL     1      -0.427   3.633   1.585  0.00  0.00    -0.328 N 
ATOM     25  H   UNL     1      -0.348   4.085   2.585  0.00  0.00    +0.145 HD
ATOM     26  H   UNL     1       0.143   4.056   0.744  0.00  0.00    +0.145 HD
ENDBRANCH  21  22
ENDBRANCH   3  21
TORSDOF 4
