REMARK  Name = ZINC66066905
REMARK  9 active torsions:
REMARK  status: ('A' for Active; 'I' for Inactive)
REMARK    1  A    between atoms: C_1  and  C_2
REMARK    2  A    between atoms: C_2  and  C_4
REMARK    3  A    between atoms: C_2  and  N_14
REMARK    4  A    between atoms: C_8  and  S_10
REMARK    5  A    between atoms: S_10  and  N_13
REMARK    6  A    between atoms: C_15  and  C_17
REMARK    7  A    between atoms: C_17  and  C_19
REMARK    8  A    between atoms: C_17  and  S_20
REMARK    9  A    between atoms: S_20  and  C_21
REMARK                            x       y       z     vdW  Elec       q    Type
REMARK                         _______ _______ _______ _____ _____    ______ ____
ROOT
ATOM      1  C   UNL     1       1.409   2.465  -0.536  0.00  0.00    +0.033 C 
ATOM      2  C   UNL     1       1.109   0.977  -0.725  0.00  0.00    +0.100 C 
ENDROOT
BRANCH   2   3
ATOM      3  C   UNL     1      -0.330   0.802  -1.137  0.00  0.00    -0.026 A 
ATOM      4  C   UNL     1      -1.332   0.853  -0.185  0.00  0.00    +0.005 A 
ATOM      5  C   UNL     1      -2.652   0.693  -0.562  0.00  0.00    +0.002 A 
ATOM      6  C   UNL     1      -2.971   0.482  -1.891  0.00  0.00    +0.028 A 
ATOM      7  C   UNL     1      -1.969   0.432  -2.842  0.00  0.00    +0.105 A 
ATOM      8  C   UNL     1      -0.649   0.597  -2.466  0.00  0.00    +0.034 A 
BRANCH   7   9
ATOM      9  S   UNL     1      -2.375   0.164  -4.536  0.00  0.00    +0.056 S 
ATOM     10  O   UNL     1      -1.216  -0.384  -5.149  0.00  0.00    -0.153 OA
ATOM     11  O   UNL     1      -3.632  -0.500  -4.552  0.00  0.00    -0.153 OA
BRANCH   9  12
ATOM     12  N   UNL     1      -2.617   1.651  -5.223  0.00  0.00    -0.204 NA
ATOM     13  H   UNL     1      -2.522   2.454  -4.687  0.00  0.00    +0.144 HD
ATOM     14  H   UNL     1      -2.852   1.719  -6.162  0.00  0.00    +0.144 HD
ENDBRANCH   9  12
ENDBRANCH   7   9
ENDBRANCH   2   3
BRANCH   2  15
ATOM     15  N   UNL     1       1.347   0.267   0.534  0.00  0.00    -0.308 N 
ATOM     16  C   UNL     1       2.588  -0.155   0.846  0.00  0.00    +0.227 C 
ATOM     17  O   UNL     1       3.509   0.053   0.084  0.00  0.00    -0.275 OA
ATOM     18  H   UNL     1       0.610   0.100   1.143  0.00  0.00    +0.149 HD
BRANCH  16  19
ATOM     19  C   UNL     1       2.833  -0.885   2.142  0.00  0.00    +0.134 C 
ATOM     20  C   UNL     1       2.929   0.126   3.286  0.00  0.00    +0.029 C 
BRANCH  19  21
ATOM     21  S   UNL     1       4.384  -1.819   2.026  0.00  0.00    -0.113 S 
BRANCH  21  22
ATOM     22  C   UNL     1       4.029  -3.093   0.862  0.00  0.00    +0.009 A 
ATOM     23  C   UNL     1       2.738  -3.248   0.372  0.00  0.00    +0.016 A 
ATOM     24  C   UNL     1       2.463  -4.248  -0.540  0.00  0.00    +0.021 A 
ATOM     25  C   UNL     1       3.471  -5.094  -0.967  0.00  0.00    +0.041 A 
ATOM     26  C   UNL     1       4.758  -4.941  -0.481  0.00  0.00    +0.021 A 
ATOM     27  C   UNL     1       5.041  -3.940   0.427  0.00  0.00    +0.016 A 
ATOM     28 CL   UNL     1       3.122  -6.349  -2.114  0.00  0.00    -0.084 Cl
ENDBRANCH  21  22
ENDBRANCH  19  21
ENDBRANCH  16  19
ENDBRANCH   2  15
TORSDOF 7
