REMARK  Name = ZINC07785034
REMARK  5 active torsions:
REMARK  status: ('A' for Active; 'I' for Inactive)
REMARK    1  A    between atoms: C_4  and  O_27
REMARK    2  A    between atoms: C_5  and  C_7
REMARK    3  A    between atoms: N_9  and  N_10
REMARK    4  A    between atoms: C_11  and  C_13
REMARK    5  A    between atoms: C_16  and  C_18
REMARK                            x       y       z     vdW  Elec       q    Type
REMARK                         _______ _______ _______ _____ _____    ______ ____
ROOT
ATOM      1  N   UNL     1       0.050   0.008   4.876  0.00  0.00    -0.230 N 
ATOM      2  C   UNL     1       0.070  -0.679   6.036  0.00  0.00    +0.267 C 
ATOM      3  O   UNL     1       0.086  -1.895   6.022  0.00  0.00    -0.268 OA
ATOM      4  H   UNL     1       0.038   0.978   4.888  0.00  0.00    +0.173 HD
ENDROOT
BRANCH   2   5
ATOM      5  C   UNL     1       0.074   0.040   7.314  0.00  0.00    +0.076 A 
ATOM      6  C   UNL     1       0.087  -0.473   8.603  0.00  0.00    +0.021 A 
ATOM      7  C   UNL     1       0.091   0.396   9.656  0.00  0.00    +0.019 A 
ATOM      8  C   UNL     1       0.071   1.759   9.396  0.00  0.00    +0.045 A 
ATOM      9  S   UNL     1       0.053   1.801   7.611  0.00  0.00    -0.082 S 
BRANCH   8  10
ATOM     10  C   UNL     1       0.064   2.882  10.347  0.00  0.00    +0.116 A 
ATOM     11  N   UNL     1       0.044   4.176  10.099  0.00  0.00    -0.239 NA
ATOM     12  C   UNL     1       0.040   5.098  11.072  0.00  0.00    +0.079 A 
ATOM     13  C   UNL     1       0.019   6.508  10.940  0.00  0.00    +0.029 A 
ATOM     14  C   UNL     1       0.018   7.311  12.037  0.00  0.00    +0.002 A 
ATOM     15  C   UNL     1       0.036   6.789  13.323  0.00  0.00    +0.001 A 
ATOM     16  C   UNL     1       0.057   5.417  13.498  0.00  0.00    +0.017 A 
ATOM     17  C   UNL     1       0.059   4.597  12.396  0.00  0.00    +0.040 A 
ATOM     18  S   UNL     1       0.073   2.840  12.134  0.00  0.00    -0.067 S 
ENDBRANCH   8  10
ENDBRANCH   2   5
BRANCH   1  21
ATOM     19  C   UNL     1       0.026   0.009   2.496  0.00  0.00    +0.264 C 
ATOM     20  O   UNL     1       0.011   1.224   2.510  0.00  0.00    -0.269 OA
ATOM     21  N   UNL     1       0.047  -0.678   3.655  0.00  0.00    -0.230 N 
ATOM     22  H   UNL     1       0.059  -1.648   3.644  0.00  0.00    +0.173 HD
BRANCH  19  27
ATOM     23  C   UNL     1       0.039  -2.780  -0.015  0.00  0.00    +0.001 A 
ATOM     24  C   UNL     1       0.018  -2.075  -1.207  0.00  0.00    +0.004 A 
ATOM     25  C   UNL     1      -0.006  -0.694  -1.201  0.00  0.00    +0.046 A 
ATOM     26  C   UNL     1       0.002  -0.004   0.002  0.00  0.00    +0.129 A 
ATOM     27  C   UNL     1       0.023  -0.714   1.210  0.00  0.00    +0.079 A 
ATOM     28  C   UNL     1       0.042  -2.111   1.189  0.00  0.00    +0.017 A 
BRANCH  26  29
ATOM     29  O   UNL     1      -0.016   1.352   0.009  0.00  0.00    -0.506 OA
ATOM     30  H   UNL     1       0.862   1.758   0.003  0.00  0.00    +0.292 HD
ENDBRANCH  26  29
ENDBRANCH  19  27
ENDBRANCH   1  21
TORSDOF 5
