REMARK  Name = ZINC13564737
REMARK  9 active torsions:
REMARK  status: ('A' for Active; 'I' for Inactive)
REMARK    1  A    between atoms: C_1  and  O_2
REMARK    2  A    between atoms: O_2  and  C_3
REMARK    3  A    between atoms: C_6  and  C_11
REMARK    4  A    between atoms: C_8  and  O_9
REMARK    5  A    between atoms: O_9  and  C_10
REMARK    6  A    between atoms: C_14  and  C_27
REMARK    7  A    between atoms: N_19  and  C_21
REMARK    8  A    between atoms: C_27  and  N_28
REMARK    9  A    between atoms: N_28  and  C_29
REMARK                            x       y       z     vdW  Elec       q    Type
REMARK                         _______ _______ _______ _____ _____    ______ ____
ROOT
ATOM      1  C   UNL     1      -1.129   1.742   0.016  0.00  0.00    +0.102 A 
ATOM      2  C   UNL     1      -0.724   3.090   0.025  0.00  0.00    +0.045 A 
ATOM      3  C   UNL     1      -1.431   4.310   0.037  0.00  0.00    +0.024 A 
ATOM      4  C   UNL     1      -0.720   5.471   0.036  0.00  0.00    +0.035 A 
ATOM      5  C   UNL     1       0.689   5.424   0.023  0.00  0.00    +0.255 A 
ATOM      6  O   UNL     1       1.325   6.468   0.021  0.00  0.00    -0.268 OA
ATOM      7  N   UNL     1       1.340   4.259   0.011  0.00  0.00    -0.307 N 
ATOM      8  C   UNL     1       0.692   3.108   0.012  0.00  0.00    +0.145 A 
ATOM      9  N   UNL     1       1.117   1.795   0.001  0.00  0.00    -0.215 N 
ATOM     10  N   UNL     1      -0.011   0.966   0.007  0.00  0.00    -0.164 NA
ATOM     11  H   UNL     1       2.439   4.244   0.001  0.00  0.00    +0.170 HD
ENDROOT
BRANCH   1  15
ATOM     12  C   UNL     1      -5.138   0.349   0.021  0.00  0.00    +0.162 A 
ATOM     13  C   UNL     1      -4.764   1.386  -0.826  0.00  0.00    +0.050 A 
ATOM     14  C   UNL     1      -3.466   1.845  -0.827  0.00  0.00    +0.014 A 
ATOM     15  C   UNL     1      -2.516   1.259   0.019  0.00  0.00    +0.006 A 
ATOM     16  C   UNL     1      -2.894   0.214   0.872  0.00  0.00    +0.059 A 
ATOM     17  C   UNL     1      -4.199  -0.236   0.871  0.00  0.00    +0.162 A 
BRANCH  12  19
ATOM     18  C   UNL     1      -7.330   0.549  -0.873  0.00  0.00    +0.277 C 
ATOM     19  O   UNL     1      -6.420  -0.095   0.022  0.00  0.00    -0.491 OA
ENDBRANCH  12  19
BRANCH  17  20
ATOM     20  O   UNL     1      -4.569  -1.251   1.697  0.00  0.00    -0.491 OA
ATOM     21  C   UNL     1      -3.556  -1.804   2.539  0.00  0.00    +0.277 C 
ENDBRANCH  17  20
ENDBRANCH   1  15
BRANCH   9  22
ATOM     22  C   UNL     1       2.447   1.367  -0.013  0.00  0.00    +0.068 A 
ATOM     23  C   UNL     1       3.379   1.962   0.828  0.00  0.00    +0.028 A 
ATOM     24  C   UNL     1       4.691   1.532   0.816  0.00  0.00    +0.002 A 
ATOM     25  C   UNL     1       5.080   0.518  -0.040  0.00  0.00    +0.000 A 
ATOM     26  C   UNL     1       4.157  -0.073  -0.883  0.00  0.00    +0.002 A 
ATOM     27  C   UNL     1       2.841   0.348  -0.871  0.00  0.00    +0.028 A 
ENDBRANCH   9  22
BRANCH   4  28
ATOM     28  C   UNL     1      -1.435   6.798   0.049  0.00  0.00    +0.142 C 
BRANCH  28  29
ATOM     29  N   UNL     1      -1.339   7.391   1.386  0.00  0.00    -0.340 N 
ATOM     30  H   UNL     1      -0.802   6.860   2.186  0.00  0.00    +0.146 HD
BRANCH  29  31
ATOM     31  C   UNL     1      -1.930   8.630   1.644  0.00  0.00    +0.028 A 
ATOM     32  C   UNL     1      -2.608   9.302   0.635  0.00  0.00    +0.023 A 
ATOM     33  C   UNL     1      -3.190  10.526   0.896  0.00  0.00    +0.006 A 
ATOM     34  C   UNL     1      -3.100  11.088   2.160  0.00  0.00    -0.044 A 
ATOM     35  C   UNL     1      -2.425  10.421   3.166  0.00  0.00    -0.042 A 
ATOM     36  C   UNL     1      -1.845   9.191   2.911  0.00  0.00    +0.026 A 
ATOM     37  C   UNL     1      -2.469  11.237   4.440  0.00  0.00    +0.036 C 
ATOM     38  C   UNL     1      -3.607  12.258   4.227  0.00  0.00    +0.009 C 
ATOM     39  C   UNL     1      -3.643  12.398   2.690  0.00  0.00    +0.036 C 
ENDBRANCH  29  31
ENDBRANCH  28  29
ENDBRANCH   4  28
TORSDOF 7
