REMARK  Name = ZINC34780423
REMARK  8 active torsions:
REMARK  status: ('A' for Active; 'I' for Inactive)
REMARK    1  A    between atoms: C_1  and  C_2
REMARK    2  A    between atoms: C_2  and  C_3
REMARK    3  A    between atoms: C_3  and  C_4
REMARK    4  A    between atoms: C_8  and  S_10
REMARK    5  A    between atoms: S_10  and  C_11
REMARK    6  A    between atoms: C_11  and  C_12
REMARK    7  A    between atoms: N_14  and  C_15
REMARK    8  A    between atoms: C_18  and  N_22
REMARK                            x       y       z     vdW  Elec       q    Type
REMARK                         _______ _______ _______ _____ _____    ______ ____
ROOT
ATOM      1  C   UNL     1       0.100  -3.231  -5.493  0.00  0.00    +0.228 C 
ATOM      2  O   UNL     1       1.152  -3.775  -5.755  0.00  0.00    -0.275 OA
ATOM      3  N   UNL     1      -0.897  -3.221  -6.400  0.00  0.00    -0.283 N 
ATOM      4  H   UNL     1      -1.762  -2.850  -6.165  0.00  0.00    +0.155 HD
ENDROOT
BRANCH   3   5
ATOM      5  C   UNL     1      -0.684  -3.744  -7.680  0.00  0.00    +0.062 A 
ATOM      6  C   UNL     1      -0.960  -5.081  -7.941  0.00  0.00    +0.042 A 
ATOM      7  C   UNL     1      -0.748  -5.594  -9.207  0.00  0.00    +0.050 A 
ATOM      8  C   UNL     1      -0.263  -4.780 -10.213  0.00  0.00    +0.128 A 
ATOM      9  C   UNL     1       0.013  -3.449  -9.957  0.00  0.00    +0.050 A 
ATOM     10  C   UNL     1      -0.202  -2.927  -8.695  0.00  0.00    +0.042 A 
ATOM     11 BR   UNL     1       0.168  -1.106  -8.348  0.00  0.00    -0.048 Br
ATOM     12 BR   UNL     1      -1.624  -6.196  -6.566  0.00  0.00    -0.048 Br
BRANCH   8  13
ATOM     13  N   UNL     1      -0.037  -5.333 -11.567  0.00  0.00    +0.056 N 
ATOM     14  O   UNL     1      -0.277  -6.497 -11.792  0.00  0.00    -0.126 OA
ATOM     15  O   UNL     1       0.388  -4.622 -12.447  0.00  0.00    -0.126 OA
ENDBRANCH   8  13
ENDBRANCH   3   5
BRANCH   1  16
ATOM     16  C   UNL     1      -0.093  -2.567  -4.154  0.00  0.00    +0.173 C 
BRANCH  16  17
ATOM     17  S   UNL     1       1.417  -2.751  -3.165  0.00  0.00    -0.078 S 
BRANCH  17  22
ATOM     18  C   UNL     1      -0.476  -0.753  -0.366  0.00  0.00    +0.049 A 
ATOM     19  C   UNL     1       0.423  -0.672   0.658  0.00  0.00    +0.093 A 
ATOM     20  C   UNL     1       1.690  -1.260   0.499  0.00  0.00    +0.252 A 
ATOM     21  N   UNL     1       1.974  -1.885  -0.664  0.00  0.00    -0.302 N 
ATOM     22  C   UNL     1       1.037  -1.934  -1.651  0.00  0.00    +0.170 A 
ATOM     23  N   UNL     1      -0.151  -1.385  -1.491  0.00  0.00    -0.228 NA
ATOM     24  O   UNL     1       2.517  -1.206   1.394  0.00  0.00    -0.268 OA
ATOM     25  H   UNL     1       2.842  -2.297  -0.795  0.00  0.00    +0.171 HD
BRANCH  18  26
ATOM     26  C   UNL     1      -1.841  -0.131  -0.220  0.00  0.00    +0.055 C 
BRANCH  26  28
ATOM     27  C   UNL     1      -3.215   1.905  -0.677  0.00  0.00    +0.004 C 
ATOM     28  C   UNL     1      -1.829   1.273  -0.826  0.00  0.00    +0.003 C 
ENDBRANCH  26  28
ENDBRANCH  18  26
ENDBRANCH  17  22
ENDBRANCH  16  17
ENDBRANCH   1  16
TORSDOF 7
