REMARK  Name = ZINC36053143
REMARK  12 active torsions:
REMARK  status: ('A' for Active; 'I' for Inactive)
REMARK    1  A    between atoms: C_1  and  C_2
REMARK    2  A    between atoms: C_6  and  C_8
REMARK    3  A    between atoms: C_10  and  C_31
REMARK    4  A    between atoms: C_11  and  C_30
REMARK    5  A    between atoms: C_15  and  C_18
REMARK    6  A    between atoms: C_19  and  N_21
REMARK    7  A    between atoms: N_21  and  C_22
REMARK    8  A    between atoms: C_22  and  C_23
REMARK    9  A    between atoms: C_23  and  C_24
REMARK   10  A    between atoms: C_31  and  O_33
REMARK   11  A    between atoms: O_33  and  C_34
REMARK   12  A    between atoms: C_34  and  C_35
REMARK                            x       y       z     vdW  Elec       q    Type
REMARK                         _______ _______ _______ _____ _____    ______ ____
ROOT
ATOM      1  C   UNL     1      -0.246  -2.589   2.393  0.00  0.00    +0.150 C 
ATOM      2  C   UNL     1       1.227  -2.800   2.664  0.00  0.00    +0.082 C 
ATOM      3  C   UNL     1       1.686  -4.101   2.750  0.00  0.00    +0.053 C 
ATOM      4  N   UNL     1       0.853  -5.117   2.599  0.00  0.00    -0.230 NA
ATOM      5  C   UNL     1      -0.438  -5.002   2.362  0.00  0.00    +0.166 C 
ATOM      6  N   UNL     1      -1.087  -3.806   2.240  0.00  0.00    -0.267 N 
ATOM      7  C   UNL     1      -2.444  -3.853   1.990  0.00  0.00    +0.048 C 
ATOM      8  C   UNL     1      -3.020  -5.070   1.886  0.00  0.00    +0.072 C 
ATOM      9  S   UNL     1      -1.635  -6.158   2.143  0.00  0.00    -0.060 S 
ATOM     10  C   UNL     1       3.146  -4.363   3.019  0.00  0.00    +0.066 C 
ENDROOT
BRANCH   1  16
ATOM     11  C   UNL     1      -1.019   1.807   0.129  0.00  0.00    +0.044 C 
ATOM     12  C   UNL     1      -0.744   0.327   0.047  0.00  0.00    -0.050 A 
ATOM     13  C   UNL     1      -0.609  -0.284  -1.185  0.00  0.00    +0.003 A 
ATOM     14  C   UNL     1      -0.357  -1.641  -1.260  0.00  0.00    +0.001 A 
ATOM     15  C   UNL     1      -0.239  -2.387  -0.102  0.00  0.00    +0.006 A 
ATOM     16  C   UNL     1      -0.373  -1.776   1.131  0.00  0.00    -0.022 A 
ATOM     17  C   UNL     1      -0.622  -0.417   1.205  0.00  0.00    +0.009 A 
ENDBRANCH   1  16
BRANCH   7  18
ATOM     18  C   UNL     1      -3.233  -2.621   1.843  0.00  0.00    +0.091 C 
ATOM     19  C   UNL     1      -4.574  -2.689   1.742  0.00  0.00    +0.239 C 
ATOM     20  O   UNL     1      -5.208  -3.875   1.914  0.00  0.00    -0.271 OA
BRANCH  19  21
ATOM     21  N   UNL     1      -5.307  -1.548   1.463  0.00  0.00    -0.311 N 
ATOM     22  H   UNL     1      -4.850  -0.715   1.268  0.00  0.00    +0.149 HD
BRANCH  21  23
ATOM     23  C   UNL     1      -6.771  -1.598   1.464  0.00  0.00    +0.110 C 
BRANCH  23  24
ATOM     24  C   UNL     1      -7.328  -0.248   1.008  0.00  0.00    +0.074 C 
BRANCH  24  25
ATOM     25  C   UNL     1      -8.834  -0.300   1.009  0.00  0.00    +0.043 A 
ATOM     26  C   UNL     1      -9.550   0.644   1.721  0.00  0.00    +0.023 A 
ATOM     27  C   UNL     1     -10.935   0.588   1.714  0.00  0.00    +0.003 A 
ATOM     28  C   UNL     1     -11.551  -0.421   0.989  0.00  0.00    +0.020 A 
ATOM     29  C   UNL     1     -10.769  -1.330   0.301  0.00  0.00    +0.111 A 
ATOM     30  N   UNL     1      -9.454  -1.242   0.326  0.00  0.00    -0.260 NA
ENDBRANCH  24  25
ENDBRANCH  23  24
ENDBRANCH  21  23
ENDBRANCH  19  21
ENDBRANCH   7  18
BRANCH   2  31
ATOM     31  C   UNL     1       2.097  -1.714   2.821  0.00  0.00    +0.339 C 
ATOM     32  O   UNL     1       3.294  -1.905   2.947  0.00  0.00    -0.245 OA
BRANCH  31  33
ATOM     33  O   UNL     1       1.609  -0.454   2.833  0.00  0.00    -0.457 OA
BRANCH  33  34
ATOM     34  C   UNL     1       2.553   0.606   2.997  0.00  0.00    +0.259 C 
BRANCH  34  35
ATOM     35  C   UNL     1       1.831   1.928   2.986  0.00  0.00    +0.006 C 
ATOM     36  C   UNL     1       2.125   2.843   3.876  0.00  0.00    +0.007 C 
ENDBRANCH  34  35
ENDBRANCH  33  34
ENDBRANCH  31  33
ENDBRANCH   2  31
TORSDOF 10
