REMARK  Name = ZINC59849935
REMARK  8 active torsions:
REMARK  status: ('A' for Active; 'I' for Inactive)
REMARK    1  A    between atoms: C_1  and  C_2
REMARK    2  A    between atoms: C_2  and  C_4
REMARK    3  A    between atoms: C_2  and  N_15
REMARK    4  A    between atoms: C_9  and  N_10
REMARK    5  A    between atoms: N_10  and  S_11
REMARK    6  A    between atoms: S_11  and  C_14
REMARK    7  A    between atoms: C_16  and  C_18
REMARK    8  A    between atoms: C_20  and  C_24
REMARK                            x       y       z     vdW  Elec       q    Type
REMARK                         _______ _______ _______ _____ _____    ______ ____
ROOT
ATOM      1  N   UNL     1       0.688  -0.476  -1.203  0.00  0.00    -0.303 N 
ATOM      2  C   UNL     1       0.006  -0.608  -2.358  0.00  0.00    +0.262 C 
ATOM      3  O   UNL     1      -1.178  -0.335  -2.400  0.00  0.00    -0.269 OA
ATOM      4  H   UNL     1       1.632  -0.695  -1.170  0.00  0.00    +0.150 HD
ENDROOT
BRANCH   2   5
ATOM      5  C   UNL     1       0.695  -1.083  -3.570  0.00  0.00    +0.121 A 
ATOM      6  C   UNL     1       0.138  -1.263  -4.821  0.00  0.00    +0.062 A 
ATOM      7  C   UNL     1       1.190  -1.725  -5.633  0.00  0.00    +0.093 A 
ATOM      8  N   UNL     1       2.269  -1.799  -4.882  0.00  0.00    -0.173 NA
ATOM      9  N   UNL     1       2.013  -1.427  -3.679  0.00  0.00    -0.272 N 
ATOM     10  H   UNL     1       2.659  -1.397  -2.956  0.00  0.00    +0.189 HD
BRANCH   7  11
ATOM     11  C   UNL     1       1.101  -2.068  -7.074  0.00  0.00    +0.002 A 
ATOM     12  C   UNL     1      -0.111  -1.937  -7.750  0.00  0.00    +0.011 A 
ATOM     13  C   UNL     1      -0.189  -2.256  -9.090  0.00  0.00    +0.016 A 
ATOM     14  C   UNL     1       0.933  -2.707  -9.763  0.00  0.00    +0.018 A 
ATOM     15  C   UNL     1       2.139  -2.839  -9.097  0.00  0.00    +0.016 A 
ATOM     16  C   UNL     1       2.229  -2.516  -7.758  0.00  0.00    +0.011 A 
ATOM     17 BR   UNL     1       0.819  -3.143 -11.600  0.00  0.00    -0.050 Br
ENDBRANCH   7  11
ENDBRANCH   2   5
BRANCH   1  19
ATOM     18  C   UNL     1      -0.019   1.526   0.010  0.00  0.00    +0.033 C 
ATOM     19  C   UNL     1       0.002  -0.004   0.002  0.00  0.00    +0.102 C 
BRANCH  19  20
ATOM     20  C   UNL     1       0.731  -0.503   1.223  0.00  0.00    -0.003 A 
ATOM     21  C   UNL     1       2.076  -0.808   1.149  0.00  0.00    +0.007 A 
ATOM     22  C   UNL     1       2.745  -1.267   2.268  0.00  0.00    +0.000 A 
ATOM     23  C   UNL     1       2.071  -1.421   3.466  0.00  0.00    +0.002 A 
ATOM     24  C   UNL     1       0.727  -1.118   3.547  0.00  0.00    +0.027 A 
ATOM     25  C   UNL     1       0.052  -0.652   2.425  0.00  0.00    +0.079 A 
BRANCH  25  26
ATOM     26  N   UNL     1      -1.307  -0.339   2.506  0.00  0.00    -0.103 NA
BRANCH  26  27
ATOM     27  S   UNL     1      -2.114  -0.517   3.940  0.00  0.00    +0.059 S 
ATOM     28  O   UNL     1      -2.069  -1.912   4.211  0.00  0.00    -0.154 OA
ATOM     29  O   UNL     1      -1.498   0.412   4.821  0.00  0.00    -0.154 OA
ATOM     30  C   UNL     1      -3.818  -0.006   3.583  0.00  0.00    +0.220 C 
ENDBRANCH  26  27
ENDBRANCH  25  26
ENDBRANCH  19  20
ENDBRANCH   1  19
TORSDOF 6
