REMARK  Name = ZINC59344917
REMARK  8 active torsions:
REMARK  status: ('A' for Active; 'I' for Inactive)
REMARK    1  A    between atoms: C_1  and  C_2
REMARK    2  A    between atoms: C_2  and  C_3
REMARK    3  A    between atoms: C_3  and  C_4
REMARK    4  A    between atoms: N_6  and  C_7
REMARK    5  A    between atoms: C_10  and  C_13
REMARK    6  A    between atoms: N_15  and  C_16
REMARK    7  A    between atoms: C_19  and  S_22
REMARK    8  A    between atoms: S_22  and  N_25
REMARK                            x       y       z     vdW  Elec       q    Type
REMARK                         _______ _______ _______ _____ _____    ______ ____
ROOT
ATOM      1  C   UNL     1       2.379 -10.421   3.356  0.00  0.00    +0.034 A 
ATOM      2  C   UNL     1       1.770 -10.859   2.187  0.00  0.00    +0.025 A 
ATOM      3  C   UNL     1       1.614 -12.211   1.956  0.00  0.00    +0.030 A 
ATOM      4  C   UNL     1       2.064 -13.130   2.886  0.00  0.00    +0.109 A 
ATOM      5  C   UNL     1       2.671 -12.698   4.051  0.00  0.00    +0.030 A 
ATOM      6  C   UNL     1       2.835 -11.347   4.286  0.00  0.00    +0.025 A 
ENDROOT
BRANCH   1   9
ATOM      7  C   UNL     1       3.581  -8.612   4.324  0.00  0.00    +0.248 C 
ATOM      8  O   UNL     1       4.437  -9.393   4.695  0.00  0.00    -0.270 OA
ATOM      9  N   UNL     1       2.538  -9.053   3.594  0.00  0.00    -0.282 N 
ATOM     10  H   UNL     1       1.897  -8.420   3.233  0.00  0.00    +0.155 HD
BRANCH   7  14
ATOM     11  C   UNL     1       3.882  -4.497   5.331  0.00  0.00    +0.033 A 
ATOM     12  C   UNL     1       4.862  -5.389   5.757  0.00  0.00    +0.024 A 
ATOM     13  C   UNL     1       4.767  -6.724   5.432  0.00  0.00    +0.015 A 
ATOM     14  C   UNL     1       3.686  -7.182   4.675  0.00  0.00    +0.037 A 
ATOM     15  C   UNL     1       2.704  -6.284   4.249  0.00  0.00    +0.015 A 
ATOM     16  C   UNL     1       2.801  -4.951   4.582  0.00  0.00    +0.024 A 
BRANCH  11  19
ATOM     17  C   UNL     1       5.190  -2.552   5.713  0.00  0.00    +0.217 C 
ATOM     18  O   UNL     1       6.197  -3.211   5.564  0.00  0.00    -0.275 OA
ATOM     19  N   UNL     1       3.981  -3.146   5.661  0.00  0.00    -0.285 N 
ATOM     20  H   UNL     1       3.180  -2.634   5.854  0.00  0.00    +0.155 HD
BRANCH  17  21
ATOM     21  C   UNL     1       5.290  -1.068   5.955  0.00  0.00    +0.096 C 
BRANCH  21  23
ATOM     22  C   UNL     1       6.864   0.856   6.212  0.00  0.00    +0.004 C 
ATOM     23  C   UNL     1       6.762  -0.651   5.966  0.00  0.00    +0.006 C 
ENDBRANCH  21  23
ENDBRANCH  17  21
ENDBRANCH  11  19
ENDBRANCH   7  14
ENDBRANCH   1   9
BRANCH   4  24
ATOM     24  S   UNL     1       1.864 -14.855   2.587  0.00  0.00    +0.075 S 
ATOM     25  O   UNL     1       1.877 -15.492   3.857  0.00  0.00    -0.150 OA
ATOM     26  O   UNL     1       0.778 -14.986   1.680  0.00  0.00    -0.150 OA
BRANCH  24  27
ATOM     27  N   UNL     1       3.216 -15.373   1.784  0.00  0.00    -0.203 N 
ATOM     28  C   UNL     1       3.227 -15.458   0.317  0.00  0.00    +0.132 C 
ATOM     29  C   UNL     1       3.872 -16.795  -0.070  0.00  0.00    +0.025 C 
ATOM     30  C   UNL     1       5.323 -16.801   0.411  0.00  0.00    +0.038 C 
ATOM     31  C   UNL     1       5.397 -16.425   1.867  0.00  0.00    -0.025 A 
ATOM     32  C   UNL     1       4.369 -15.732   2.491  0.00  0.00    +0.054 A 
ATOM     33  C   UNL     1       4.473 -15.392   3.835  0.00  0.00    +0.025 A 
ATOM     34  C   UNL     1       5.601 -15.740   4.551  0.00  0.00    +0.002 A 
ATOM     35  C   UNL     1       6.627 -16.428   3.930  0.00  0.00    +0.000 A 
ATOM     36  C   UNL     1       6.522 -16.777   2.594  0.00  0.00    +0.005 A 
ENDBRANCH  24  27
ENDBRANCH   4  24
TORSDOF 7
