REMARK  Name = ZINC22861037
REMARK  11 active torsions:
REMARK  status: ('A' for Active; 'I' for Inactive)
REMARK    1  A    between atoms: C_1  and  C_2
REMARK    2  A    between atoms: C_2  and  C_3
REMARK    3  A    between atoms: C_2  and  C_4
REMARK    4  A    between atoms: C_2  and  C_5
REMARK    5  A    between atoms: C_12  and  N_16
REMARK    6  A    between atoms: C_13  and  C_14
REMARK    7  A    between atoms: N_16  and  C_17
REMARK    8  A    between atoms: C_17  and  N_19
REMARK    9  A    between atoms: C_20  and  C_22
REMARK   10  A    between atoms: C_24  and  N_34
REMARK   11  A    between atoms: C_27  and  N_28
REMARK                            x       y       z     vdW  Elec       q    Type
REMARK                         _______ _______ _______ _____ _____    ______ ____
ROOT
ATOM      1  C   UNL     1       6.538  -0.413  -5.389  0.00  0.00    +0.141 C 
ATOM      2  S   UNL     1       6.945  -0.015  -3.774  0.00  0.00    -0.018 S 
ENDROOT
BRANCH   1   3
ATOM      3  N   UNL     1       7.505  -0.519  -6.321  0.00  0.00    -0.263 N 
ATOM      4  C   UNL     1       8.793  -0.311  -5.983  0.00  0.00    +0.251 C 
ATOM      5  O   UNL     1       9.082  -0.028  -4.836  0.00  0.00    -0.270 OA
ATOM      6  H   UNL     1       7.275  -0.744  -7.236  0.00  0.00    +0.157 HD
BRANCH   4   7
ATOM      7  C   UNL     1       9.851  -0.426  -7.002  0.00  0.00    +0.060 A 
ATOM      8  C   UNL     1       9.523  -0.745  -8.323  0.00  0.00    +0.047 A 
ATOM      9  C   UNL     1      10.516  -0.852  -9.271  0.00  0.00    +0.127 A 
ATOM     10  C   UNL     1      11.842  -0.644  -8.923  0.00  0.00    +0.034 A 
ATOM     11  C   UNL     1      12.182  -0.329  -7.623  0.00  0.00    +0.026 A 
ATOM     12  C   UNL     1      11.194  -0.211  -6.654  0.00  0.00    +0.042 A 
BRANCH  12  13
ATOM     13  N   UNL     1      11.533   0.113  -5.347  0.00  0.00    -0.325 N 
ATOM     14  C   UNL     1      11.850  -0.936  -4.365  0.00  0.00    +0.133 C 
ATOM     15  C   UNL     1      13.181  -0.582  -3.692  0.00  0.00    +0.178 C 
ATOM     16  O   UNL     1      13.114   0.756  -3.193  0.00  0.00    -0.377 OA
ATOM     17  C   UNL     1      12.930   1.750  -4.204  0.00  0.00    +0.178 C 
ATOM     18  C   UNL     1      11.591   1.515  -4.905  0.00  0.00    +0.133 C 
ENDBRANCH  12  13
BRANCH   9  19
ATOM     19  N   UNL     1      10.167  -1.190 -10.669  0.00  0.00    +0.056 N 
ATOM     20  O   UNL     1       9.012  -1.371 -10.976  0.00  0.00    -0.126 OA
ATOM     21  O   UNL     1      11.036  -1.284 -11.504  0.00  0.00    -0.126 OA
ENDBRANCH   9  19
ENDBRANCH   4   7
ENDBRANCH   1   3
BRANCH   1  22
ATOM     22  N   UNL     1       5.250  -0.621  -5.728  0.00  0.00    -0.290 N 
ATOM     23  H   UNL     1       5.019  -0.846  -6.643  0.00  0.00    +0.154 HD
BRANCH  22  30
ATOM     24  C   UNL     1       0.718  -0.497  -1.257  0.00  0.00    -0.000 C 
ATOM     25  C   UNL     1      -0.017   0.013  -2.499  0.00  0.00    +0.009 C 
ATOM     26  C   UNL     1       0.537  -0.670  -3.751  0.00  0.00    +0.037 C 
ATOM     27  C   UNL     1       2.051  -0.516  -3.760  0.00  0.00    -0.018 A 
ATOM     28  C   UNL     1       2.731  -0.199  -2.636  0.00  0.00    -0.004 A 
ATOM     29  S   UNL     1       4.425  -0.135  -3.141  0.00  0.00    -0.077 S 
ATOM     30  C   UNL     1       4.254  -0.512  -4.768  0.00  0.00    +0.089 A 
ATOM     31  C   UNL     1       2.890  -0.689  -4.933  0.00  0.00    +0.084 A 
ATOM     32  C   UNL     1       2.158   0.038  -1.273  0.00  0.00    +0.047 C 
BRANCH  24  34
ATOM     33  C   UNL     1      -0.019   1.526   0.010  0.00  0.00    +0.011 C 
ATOM     34  C   UNL     1       0.002  -0.004   0.002  0.00  0.00    -0.035 C 
ATOM     35  C   UNL     1       0.742  -0.511   1.242  0.00  0.00    +0.011 C 
ATOM     36  C   UNL     1      -1.433  -0.534   0.013  0.00  0.00    +0.011 C 
ENDBRANCH  24  34
BRANCH  31  37
ATOM     37  C   UNL     1       2.330  -1.028  -6.206  0.00  0.00    +0.102 C 
ATOM     38  N   UNL     1       1.886  -1.297  -7.217  0.00  0.00    -0.191 NA
ENDBRANCH  31  37
ENDBRANCH  22  30
ENDBRANCH   1  22
TORSDOF 8
