REMARK  Name = ZINC38009132
REMARK  4 active torsions:
REMARK  status: ('A' for Active; 'I' for Inactive)
REMARK    1  A    between atoms: C_4  and  N_22
REMARK    2  A    between atoms: C_6  and  S_7
REMARK    3  A    between atoms: S_7  and  N_10
REMARK    4  A    between atoms: N_22  and  N_23
REMARK                            x       y       z     vdW  Elec       q    Type
REMARK                         _______ _______ _______ _____ _____    ______ ____
ROOT
ATOM      1  S   UNL     1      -1.500  -0.925   0.012  0.00  0.00    +0.061 S 
ATOM      2  O   UNL     1      -1.189  -2.202   0.553  0.00  0.00    -0.153 OA
ATOM      3  O   UNL     1      -2.492  -0.079   0.577  0.00  0.00    -0.153 OA
ENDROOT
BRANCH   1   4
ATOM      4  N   UNL     1      -1.933  -1.173  -1.567  0.00  0.00    -0.176 NA
ATOM      5  C   UNL     1      -2.785  -0.205  -2.271  0.00  0.00    +0.110 C 
ATOM      6  C   UNL     1      -3.988  -0.946  -2.862  0.00  0.00    +0.021 C 
ATOM      7  C   UNL     1      -3.493  -2.098  -3.741  0.00  0.00    -0.005 C 
ATOM      8  C   UNL     1      -4.697  -2.824  -4.346  0.00  0.00    +0.004 C 
ATOM      9  C   UNL     1      -5.584  -3.360  -3.220  0.00  0.00    +0.000 C 
ATOM     10  C   UNL     1      -4.781  -4.337  -2.358  0.00  0.00    +0.000 C 
ATOM     11  C   UNL     1      -3.572  -3.615  -1.759  0.00  0.00    +0.005 C 
ATOM     12  C   UNL     1      -2.682  -3.077  -2.889  0.00  0.00    +0.008 C 
ATOM     13  C   UNL     1      -1.468  -2.362  -2.294  0.00  0.00    +0.113 C 
ENDBRANCH   1   4
BRANCH   1  19
ATOM     14  C   UNL     1      -0.017   1.384   0.010  0.00  0.00    +0.048 A 
ATOM     15  C   UNL     1       1.178   2.077   0.002  0.00  0.00    +0.115 A 
ATOM     16  N   UNL     1       2.331   1.436  -0.013  0.00  0.00    -0.239 NA
ATOM     17  C   UNL     1       2.391   0.113  -0.020  0.00  0.00    +0.134 A 
ATOM     18  C   UNL     1       1.227  -0.648  -0.014  0.00  0.00    +0.073 A 
ATOM     19  C   UNL     1       0.002  -0.004   0.002  0.00  0.00    +0.110 A 
BRANCH  17  20
ATOM     20  N   UNL     1       3.628  -0.520  -0.035  0.00  0.00    -0.267 N 
ATOM     21  H   UNL     1       3.677  -1.489  -0.041  0.00  0.00    +0.167 HD
BRANCH  20  22
ATOM     22  N   UNL     1       4.775   0.221  -0.042  0.00  0.00    -0.255 NA
ATOM     23  H   UNL     1       5.590  -0.373  -0.053  0.00  0.00    +0.140 HD
ATOM     24  H   UNL     1       4.786   0.864  -0.820  0.00  0.00    +0.140 HD
ENDBRANCH  20  22
ENDBRANCH  17  20
ENDBRANCH   1  19
TORSDOF 4
