REMARK  Name = ZINC02414324
REMARK  8 active torsions:
REMARK  status: ('A' for Active; 'I' for Inactive)
REMARK    1  A    between atoms: C_1  and  C_2
REMARK    2  A    between atoms: C_2  and  C_3
REMARK    3  A    between atoms: C_2  and  C_4
REMARK    4  A    between atoms: C_2  and  C_5
REMARK    5  A    between atoms: C_12  and  N_25
REMARK    6  A    between atoms: C_13  and  C_14
REMARK    7  A    between atoms: N_16  and  C_17
REMARK    8  A    between atoms: C_26  and  C_28
REMARK                            x       y       z     vdW  Elec       q    Type
REMARK                         _______ _______ _______ _____ _____    ______ ____
ROOT
ATOM      1  C   UNL     1       0.382  -2.403  -3.523  0.00  0.00    -0.000 C 
ATOM      2  C   UNL     1      -0.474  -1.140  -3.650  0.00  0.00    +0.009 C 
ATOM      3  C   UNL     1      -0.022  -0.101  -2.622  0.00  0.00    +0.037 C 
ATOM      4  C   UNL     1      -0.005  -0.751  -1.244  0.00  0.00    -0.023 A 
ATOM      5  C   UNL     1       0.021  -2.095  -1.110  0.00  0.00    -0.004 A 
ATOM      6  S   UNL     1       0.040  -2.374   0.638  0.00  0.00    -0.077 S 
ATOM      7  C   UNL     1       0.023  -0.730   1.185  0.00  0.00    +0.085 A 
ATOM      8  C   UNL     1       0.002  -0.004   0.002  0.00  0.00    +0.069 A 
ATOM      9  C   UNL     1       0.026  -3.112  -2.208  0.00  0.00    +0.046 C 
ENDROOT
BRANCH   1  11
ATOM     10  C   UNL     1      -1.387  -3.708  -4.711  0.00  0.00    +0.011 C 
ATOM     11  C   UNL     1       0.097  -3.336  -4.702  0.00  0.00    -0.035 C 
ATOM     12  C   UNL     1       0.453  -2.627  -6.011  0.00  0.00    +0.011 C 
ATOM     13  C   UNL     1       0.941  -4.605  -4.564  0.00  0.00    +0.011 C 
ENDBRANCH   1  11
BRANCH   8  14
ATOM     14  C   UNL     1      -0.018   1.462   0.010  0.00  0.00    +0.247 C 
ATOM     15  O   UNL     1       1.028   2.084   0.003  0.00  0.00    -0.270 OA
ATOM     16  N   UNL     1      -1.194   2.120   0.019  0.00  0.00    -0.307 N 
ATOM     17  H   UNL     1      -2.027   1.623   0.021  0.00  0.00    +0.149 HD
BRANCH  16  18
ATOM     18  C   UNL     1      -1.214   3.584   0.027  0.00  0.00    +0.096 C 
ATOM     19  C   UNL     1      -1.121   4.097   1.474  0.00  0.00    +0.046 C 
ATOM     20  C   UNL     1      -1.461   5.606   1.522  0.00  0.00    +0.168 C 
ATOM     21  S   UNL     1      -2.593   5.811   0.087  0.00  0.00    -0.029 S 
ATOM     22  O   UNL     1      -1.992   6.689  -0.854  0.00  0.00    -0.174 OA
ATOM     23  O   UNL     1      -3.901   6.088   0.567  0.00  0.00    -0.174 OA
ATOM     24  C   UNL     1      -2.551   4.095  -0.582  0.00  0.00    +0.188 C 
ENDBRANCH  16  18
ENDBRANCH   8  14
BRANCH   7  25
ATOM     25  N   UNL     1       0.027  -0.256   2.486  0.00  0.00    -0.273 N 
ATOM     26  C   UNL     1       0.049  -1.122   3.519  0.00  0.00    +0.284 C 
ATOM     27  O   UNL     1       0.064  -2.320   3.308  0.00  0.00    -0.266 OA
ATOM     28  H   UNL     1       0.015   0.699   2.654  0.00  0.00    +0.156 HD
BRANCH  26  29
ATOM     29  C   UNL     1       0.054  -0.620   4.896  0.00  0.00    +0.189 A 
ATOM     30  C   UNL     1       0.069  -1.383   6.029  0.00  0.00    +0.054 A 
ATOM     31  C   UNL     1       0.070  -0.494   7.115  0.00  0.00    +0.042 A 
ATOM     32  C   UNL     1       0.048   0.757   6.604  0.00  0.00    +0.196 A 
ATOM     33  O   UNL     1       0.038   0.677   5.267  0.00  0.00    -0.458 OA
ENDBRANCH  26  29
ENDBRANCH   7  25
TORSDOF 5
