REMARK  Name = ZINC39029782
REMARK  6 active torsions:
REMARK  status: ('A' for Active; 'I' for Inactive)
REMARK    1  A    between atoms: C_5  and  C_7
REMARK    2  A    between atoms: C_7  and  S_8
REMARK    3  A    between atoms: S_8  and  C_9
REMARK    4  A    between atoms: C_14  and  C_15
REMARK    5  A    between atoms: N_20  and  C_21
REMARK    6  A    between atoms: N_23  and  C_24
REMARK                            x       y       z     vdW  Elec       q    Type
REMARK                         _______ _______ _______ _____ _____    ______ ____
ROOT
ATOM      1  C   UNL     1       1.289  -4.774   3.988  0.00  0.00    +0.194 C 
ATOM      2  N   UNL     1       1.565  -5.791   5.030  0.00  0.00    -0.289 N 
ATOM      3  N   UNL     1       0.716  -6.006   5.865  0.00  0.00    -0.153 NA
ATOM      4  C   UNL     1      -0.504  -5.368   5.923  0.00  0.00    +0.203 C 
ATOM      5  N   UNL     1      -1.489  -5.530   6.787  0.00  0.00    -0.136 NA
ATOM      6  S   UNL     1      -0.402  -4.260   4.517  0.00  0.00    -0.056 S 
ATOM      7  H   UNL     1       2.406  -6.274   5.041  0.00  0.00    +0.184 HD
ENDROOT
BRANCH   1  13
ATOM      8  C   UNL     1       1.252  -4.568   1.487  0.00  0.00    +0.014 A 
ATOM      9  C   UNL     1       1.245  -5.136   0.219  0.00  0.00    +0.015 A 
ATOM     10  C   UNL     1       1.253  -6.509   0.080  0.00  0.00    +0.001 A 
ATOM     11  C   UNL     1       1.268  -7.320   1.200  0.00  0.00    +0.000 A 
ATOM     12  C   UNL     1       1.276  -6.758   2.464  0.00  0.00    +0.007 A 
ATOM     13  C   UNL     1       1.274  -5.385   2.611  0.00  0.00    -0.000 A 
BRANCH   8  14
ATOM     14  S   UNL     1       1.242  -2.815   1.670  0.00  0.00    -0.120 S 
BRANCH  14  15
ATOM     15  C   UNL     1       1.214  -2.196  -0.035  0.00  0.00    +0.112 C 
BRANCH  15  20
ATOM     16  C   UNL     1      -0.009   1.375   0.011  0.00  0.00    +0.000 A 
ATOM     17  C   UNL     1       1.182   2.077   0.000  0.00  0.00    +0.003 A 
ATOM     18  C   UNL     1       2.385   1.397  -0.022  0.00  0.00    +0.038 A 
ATOM     19  C   UNL     1       2.396   0.012  -0.033  0.00  0.00    +0.127 A 
ATOM     20  C   UNL     1       1.203  -0.689  -0.022  0.00  0.00    -0.002 A 
ATOM     21  C   UNL     1       0.001  -0.007  -0.000  0.00  0.00    +0.007 A 
ATOM     22  F   UNL     1       3.572  -0.654  -0.055  0.00  0.00    -0.205 F 
ENDBRANCH  15  20
ENDBRANCH  14  15
ENDBRANCH   8  14
ENDBRANCH   1  13
BRANCH   5  23
ATOM     23  C   UNL     1      -2.612  -4.801   6.670  0.00  0.00    +0.330 C 
ATOM     24  O   UNL     1      -2.721  -3.992   5.767  0.00  0.00    -0.250 OA
ATOM     25  N   UNL     1      -3.618  -4.967   7.552  0.00  0.00    -0.266 N 
ATOM     26  H   UNL     1      -3.558  -5.656   8.232  0.00  0.00    +0.156 HD
BRANCH  25  27
ATOM     27  C   UNL     1      -4.747  -4.144   7.488  0.00  0.00    +0.053 A 
ATOM     28  C   UNL     1      -5.218  -3.704   6.258  0.00  0.00    +0.026 A 
ATOM     29  C   UNL     1      -6.333  -2.891   6.197  0.00  0.00    +0.022 A 
ATOM     30  C   UNL     1      -6.982  -2.515   7.360  0.00  0.00    +0.042 A 
ATOM     31  C   UNL     1      -6.516  -2.951   8.587  0.00  0.00    +0.041 A 
ATOM     32  C   UNL     1      -5.404  -3.769   8.654  0.00  0.00    +0.064 A 
ATOM     33 CL   UNL     1      -4.824  -4.323  10.194  0.00  0.00    -0.082 Cl
ATOM     34 CL   UNL     1      -8.384  -1.494   7.279  0.00  0.00    -0.083 Cl
ENDBRANCH  25  27
ENDBRANCH   5  23
TORSDOF 6
