REMARK  Name = ZINC32811617
REMARK  7 active torsions:
REMARK  status: ('A' for Active; 'I' for Inactive)
REMARK    1  A    between atoms: C_1  and  C_2
REMARK    2  A    between atoms: C_8  and  N_10
REMARK    3  A    between atoms: C_14  and  C_16
REMARK    4  A    between atoms: C_16  and  N_17
REMARK    5  A    between atoms: N_20  and  S_23
REMARK    6  A    between atoms: S_23  and  C_26
REMARK    7  A    between atoms: C_29  and  C_32
REMARK                            x       y       z     vdW  Elec       q    Type
REMARK                         _______ _______ _______ _____ _____    ______ ____
ROOT
ATOM      1  N   UNL     1      -0.724   1.573  -1.181  0.00  0.00    +0.387 N 
ATOM      2  C   UNL     1      -0.013   1.086   0.008  0.00  0.00    -0.061 C 
ATOM      3  C   UNL     1      -0.731   1.581   1.268  0.00  0.00    +0.091 C 
ATOM      4  N   UNL     1      -0.872   3.042   1.182  0.00  0.00    -0.180 NA
ATOM      5  C   UNL     1      -1.452   3.615  -0.042  0.00  0.00    +0.091 C 
ATOM      6  C   UNL     1      -0.705   3.040  -1.250  0.00  0.00    -0.061 C 
ATOM      7  H   UNL     1      -1.774   1.256  -1.096  0.00  0.00    -0.081 HD
ENDROOT
BRANCH   4   8
ATOM      8  S   UNL     1      -0.390   4.017   2.431  0.00  0.00    +0.061 S 
ATOM      9  O   UNL     1       0.587   3.288   3.162  0.00  0.00    -0.153 OA
ATOM     10  O   UNL     1      -0.125   5.295   1.870  0.00  0.00    -0.153 OA
BRANCH   8  11
ATOM     11  C   UNL     1      -1.776   4.215   3.502  0.00  0.00    +0.105 A 
ATOM     12  C   UNL     1      -2.658   5.261   3.304  0.00  0.00    +0.029 A 
ATOM     13  C   UNL     1      -3.747   5.413   4.141  0.00  0.00    +0.014 A 
ATOM     14  C   UNL     1      -3.949   4.526   5.182  0.00  0.00    +0.055 A 
ATOM     15  C   UNL     1      -3.064   3.483   5.382  0.00  0.00    +0.014 A 
ATOM     16  C   UNL     1      -1.977   3.328   4.542  0.00  0.00    +0.029 A 
BRANCH  14  17
ATOM     17  C   UNL     1      -5.134   4.695   6.097  0.00  0.00    +0.417 C 
ATOM     18  F   UNL     1      -4.778   5.513   7.175  0.00  0.00    -0.166 F 
ATOM     19  F   UNL     1      -6.188   5.285   5.392  0.00  0.00    -0.166 F 
ATOM     20  F   UNL     1      -5.536   3.443   6.576  0.00  0.00    -0.166 F 
ENDBRANCH  14  17
ENDBRANCH   8  11
ENDBRANCH   4   8
BRANCH   1  21
ATOM     21  C   UNL     1      -0.170   0.981  -2.406  0.00  0.00    +0.019 C 
BRANCH  21  26
ATOM     22  N   UNL     1      -1.248   0.708  -7.083  0.00  0.00    -0.296 N 
ATOM     23  C   UNL     1      -1.560   1.151  -5.849  0.00  0.00    +0.306 C 
ATOM     24  O   UNL     1      -2.565   1.811  -5.676  0.00  0.00    -0.252 OA
ATOM     25  N   UNL     1      -0.756   0.862  -4.806  0.00  0.00    -0.242 N 
ATOM     26  C   UNL     1      -1.068   1.304  -3.572  0.00  0.00    +0.204 C 
ATOM     27  O   UNL     1      -2.071   1.963  -3.400  0.00  0.00    -0.277 OA
ATOM     28  H   UNL     1      -0.338   0.111  -7.239  0.00  0.00    +0.151 HD
ATOM     29  H   UNL     1       0.154   0.264  -4.962  0.00  0.00    +0.159 HD
BRANCH  22  36
ATOM     30  C   UNL     1      -0.180   2.014  -9.437  0.00  0.00    +0.009 C 
ATOM     31  C   UNL     1      -1.308   0.984  -9.512  0.00  0.00    +0.006 C 
ATOM     32  C   UNL     1      -0.713  -0.412  -9.700  0.00  0.00    +0.005 C 
ATOM     33  C   UNL     1      -1.842  -1.442  -9.775  0.00  0.00    +0.000 C 
ATOM     34  C   UNL     1      -2.654  -1.404  -8.479  0.00  0.00    +0.002 C 
ATOM     35  C   UNL     1      -3.250  -0.007  -8.291  0.00  0.00    +0.022 C 
ATOM     36  C   UNL     1      -2.121   1.023  -8.216  0.00  0.00    +0.077 C 
ENDBRANCH  22  36
ENDBRANCH  21  26
ENDBRANCH   1  21
TORSDOF 6
