REMARK  Name = ZINC21000865
REMARK  8 active torsions:
REMARK  status: ('A' for Active; 'I' for Inactive)
REMARK    1  A    between atoms: C_1  and  C_2
REMARK    2  A    between atoms: C_2  and  C_3
REMARK    3  A    between atoms: N_9  and  S_10
REMARK    4  A    between atoms: S_10  and  C_13
REMARK    5  A    between atoms: C_16  and  C_19
REMARK    6  A    between atoms: N_21  and  C_22
REMARK    7  A    between atoms: C_23  and  C_33
REMARK    8  A    between atoms: C_25  and  C_27
REMARK                            x       y       z     vdW  Elec       q    Type
REMARK                         _______ _______ _______ _____ _____    ______ ____
ROOT
ATOM      1  C   UNL     1       8.727   2.486  -0.627  0.00  0.00    +0.249 C 
ATOM      2  O   UNL     1       9.011   3.449  -1.312  0.00  0.00    -0.270 OA
ATOM      3  N   UNL     1       9.614   1.482  -0.475  0.00  0.00    -0.275 N 
ATOM      4  H   UNL     1       9.357   0.611   0.145  0.00  0.00    +0.156 HD
ENDROOT
BRANCH   1   8
ATOM      5  C   UNL     1       4.941   2.284   1.286  0.00  0.00    +0.106 A 
ATOM      6  C   UNL     1       5.851   1.254   1.449  0.00  0.00    +0.029 A 
ATOM      7  C   UNL     1       7.080   1.311   0.826  0.00  0.00    +0.015 A 
ATOM      8  C   UNL     1       7.410   2.416   0.039  0.00  0.00    +0.037 A 
ATOM      9  C   UNL     1       6.489   3.454  -0.116  0.00  0.00    +0.015 A 
ATOM     10  C   UNL     1       5.261   3.382   0.508  0.00  0.00    +0.029 A 
BRANCH   5  11
ATOM     11  S   UNL     1       3.370   2.200   2.080  0.00  0.00    +0.061 S 
ATOM     12  O   UNL     1       2.840   3.518   2.072  0.00  0.00    -0.153 OA
ATOM     13  O   UNL     1       3.561   1.463   3.280  0.00  0.00    -0.153 OA
BRANCH  11  19
ATOM     14  C   UNL     1       1.706   1.885  -0.043  0.00  0.00    +0.080 C 
ATOM     15  C   UNL     1       0.204   1.601   0.062  0.00  0.00    +0.021 C 
ATOM     16  C   UNL     1      -0.017   0.093   0.209  0.00  0.00    +0.003 C 
ATOM     17  C   UNL     1       0.658  -0.400   1.490  0.00  0.00    +0.017 C 
ATOM     18  C   UNL     1       2.165  -0.139   1.402  0.00  0.00    +0.110 C 
ATOM     19  N   UNL     1       2.382   1.286   1.116  0.00  0.00    -0.174 NA
BRANCH  14  21
ATOM     20  C   UNL     1       1.417   3.988  -1.360  0.00  0.00    +0.005 C 
ATOM     21  C   UNL     1       1.942   3.396  -0.051  0.00  0.00    +0.017 C 
ENDBRANCH  14  21
ENDBRANCH  11  19
ENDBRANCH   5  11
ENDBRANCH   1   8
BRANCH   3  22
ATOM     22  C   UNL     1      10.847   1.548  -1.099  0.00  0.00    +0.085 A 
ATOM     23  C   UNL     1      11.888   0.622  -1.065  0.00  0.00    +0.066 A 
ATOM     24  C   UNL     1      13.044   0.921  -1.785  0.00  0.00    +0.031 A 
ATOM     25  C   UNL     1      13.076   2.096  -2.471  0.00  0.00    +0.022 A 
ATOM     26  S   UNL     1      11.475   2.799  -2.121  0.00  0.00    -0.073 S 
BRANCH  25  27
ATOM     27  C   UNL     1      14.164   2.649  -3.304  0.00  0.00    -0.011 A 
ATOM     28  C   UNL     1      15.357   1.941  -3.460  0.00  0.00    +0.009 A 
ATOM     29  C   UNL     1      16.366   2.460  -4.245  0.00  0.00    +0.001 A 
ATOM     30  C   UNL     1      16.203   3.685  -4.866  0.00  0.00    +0.000 A 
ATOM     31  C   UNL     1      15.025   4.395  -4.711  0.00  0.00    +0.001 A 
ATOM     32  C   UNL     1      14.006   3.885  -3.934  0.00  0.00    +0.009 A 
ENDBRANCH  25  27
BRANCH  23  33
ATOM     33  C   UNL     1      11.772  -0.623  -0.298  0.00  0.00    +0.244 C 
ATOM     34  O   UNL     1      10.753  -0.862   0.324  0.00  0.00    -0.270 OA
ATOM     35  N   UNL     1      12.793  -1.502  -0.281  0.00  0.00    -0.325 N 
ATOM     36  H   UNL     1      12.706  -2.436   0.294  0.00  0.00    +0.145 HD
ATOM     37  H   UNL     1      13.714  -1.286  -0.843  0.00  0.00    +0.145 HD
ENDBRANCH  23  33
ENDBRANCH   3  22
TORSDOF 7
