REMARK  Name = ZINC00906896
REMARK  13 active torsions:
REMARK  status: ('A' for Active; 'I' for Inactive)
REMARK    1  A    between atoms: C_1  and  C_2
REMARK    2  A    between atoms: C_5  and  S_8
REMARK    3  A    between atoms: S_8  and  N_11
REMARK    4  A    between atoms: N_11  and  C_12
REMARK    5  A    between atoms: C_15  and  C_18
REMARK    6  A    between atoms: C_21  and  S_31
REMARK    7  A    between atoms: N_22  and  C_23
REMARK    8  A    between atoms: C_26  and  O_29
REMARK    9  A    between atoms: O_29  and  C_30
REMARK   10  A    between atoms: S_31  and  C_32
REMARK   11  A    between atoms: C_32  and  C_33
REMARK   12  A    between atoms: N_35  and  C_36
REMARK   13  A    between atoms: C_40  and  C_42
REMARK                            x       y       z     vdW  Elec       q    Type
REMARK                         _______ _______ _______ _____ _____    ______ ____
ROOT
ATOM      1  C   UNL     1       2.356  12.072   1.219  0.00  0.00    +0.169 A 
ATOM      2  N   UNL     1       1.067  11.821   1.261  0.00  0.00    -0.128 NA
ATOM      3  N   UNL     1       0.866  10.552   1.261  0.00  0.00    -0.122 NA
ATOM      4  C   UNL     1       2.013   9.912   1.219  0.00  0.00    +0.197 A 
ATOM      5  N   UNL     1       3.003  10.856   1.196  0.00  0.00    -0.270 N 
ENDROOT
BRANCH   1   9
ATOM      6  C   UNL     1       4.183  15.908   1.177  0.00  0.00    +0.048 A 
ATOM      7  C   UNL     1       2.845  15.780   1.534  0.00  0.00    +0.025 A 
ATOM      8  C   UNL     1       2.250  14.538   1.548  0.00  0.00    +0.013 A 
ATOM      9  C   UNL     1       2.991  13.406   1.204  0.00  0.00    +0.020 A 
ATOM     10  C   UNL     1       4.336  13.537   0.852  0.00  0.00    +0.013 A 
ATOM     11  C   UNL     1       4.924  14.783   0.834  0.00  0.00    +0.025 A 
BRANCH   6  12
ATOM     12  N   UNL     1       4.783  17.168   1.164  0.00  0.00    -0.216 N 
ATOM     13  H   UNL     1       4.323  17.920   0.760  0.00  0.00    +0.174 HD
BRANCH  12  14
ATOM     14  S   UNL     1       6.282  17.378   1.837  0.00  0.00    +0.072 S 
ATOM     15  O   UNL     1       7.122  16.377   1.280  0.00  0.00    -0.150 OA
ATOM     16  O   UNL     1       6.580  18.764   1.738  0.00  0.00    -0.150 OA
BRANCH  14  21
ATOM     17  C   UNL     1       5.785  16.136   7.720  0.00  0.00    +0.044 C 
ATOM     18  C   UNL     1       5.909  16.446   6.251  0.00  0.00    -0.050 A 
ATOM     19  C   UNL     1       6.334  15.468   5.371  0.00  0.00    +0.005 A 
ATOM     20  C   UNL     1       6.448  15.753   4.023  0.00  0.00    +0.029 A 
ATOM     21  C   UNL     1       6.136  17.015   3.555  0.00  0.00    +0.109 A 
ATOM     22  C   UNL     1       5.717  17.995   4.435  0.00  0.00    +0.029 A 
ATOM     23  C   UNL     1       5.599  17.709   5.782  0.00  0.00    +0.005 A 
ENDBRANCH  14  21
ENDBRANCH  12  14
ENDBRANCH   6  12
ENDBRANCH   1   9
BRANCH   5  24
ATOM     24  C   UNL     1       4.388  10.633   1.156  0.00  0.00    +0.051 A 
ATOM     25  C   UNL     1       5.185  11.022   2.223  0.00  0.00    +0.030 A 
ATOM     26  C   UNL     1       6.547  10.796   2.186  0.00  0.00    +0.047 A 
ATOM     27  C   UNL     1       7.120  10.191   1.077  0.00  0.00    +0.120 A 
ATOM     28  C   UNL     1       6.324   9.807   0.007  0.00  0.00    +0.047 A 
ATOM     29  C   UNL     1       4.961  10.027   0.047  0.00  0.00    +0.030 A 
BRANCH  27  30
ATOM     30  O   UNL     1       8.461   9.974   1.038  0.00  0.00    -0.495 OA
ATOM     31  C   UNL     1       9.220  10.395   2.174  0.00  0.00    +0.277 C 
ENDBRANCH  27  30
ENDBRANCH   5  24
BRANCH   4  32
ATOM     32  S   UNL     1       2.234   8.164   1.204  0.00  0.00    -0.076 S 
BRANCH  32  33
ATOM     33  C   UNL     1       0.506   7.628   1.258  0.00  0.00    +0.173 C 
BRANCH  33  34
ATOM     34  C   UNL     1       0.447   6.122   1.253  0.00  0.00    +0.227 C 
ATOM     35  O   UNL     1       1.473   5.475   1.216  0.00  0.00    -0.275 OA
ATOM     36  N   UNL     1      -0.745   5.494   1.290  0.00  0.00    -0.285 N 
ATOM     37  H   UNL     1      -1.566   6.009   1.244  0.00  0.00    +0.155 HD
BRANCH  36  38
ATOM     38  C   UNL     1      -0.798   4.100   1.395  0.00  0.00    +0.034 A 
ATOM     39  C   UNL     1       0.174   3.418   2.115  0.00  0.00    +0.023 A 
ATOM     40  C   UNL     1       0.118   2.042   2.217  0.00  0.00    +0.002 A 
ATOM     41  C   UNL     1      -0.904   1.343   1.602  0.00  0.00    +0.003 A 
ATOM     42  C   UNL     1      -1.870   2.018   0.879  0.00  0.00    -0.049 A 
ATOM     43  C   UNL     1      -1.823   3.395   0.778  0.00  0.00    +0.026 A 
ATOM     44  C   UNL     1      -2.979   1.251   0.206  0.00  0.00    +0.044 C 
ENDBRANCH  36  38
ENDBRANCH  33  34
ENDBRANCH  32  33
ENDBRANCH   4  32
TORSDOF 10
