REMARK  Name = ZINC14585737
REMARK  7 active torsions:
REMARK  status: ('A' for Active; 'I' for Inactive)
REMARK    1  A    between atoms: C_1  and  O_2
REMARK    2  A    between atoms: O_2  and  C_3
REMARK    3  A    between atoms: C_6  and  C_18
REMARK    4  A    between atoms: C_8  and  S_9
REMARK    5  A    between atoms: S_9  and  N_12
REMARK    6  A    between atoms: N_12  and  C_13
REMARK    7  A    between atoms: C_23  and  C_26
REMARK                            x       y       z     vdW  Elec       q    Type
REMARK                         _______ _______ _______ _____ _____    ______ ____
ROOT
ATOM      1  C   UNL     1      -1.973   1.164   1.348  0.00  0.00    +0.146 A 
ATOM      2  C   UNL     1      -2.586   0.363   0.391  0.00  0.00    +0.048 A 
ATOM      3  C   UNL     1      -3.894  -0.032   0.556  0.00  0.00    +0.017 A 
ATOM      4  C   UNL     1      -4.610   0.382   1.683  0.00  0.00    +0.039 A 
ATOM      5  C   UNL     1      -3.992   1.191   2.640  0.00  0.00    +0.045 A 
ATOM      6  C   UNL     1      -2.681   1.577   2.470  0.00  0.00    +0.147 A 
ENDROOT
BRANCH   4   7
ATOM      7  C   UNL     1      -6.015  -0.034   1.861  0.00  0.00    +0.250 C 
ATOM      8  O   UNL     1      -6.636   0.328   2.842  0.00  0.00    -0.270 OA
ATOM      9  N   UNL     1      -6.609  -0.814   0.937  0.00  0.00    -0.261 N 
ATOM     10  C   UNL     1      -7.931  -1.205   1.104  0.00  0.00    +0.165 A 
ATOM     11  N   UNL     1      -8.684  -1.958   0.324  0.00  0.00    -0.225 NA
ATOM     12  C   UNL     1      -9.940  -2.234   0.641  0.00  0.00    +0.080 A 
ATOM     13  C   UNL     1     -10.467  -1.731   1.798  0.00  0.00    +0.076 A 
ATOM     14  S   UNL     1      -9.061  -0.830   2.437  0.00  0.00    -0.060 S 
ATOM     15  H   UNL     1      -6.113  -1.102   0.154  0.00  0.00    +0.157 HD
BRANCH  12  16
ATOM     16  C   UNL     1     -10.768  -3.082  -0.252  0.00  0.00    +0.004 A 
ATOM     17  C   UNL     1     -10.227  -3.592  -1.430  0.00  0.00    +0.013 A 
ATOM     18  C   UNL     1     -11.000  -4.381  -2.258  0.00  0.00    +0.042 A 
ATOM     19  C   UNL     1     -12.312  -4.665  -1.921  0.00  0.00    +0.158 A 
ATOM     20  C   UNL     1     -12.857  -4.159  -0.749  0.00  0.00    +0.159 A 
ATOM     21  C   UNL     1     -12.088  -3.374   0.089  0.00  0.00    +0.051 A 
ATOM     22  F   UNL     1     -14.138  -4.439  -0.424  0.00  0.00    -0.202 F 
ATOM     23  F   UNL     1     -13.065  -5.437  -2.735  0.00  0.00    -0.202 F 
ENDBRANCH  12  16
ENDBRANCH   4   7
BRANCH   6  24
ATOM     24  S   UNL     1      -1.901   2.598   3.676  0.00  0.00    +0.062 S 
ATOM     25  O   UNL     1      -1.278   3.660   2.967  0.00  0.00    -0.153 OA
ATOM     26  O   UNL     1      -2.861   2.824   4.699  0.00  0.00    -0.153 OA
BRANCH  24  27
ATOM     27  N   UNL     1      -0.684   1.706   4.358  0.00  0.00    -0.187 NA
ATOM     28  H   UNL     1      -0.728   1.464   5.297  0.00  0.00    +0.148 HD
BRANCH  27  29
ATOM     29  C   UNL     1       0.459   1.283   3.545  0.00  0.00    +0.077 C 
ATOM     30  C   UNL     1       0.257  -0.169   3.064  0.00  0.00    +0.020 C 
ATOM     31  C   UNL     1       1.676  -0.788   3.119  0.00  0.00    +0.002 C 
ATOM     32  C   UNL     1       2.275  -0.157   4.400  0.00  0.00    +0.002 C 
ATOM     33  C   UNL     1       1.742   1.290   4.394  0.00  0.00    +0.020 C 
ENDBRANCH  27  29
ENDBRANCH  24  27
ENDBRANCH   6  24
BRANCH   1  35
ATOM     34  C   UNL     1      -0.013   1.086   0.008  0.00  0.00    +0.277 C 
ATOM     35  O   UNL     1      -0.682   1.547   1.184  0.00  0.00    -0.493 OA
ENDBRANCH   1  35
TORSDOF 6
