REMARK  Name = ZINC34971878
REMARK  15 active torsions:
REMARK  status: ('A' for Active; 'I' for Inactive)
REMARK    1  A    between atoms: C_1  and  O_2
REMARK    2  A    between atoms: O_2  and  C_3
REMARK    3  A    between atoms: C_6  and  C_11
REMARK    4  A    between atoms: C_8  and  O_9
REMARK    5  A    between atoms: O_9  and  C_10
REMARK    6  A    between atoms: C_11  and  N_12
REMARK    7  A    between atoms: N_12  and  C_13
REMARK    8  A    between atoms: C_13  and  C_14
REMARK    9  A    between atoms: C_14  and  C_15
REMARK   10  A    between atoms: C_15  and  C_16
REMARK   11  A    between atoms: C_16  and  C_17
REMARK   12  A    between atoms: C_17  and  C_18
REMARK   13  A    between atoms: C_18  and  N_19
REMARK   14  A    between atoms: N_28  and  C_29
REMARK   15  A    between atoms: C_33  and  C_35
REMARK                            x       y       z     vdW  Elec       q    Type
REMARK                         _______ _______ _______ _____ _____    ______ ____
ROOT
ATOM      1  N   UNL     1      -5.572  -2.920  -1.303  0.00  0.00    -0.281 N 
ATOM      2  C   UNL     1      -6.321  -1.983  -1.917  0.00  0.00    +0.307 C 
ATOM      3  O   UNL     1      -6.825  -2.220  -2.998  0.00  0.00    -0.252 OA
ATOM      4  N   UNL     1      -6.512  -0.784  -1.333  0.00  0.00    -0.269 N 
ATOM      5  H   UNL     1      -6.176  -0.621  -0.438  0.00  0.00    +0.156 HD
ENDROOT
BRANCH   4   6
ATOM      6  C   UNL     1      -7.196   0.227  -2.018  0.00  0.00    +0.035 A 
ATOM      7  C   UNL     1      -7.982   1.133  -1.318  0.00  0.00    +0.023 A 
ATOM      8  C   UNL     1      -8.655   2.130  -1.997  0.00  0.00    +0.002 A 
ATOM      9  C   UNL     1      -8.546   2.227  -3.373  0.00  0.00    +0.012 A 
ATOM     10  C   UNL     1      -7.764   1.326  -4.072  0.00  0.00    +0.057 A 
ATOM     11  C   UNL     1      -7.084   0.331  -3.398  0.00  0.00    +0.035 A 
BRANCH  10  12
ATOM     12  C   UNL     1      -7.649   1.435  -5.571  0.00  0.00    +0.417 C 
ATOM     13  F   UNL     1      -8.417   2.514  -6.021  0.00  0.00    -0.166 F 
ATOM     14  F   UNL     1      -6.310   1.636  -5.923  0.00  0.00    -0.166 F 
ATOM     15  F   UNL     1      -8.114   0.254  -6.161  0.00  0.00    -0.166 F 
ENDBRANCH  10  12
ENDBRANCH   4   6
BRANCH   1  16
ATOM     16  C   UNL     1      -4.965  -2.635  -0.001  0.00  0.00    +0.144 C 
BRANCH  16  20
ATOM     17  C   UNL     1      -1.086  -0.928  -0.579  0.00  0.00    +0.162 A 
ATOM     18  C   UNL     1      -2.201  -0.110  -0.500  0.00  0.00    +0.050 A 
ATOM     19  C   UNL     1      -3.454  -0.664  -0.313  0.00  0.00    +0.009 A 
ATOM     20  C   UNL     1      -3.597  -2.035  -0.205  0.00  0.00    -0.026 A 
ATOM     21  C   UNL     1      -2.488  -2.857  -0.282  0.00  0.00    +0.054 A 
ATOM     22  C   UNL     1      -1.231  -2.308  -0.475  0.00  0.00    +0.162 A 
BRANCH  17  24
ATOM     23  C   UNL     1       0.220   1.040  -0.860  0.00  0.00    +0.277 C 
ATOM     24  O   UNL     1       0.147  -0.384  -0.763  0.00  0.00    -0.491 OA
ENDBRANCH  17  24
BRANCH  22  25
ATOM     25  O   UNL     1      -0.140  -3.116  -0.558  0.00  0.00    -0.491 OA
ATOM     26  C   UNL     1      -0.364  -4.523  -0.443  0.00  0.00    +0.277 C 
ENDBRANCH  22  25
ENDBRANCH  16  20
ENDBRANCH   1  16
BRANCH   1  27
ATOM     27  C   UNL     1      -5.364  -4.224  -1.938  0.00  0.00    +0.110 C 
BRANCH  27  28
ATOM     28  C   UNL     1      -6.469  -5.187  -1.499  0.00  0.00    +0.019 C 
BRANCH  28  29
ATOM     29  C   UNL     1      -6.252  -6.548  -2.162  0.00  0.00    +0.002 C 
BRANCH  29  30
ATOM     30  C   UNL     1      -7.357  -7.511  -1.723  0.00  0.00    +0.002 C 
BRANCH  30  31
ATOM     31  C   UNL     1      -7.140  -8.873  -2.386  0.00  0.00    +0.019 C 
BRANCH  31  32
ATOM     32  C   UNL     1      -8.245  -9.836  -1.947  0.00  0.00    +0.103 C 
BRANCH  32  33
ATOM     33  N   UNL     1      -8.037 -11.140  -2.582  0.00  0.00    -0.331 N 
ATOM     34  C   UNL     1      -8.921 -12.183  -2.332  0.00  0.00    +0.096 A 
ATOM     35  C   UNL     1     -10.004 -11.981  -1.483  0.00  0.00    +0.041 A 
ATOM     36  C   UNL     1     -10.876 -13.027  -1.243  0.00  0.00    +0.005 A 
ATOM     37  C   UNL     1     -10.634 -14.246  -1.863  0.00  0.00    +0.018 A 
ATOM     38  C   UNL     1      -9.540 -14.377  -2.695  0.00  0.00    +0.084 A 
ATOM     39  N   UNL     1      -8.728 -13.359  -2.909  0.00  0.00    -0.350 N 
ATOM     40  H   UNL     1      -7.283 -11.275  -3.177  0.00  0.00    +0.147 HD
ATOM     41  H   UNL     1      -7.968 -13.476  -3.501  0.00  0.00    +0.166 HD
ENDBRANCH  32  33
ENDBRANCH  31  32
ENDBRANCH  30  31
ENDBRANCH  29  30
ENDBRANCH  28  29
ENDBRANCH  27  28
ENDBRANCH   1  27
TORSDOF 13
