REMARK  Name = ZINC11181570
REMARK  6 active torsions:
REMARK  status: ('A' for Active; 'I' for Inactive)
REMARK    1  A    between atoms: C_4  and  C_7
REMARK    2  A    between atoms: C_8  and  C_9
REMARK    3  A    between atoms: C_14  and  C_17
REMARK    4  A    between atoms: N_19  and  C_20
REMARK    5  A    between atoms: C_24  and  N_26
REMARK    6  A    between atoms: C_27  and  C_29
REMARK                            x       y       z     vdW  Elec       q    Type
REMARK                         _______ _______ _______ _____ _____    ______ ____
ROOT
ATOM      1  C   UNL     1      -4.419   3.678   2.177  0.00  0.00    +0.220 C 
ATOM      2  O   UNL     1      -4.825   2.915   3.028  0.00  0.00    -0.275 OA
ATOM      3  N   UNL     1      -4.750   4.984   2.230  0.00  0.00    -0.285 N 
ATOM      4  H   UNL     1      -4.482   5.581   1.514  0.00  0.00    +0.155 HD
ENDROOT
BRANCH   1  10
ATOM      5  C   UNL     1      -0.021   1.322   0.034  0.00  0.00    +0.239 C 
ATOM      6  O   UNL     1       0.048   0.107   0.007  0.00  0.00    -0.271 OA
ATOM      7  N   UNL     1      -1.224   1.929   0.020  0.00  0.00    -0.298 N 
ATOM      8  C   UNL     1      -1.322   3.394  -0.052  0.00  0.00    +0.109 C 
ATOM      9  C   UNL     1      -2.196   3.890   1.098  0.00  0.00    +0.032 C 
ATOM     10  C   UNL     1      -3.544   3.167   1.062  0.00  0.00    +0.078 C 
ATOM     11  C   UNL     1      -3.322   1.663   1.236  0.00  0.00    +0.032 C 
ATOM     12  C   UNL     1      -2.462   1.140   0.081  0.00  0.00    +0.109 C 
BRANCH   5  14
ATOM     13  C   UNL     1       2.403   1.518   0.189  0.00  0.00    +0.013 C 
ATOM     14  C   UNL     1       1.204   2.124   0.077  0.00  0.00    +0.068 C 
BRANCH  13  18
ATOM     15  C   UNL     1       5.950   3.841   0.311  0.00  0.00    +0.000 A 
ATOM     16  C   UNL     1       6.028   2.461   0.388  0.00  0.00    +0.001 A 
ATOM     17  C   UNL     1       4.879   1.699   0.348  0.00  0.00    +0.008 A 
ATOM     18  C   UNL     1       3.634   2.324   0.232  0.00  0.00    -0.025 A 
ATOM     19  C   UNL     1       3.564   3.718   0.151  0.00  0.00    +0.008 A 
ATOM     20  C   UNL     1       4.721   4.467   0.197  0.00  0.00    +0.001 A 
ENDBRANCH  13  18
ENDBRANCH   5  14
ENDBRANCH   1  10
BRANCH   3  21
ATOM     21  C   UNL     1      -5.479   5.477   3.317  0.00  0.00    +0.035 A 
ATOM     22  C   UNL     1      -6.453   4.688   3.917  0.00  0.00    +0.023 A 
ATOM     23  C   UNL     1      -7.170   5.171   4.994  0.00  0.00    +0.004 A 
ATOM     24  C   UNL     1      -6.930   6.446   5.471  0.00  0.00    +0.023 A 
ATOM     25  C   UNL     1      -5.962   7.243   4.872  0.00  0.00    +0.036 A 
ATOM     26  C   UNL     1      -5.236   6.757   3.793  0.00  0.00    +0.046 A 
BRANCH  25  27
ATOM     27  N   UNL     1      -5.720   8.532   5.354  0.00  0.00    -0.279 N 
ATOM     28  C   UNL     1      -5.386   9.520   4.500  0.00  0.00    +0.284 C 
ATOM     29  O   UNL     1      -5.391   9.315   3.301  0.00  0.00    -0.266 OA
ATOM     30  H   UNL     1      -5.792   8.716   6.304  0.00  0.00    +0.155 HD
BRANCH  28  31
ATOM     31  C   UNL     1      -5.018  10.842   5.016  0.00  0.00    +0.189 A 
ATOM     32  C   UNL     1      -4.661  11.926   4.266  0.00  0.00    +0.054 A 
ATOM     33  C   UNL     1      -4.394  12.969   5.165  0.00  0.00    +0.042 A 
ATOM     34  C   UNL     1      -4.597  12.484   6.410  0.00  0.00    +0.196 A 
ATOM     35  O   UNL     1      -4.979  11.203   6.316  0.00  0.00    -0.458 OA
ENDBRANCH  28  31
ENDBRANCH  25  27
ENDBRANCH   3  21
TORSDOF 6
