REMARK  Name = ZINC39851698
REMARK  10 active torsions:
REMARK  status: ('A' for Active; 'I' for Inactive)
REMARK    1  A    between atoms: C_1  and  C_2
REMARK    2  A    between atoms: C_2  and  C_3
REMARK    3  A    between atoms: C_3  and  N_4
REMARK    4  A    between atoms: C_5  and  N_28
REMARK    5  A    between atoms: C_6  and  C_14
REMARK    6  A    between atoms: C_7  and  C_13
REMARK    7  A    between atoms: C_8  and  C_11
REMARK    8  A    between atoms: N_18  and  C_22
REMARK    9  A    between atoms: N_28  and  C_29
REMARK   10  A    between atoms: C_29  and  C_30
REMARK                            x       y       z     vdW  Elec       q    Type
REMARK                         _______ _______ _______ _____ _____    ______ ____
ROOT
ATOM      1  N   UNL     1      -1.543  -1.934  -0.047  0.00  0.00    -0.295 N 
ATOM      2  C   UNL     1      -1.385  -2.604  -1.217  0.00  0.00    +0.109 A 
ATOM      3  C   UNL     1      -1.679  -3.975  -1.300  0.00  0.00    +0.019 A 
ATOM      4  C   UNL     1      -2.142  -4.652  -0.158  0.00  0.00    -0.017 A 
ATOM      5  C   UNL     1      -2.295  -3.943   1.029  0.00  0.00    +0.120 A 
ATOM      6  C   UNL     1      -1.979  -2.561   1.061  0.00  0.00    +0.270 A 
ATOM      7  O   UNL     1      -2.107  -1.935   2.098  0.00  0.00    -0.266 OA
ATOM      8  C   UNL     1      -2.466  -6.123  -0.219  0.00  0.00    +0.046 C 
ENDROOT
BRANCH   3   9
ATOM      9  C   UNL     1      -1.507  -4.693  -2.564  0.00  0.00    +0.032 C 
ATOM     10  C   UNL     1      -0.555  -5.659  -2.674  0.00  0.00    +0.077 C 
ATOM     11  C   UNL     1       0.369  -6.139  -1.697  0.00  0.00    +0.259 C 
ATOM     12  O   UNL     1       0.386  -5.678  -0.570  0.00  0.00    -0.269 OA
ATOM     13  N   UNL     1       1.205  -7.099  -2.053  0.00  0.00    -0.252 N 
ATOM     14  C   UNL     1       1.186  -7.610  -3.304  0.00  0.00    +0.121 C 
ATOM     15  S   UNL     1       2.167  -8.843  -3.974  0.00  0.00    -0.027 S 
ATOM     16  S   UNL     1      -0.127  -6.679  -4.078  0.00  0.00    -0.061 S 
BRANCH  13  17
ATOM     17  C   UNL     1       2.168  -7.616  -1.077  0.00  0.00    +0.083 C 
ATOM     18  C   UNL     1       3.590  -7.395  -1.597  0.00  0.00    +0.023 C 
ATOM     19  C   UNL     1       4.595  -7.935  -0.577  0.00  0.00    +0.002 C 
ATOM     20  C   UNL     1       4.355  -9.431  -0.368  0.00  0.00    +0.000 C 
ATOM     21  C   UNL     1       2.933  -9.652   0.151  0.00  0.00    +0.002 C 
ATOM     22  C   UNL     1       1.928  -9.112  -0.868  0.00  0.00    +0.023 C 
ENDBRANCH  13  17
ENDBRANCH   3   9
BRANCH   5  23
ATOM     23  C   UNL     1      -2.765  -4.603   2.210  0.00  0.00    +0.105 C 
ATOM     24  N   UNL     1      -3.137  -5.127   3.147  0.00  0.00    -0.191 NA
ENDBRANCH   5  23
BRANCH   2  25
ATOM     25  N   UNL     1      -0.936  -1.941  -2.321  0.00  0.00    -0.326 N 
ATOM     26  H   UNL     1       0.016  -1.812  -2.456  0.00  0.00    +0.148 HD
BRANCH  25  27
ATOM     27  C   UNL     1      -1.891  -1.425  -3.304  0.00  0.00    +0.138 C 
BRANCH  27  28
ATOM     28  C   UNL     1      -1.142  -0.848  -4.478  0.00  0.00    -0.030 A 
ATOM     29  C   UNL     1      -0.771   0.484  -4.474  0.00  0.00    +0.008 A 
ATOM     30  C   UNL     1      -0.084   1.014  -5.550  0.00  0.00    +0.038 A 
ATOM     31  C   UNL     1       0.233   0.210  -6.632  0.00  0.00    +0.123 A 
ATOM     32  C   UNL     1      -0.139  -1.124  -6.635  0.00  0.00    +0.038 A 
ATOM     33  C   UNL     1      -0.822  -1.653  -5.556  0.00  0.00    +0.008 A 
ATOM     34  F   UNL     1       0.905   0.727  -7.684  0.00  0.00    -0.205 F 
ENDBRANCH  27  28
ENDBRANCH  25  27
ENDBRANCH   2  25
BRANCH   1  35
ATOM     35  C   UNL     1      -1.229  -0.504   0.011  0.00  0.00    +0.126 C 
BRANCH  35  37
ATOM     36  C   UNL     1       0.618   1.167   0.211  0.00  0.00    +0.005 C 
ATOM     37  C   UNL     1       0.267  -0.321   0.273  0.00  0.00    +0.018 C 
ENDBRANCH  35  37
ENDBRANCH   1  35
TORSDOF 8
