REMARK  Name = ZINC64843419
REMARK  5 active torsions:
REMARK  status: ('A' for Active; 'I' for Inactive)
REMARK    1  A    between atoms: C_3  and  S_13
REMARK    2  A    between atoms: C_6  and  C_7
REMARK    3  A    between atoms: S_13  and  N_16
REMARK    4  A    between atoms: N_16  and  C_17
REMARK    5  A    between atoms: C_19  and  C_31
REMARK                            x       y       z     vdW  Elec       q    Type
REMARK                         _______ _______ _______ _____ _____    ______ ____
ROOT
ATOM      1  N   UNL     1       4.114   2.671   1.851  0.00  0.00    -0.215 N 
ATOM      2  H   UNL     1       4.099   3.522   2.316  0.00  0.00    +0.174 HD
ENDROOT
BRANCH   1   3
ATOM      3  C   UNL     1       4.551   1.517   2.513  0.00  0.00    +0.067 A 
ATOM      4  C   UNL     1       4.109   1.238   3.800  0.00  0.00    +0.044 A 
ATOM      5  C   UNL     1       4.574   0.072   4.423  0.00  0.00    +0.105 A 
ATOM      6  C   UNL     1       5.463  -0.763   3.723  0.00  0.00    +0.136 A 
ATOM      7  N   UNL     1       5.852  -0.451   2.497  0.00  0.00    -0.238 NA
ATOM      8  C   UNL     1       5.426   0.637   1.887  0.00  0.00    +0.137 A 
ATOM      9  N   UNL     1       5.934  -1.919   4.319  0.00  0.00    -0.315 N 
ATOM     10  C   UNL     1       5.258  -3.204   4.087  0.00  0.00    +0.106 C 
ATOM     11  C   UNL     1       5.466  -3.620   2.637  0.00  0.00    +0.019 C 
ATOM     12  C   UNL     1       6.923  -4.074   2.446  0.00  0.00    +0.002 C 
ATOM     13  C   UNL     1       7.827  -2.850   2.349  0.00  0.00    +0.000 C 
ATOM     14  C   UNL     1       8.777  -2.777   3.559  0.00  0.00    +0.002 C 
ATOM     15  C   UNL     1       8.001  -3.073   4.842  0.00  0.00    +0.019 C 
ATOM     16  C   UNL     1       7.106  -1.878   5.178  0.00  0.00    +0.106 C 
BRANCH   5  17
ATOM     17  C   UNL     1       4.139  -0.272   5.785  0.00  0.00    +0.390 C 
ATOM     18  O   UNL     1       3.453   0.513   6.425  0.00  0.00    -0.240 OA
ATOM     19  O   UNL     1       4.464  -1.344   6.278  0.00  0.00    -0.240 OA
ENDBRANCH   5  17
ENDBRANCH   1   3
BRANCH   1  20
ATOM     20  S   UNL     1       3.622   2.583   0.272  0.00  0.00    +0.072 S 
ATOM     21  O   UNL     1       4.630   1.868  -0.429  0.00  0.00    -0.150 OA
ATOM     22  O   UNL     1       3.219   3.894  -0.102  0.00  0.00    -0.150 OA
BRANCH  20  25
ATOM     23  C   UNL     1      -0.209   1.374   0.342  0.00  0.00    +0.006 A 
ATOM     24  C   UNL     1       0.927   2.161   0.374  0.00  0.00    +0.029 A 
ATOM     25  C   UNL     1       2.174   1.580   0.232  0.00  0.00    +0.109 A 
ATOM     26  C   UNL     1       2.284   0.213   0.059  0.00  0.00    +0.029 A 
ATOM     27  C   UNL     1       1.148  -0.573   0.028  0.00  0.00    +0.006 A 
ATOM     28  C   UNL     1      -0.099   0.007   0.168  0.00  0.00    -0.044 A 
BRANCH  28  29
ATOM     29  C   UNL     1      -1.338  -0.850   0.134  0.00  0.00    +0.019 C 
ATOM     30  C   UNL     1      -1.278  -1.879   1.265  0.00  0.00    +0.008 C 
ATOM     31  C   UNL     1      -2.535  -2.749   1.230  0.00  0.00    +0.001 C 
ATOM     32  C   UNL     1      -2.616  -3.474  -0.114  0.00  0.00    +0.000 C 
ATOM     33  C   UNL     1      -2.677  -2.446  -1.246  0.00  0.00    +0.001 C 
ATOM     34  C   UNL     1      -1.419  -1.575  -1.211  0.00  0.00    +0.008 C 
ENDBRANCH  28  29
ENDBRANCH  20  25
ENDBRANCH   1  20
TORSDOF 5
