REMARK  Name = ZINC39741613
REMARK  11 active torsions:
REMARK  status: ('A' for Active; 'I' for Inactive)
REMARK    1  A    between atoms: C_1  and  C_2
REMARK    2  A    between atoms: C_4  and  N_9
REMARK    3  A    between atoms: C_10  and  C_12
REMARK    4  A    between atoms: C_12  and  S_13
REMARK    5  A    between atoms: S_13  and  C_14
REMARK    6  A    between atoms: C_17  and  C_22
REMARK    7  A    between atoms: N_18  and  C_19
REMARK    8  A    between atoms: C_19  and  C_20
REMARK    9  A    between atoms: C_19  and  C_21
REMARK   10  A    between atoms: C_22  and  N_23
REMARK   11  A    between atoms: C_24  and  C_26
REMARK                            x       y       z     vdW  Elec       q    Type
REMARK                         _______ _______ _______ _____ _____    ______ ____
ROOT
ATOM      1  C   UNL     1       0.537  -7.345  -5.022  0.00  0.00    +0.192 A 
ATOM      2  N   UNL     1       0.530  -6.700  -6.166  0.00  0.00    -0.122 NA
ATOM      3  N   UNL     1       0.640  -7.533  -7.138  0.00  0.00    -0.132 NA
ATOM      4  C   UNL     1       0.724  -8.749  -6.677  0.00  0.00    +0.152 A 
ATOM      5  N   UNL     1       0.667  -8.672  -5.313  0.00  0.00    -0.302 N 
ENDROOT
BRANCH   5   6
ATOM      6  C   UNL     1       0.729  -9.784  -4.361  0.00  0.00    +0.085 C 
ATOM      7  C   UNL     1       1.930  -9.595  -3.433  0.00  0.00    +0.030 C 
ATOM      8  C   UNL     1      -0.556  -9.817  -3.531  0.00  0.00    +0.030 C 
ENDBRANCH   5   6
BRANCH   1   9
ATOM      9  S   UNL     1       0.411  -6.631  -3.416  0.00  0.00    -0.077 S 
BRANCH   9  10
ATOM     10  C   UNL     1       0.265  -4.851  -3.737  0.00  0.00    +0.173 C 
BRANCH  10  12
ATOM     11  N   UNL     1       0.028  -2.771  -2.420  0.00  0.00    -0.285 N 
ATOM     12  C   UNL     1       0.148  -4.113  -2.428  0.00  0.00    +0.227 C 
ATOM     13  O   UNL     1       0.162  -4.727  -1.382  0.00  0.00    -0.275 OA
ATOM     14  H   UNL     1      -0.060  -2.287  -3.256  0.00  0.00    +0.155 HD
BRANCH  11  18
ATOM     15  C   UNL     1       1.619  -2.350   2.213  0.00  0.00    +0.045 C 
ATOM     16  C   UNL     1       0.793  -1.849   1.057  0.00  0.00    -0.035 A 
ATOM     17  C   UNL     1       0.792  -2.538  -0.141  0.00  0.00    +0.027 A 
ATOM     18  C   UNL     1       0.030  -2.075  -1.206  0.00  0.00    +0.034 A 
ATOM     19  C   UNL     1      -0.729  -0.921  -1.063  0.00  0.00    +0.024 A 
ATOM     20  C   UNL     1      -0.724  -0.236   0.136  0.00  0.00    +0.017 A 
ATOM     21  C   UNL     1       0.032  -0.703   1.197  0.00  0.00    +0.021 A 
ATOM     22 BR   UNL     1       0.029   0.233   2.841  0.00  0.00    -0.050 Br
ENDBRANCH  11  18
ENDBRANCH  10  12
ENDBRANCH   9  10
ENDBRANCH   1   9
BRANCH   4  23
ATOM     23  C   UNL     1       0.863 -10.007  -7.495  0.00  0.00    +0.181 C 
BRANCH  23  24
ATOM     24  N   UNL     1       2.284 -10.299  -7.704  0.00  0.00    -0.304 N 
ATOM     25  C   UNL     1       2.651 -11.384  -8.413  0.00  0.00    +0.247 C 
ATOM     26  O   UNL     1       1.804 -12.120  -8.881  0.00  0.00    -0.270 OA
ATOM     27  H   UNL     1       2.959  -9.711  -7.331  0.00  0.00    +0.149 HD
BRANCH  25  28
ATOM     28  C   UNL     1       4.083 -11.678  -8.623  0.00  0.00    +0.072 A 
ATOM     29  C   UNL     1       5.059 -10.838  -8.082  0.00  0.00    +0.016 A 
ATOM     30  C   UNL     1       6.394 -11.119  -8.281  0.00  0.00    +0.001 A 
ATOM     31  C   UNL     1       6.770 -12.231  -9.016  0.00  0.00    +0.003 A 
ATOM     32  C   UNL     1       5.812 -13.069  -9.555  0.00  0.00    +0.039 A 
ATOM     33  C   UNL     1       4.469 -12.803  -9.358  0.00  0.00    +0.135 A 
ATOM     34  F   UNL     1       3.533 -13.625  -9.881  0.00  0.00    -0.205 F 
ENDBRANCH  25  28
ENDBRANCH  23  24
ENDBRANCH   4  23
TORSDOF 8
