REMARK  Name = ZINC35724680
REMARK  10 active torsions:
REMARK  status: ('A' for Active; 'I' for Inactive)
REMARK    1  A    between atoms: C_1  and  C_2
REMARK    2  A    between atoms: C_2  and  C_3
REMARK    3  A    between atoms: C_8  and  N_9
REMARK    4  A    between atoms: N_12  and  C_13
REMARK    5  A    between atoms: C_13  and  C_15
REMARK    6  A    between atoms: C_13  and  C_20
REMARK    7  A    between atoms: C_15  and  C_17
REMARK    8  A    between atoms: C_15  and  C_18
REMARK    9  A    between atoms: C_18  and  C_19
REMARK   10  A    between atoms: C_26  and  C_28
REMARK                            x       y       z     vdW  Elec       q    Type
REMARK                         _______ _______ _______ _____ _____    ______ ____
ROOT
ATOM      1  C   UNL     1       6.572  -0.524   0.936  0.00  0.00    +0.163 C 
ENDROOT
BRANCH   1   2
ATOM      2  C   UNL     1       6.872   0.450   2.047  0.00  0.00    +0.239 C 
ATOM      3  O   UNL     1       5.977   1.109   2.533  0.00  0.00    -0.273 OA
ATOM      4  N   UNL     1       8.133   0.588   2.500  0.00  0.00    -0.262 N 
ATOM      5  C   UNL     1       8.394   1.407   3.592  0.00  0.00    +0.188 A 
ATOM      6  N   UNL     1       7.563   2.130   4.332  0.00  0.00    -0.125 NA
ATOM      7  N   UNL     1       7.970   2.828   5.301  0.00  0.00    -0.140 NA
ATOM      8  C   UNL     1       9.252   2.880   5.639  0.00  0.00    +0.134 A 
ATOM      9  S   UNL     1       9.944   1.780   4.406  0.00  0.00    -0.030 S 
ATOM     10  H   UNL     1       8.860   0.116   2.064  0.00  0.00    +0.157 HD
BRANCH   8  11
ATOM     11  C   UNL     1       9.919   3.627   6.726  0.00  0.00    +0.009 A 
ATOM     12  C   UNL     1      11.302   3.535   6.894  0.00  0.00    +0.012 A 
ATOM     13  C   UNL     1      11.918   4.235   7.910  0.00  0.00    +0.020 A 
ATOM     14  C   UNL     1      11.168   5.026   8.764  0.00  0.00    +0.041 A 
ATOM     15  C   UNL     1       9.796   5.121   8.603  0.00  0.00    +0.020 A 
ATOM     16  C   UNL     1       9.169   4.431   7.586  0.00  0.00    +0.012 A 
ATOM     17 CL   UNL     1      11.951   5.903  10.041  0.00  0.00    -0.084 Cl
ENDBRANCH   8  11
ENDBRANCH   1   2
BRANCH   1  21
ATOM     18  N   UNL     1       3.389  -0.513  -0.901  0.00  0.00    -0.269 N 
ATOM     19  C   UNL     1       4.704  -0.619  -0.625  0.00  0.00    +0.304 C 
ATOM     20  O   UNL     1       5.500  -0.814  -1.523  0.00  0.00    -0.252 OA
ATOM     21  N   UNL     1       5.136  -0.508   0.647  0.00  0.00    -0.288 N 
ATOM     22  H   UNL     1       2.761  -0.291  -0.196  0.00  0.00    +0.156 HD
ATOM     23  H   UNL     1       4.497  -0.417   1.370  0.00  0.00    +0.151 HD
BRANCH  18  29
ATOM     24  C   UNL     1       1.674  -1.276  -2.421  0.00  0.00    -0.026 A 
ATOM     25  C   UNL     1       1.220  -1.477  -3.710  0.00  0.00    +0.005 A 
ATOM     26  C   UNL     1       2.018  -1.134  -4.786  0.00  0.00    +0.000 A 
ATOM     27  C   UNL     1       3.272  -0.589  -4.576  0.00  0.00    +0.002 A 
ATOM     28  C   UNL     1       3.730  -0.386  -3.289  0.00  0.00    +0.023 A 
ATOM     29  C   UNL     1       2.929  -0.723  -2.206  0.00  0.00    +0.038 A 
BRANCH  24  31
ATOM     30  C   UNL     1       0.021  -0.421  -0.781  0.00  0.00    +0.009 C 
ATOM     31  C   UNL     1       0.804  -1.650  -1.249  0.00  0.00    +0.033 C 
ENDBRANCH  24  31
ENDBRANCH  18  29
ENDBRANCH   1  21
BRANCH   1  32
ATOM     32  C   UNL     1       6.991  -1.931   1.365  0.00  0.00    +0.015 C 
ATOM     33  C   UNL     1       6.847  -2.889   0.181  0.00  0.00    +0.010 C 
BRANCH  32  34
ATOM     34  C   UNL     1       6.095  -2.401   2.513  0.00  0.00    +0.002 C 
ATOM     35  C   UNL     1       6.362  -1.544   3.752  0.00  0.00    +0.004 C 
ENDBRANCH  32  34
ENDBRANCH   1  32
TORSDOF 7
