REMARK  Name = ZINC32801666
REMARK  6 active torsions:
REMARK  status: ('A' for Active; 'I' for Inactive)
REMARK    1  A    between atoms: C_1  and  O_2
REMARK    2  A    between atoms: O_2  and  C_3
REMARK    3  A    between atoms: C_3  and  C_5
REMARK    4  A    between atoms: C_16  and  C_18
REMARK    5  A    between atoms: N_20  and  C_27
REMARK    6  A    between atoms: C_21  and  C_24
REMARK                            x       y       z     vdW  Elec       q    Type
REMARK                         _______ _______ _______ _____ _____    ______ ____
ROOT
ATOM      1  C   UNL     1      -0.158   1.081  -0.057  0.00  0.00    +0.190 C 
ATOM      2  C   UNL     1      -1.308   0.325  -0.721  0.00  0.00    +0.069 C 
ATOM      3  C   UNL     1      -1.050   0.141  -2.193  0.00  0.00    -0.040 A 
ATOM      4  C   UNL     1      -1.762  -0.854  -2.853  0.00  0.00    +0.004 A 
ATOM      5  C   UNL     1      -1.591  -1.059  -4.206  0.00  0.00    +0.000 A 
ATOM      6  C   UNL     1      -0.705  -0.270  -4.915  0.00  0.00    +0.000 A 
ATOM      7  C   UNL     1       0.007   0.715  -4.262  0.00  0.00    +0.005 A 
ATOM      8  C   UNL     1      -0.160   0.920  -2.899  0.00  0.00    -0.027 A 
ATOM      9  C   UNL     1       0.657   2.005  -2.244  0.00  0.00    +0.144 C 
ATOM     10  N   UNL     1       0.153   2.255  -0.890  0.00  0.00    -0.278 N 
ATOM     11  C   UNL     1      -0.018   3.508  -0.426  0.00  0.00    +0.263 C 
ATOM     12  O   UNL     1      -0.458   3.688   0.695  0.00  0.00    -0.269 OA
ENDROOT
BRANCH  11  13
ATOM     13  C   UNL     1       0.324   4.654  -1.269  0.00  0.00    +0.123 C 
ATOM     14  N   UNL     1       0.901   4.585  -2.426  0.00  0.00    -0.178 NA
ATOM     15  N   UNL     1       1.117   5.823  -3.026  0.00  0.00    -0.212 N 
ATOM     16  C   UNL     1       0.608   6.879  -2.137  0.00  0.00    +0.189 C 
ATOM     17  C   UNL     1       0.054   6.102  -0.927  0.00  0.00    +0.096 C 
BRANCH  15  18
ATOM     18  C   UNL     1       1.718   6.029  -4.269  0.00  0.00    +0.052 A 
ATOM     19  C   UNL     1       1.872   7.318  -4.764  0.00  0.00    +0.025 A 
ATOM     20  C   UNL     1       2.472   7.518  -5.992  0.00  0.00    +0.002 A 
ATOM     21  C   UNL     1       2.910   6.436  -6.733  0.00  0.00    +0.000 A 
ATOM     22  C   UNL     1       2.754   5.151  -6.246  0.00  0.00    +0.002 A 
ATOM     23  C   UNL     1       2.159   4.944  -5.017  0.00  0.00    +0.025 A 
ENDBRANCH  15  18
BRANCH  16  24
ATOM     24  C   UNL     1      -0.491   7.657  -2.813  0.00  0.00    +0.233 C 
ATOM     25  O   UNL     1      -1.065   7.187  -3.773  0.00  0.00    -0.274 OA
ATOM     26  N   UNL     1      -0.837   8.876  -2.352  0.00  0.00    -0.328 N 
ATOM     27  H   UNL     1      -1.639   9.444  -2.846  0.00  0.00    +0.145 HD
ATOM     28  H   UNL     1      -0.316   9.302  -1.482  0.00  0.00    +0.145 HD
ENDBRANCH  16  24
ENDBRANCH  11  13
BRANCH   1  29
ATOM     29  C   UNL     1      -0.570   1.529   1.322  0.00  0.00    +0.328 C 
ATOM     30  O   UNL     1       0.230   2.079   2.042  0.00  0.00    -0.249 OA
BRANCH  29  32
ATOM     31  C   UNL     1      -2.150   1.774   3.089  0.00  0.00    +0.280 C 
ATOM     32  O   UNL     1      -1.824   1.316   1.750  0.00  0.00    -0.467 OA
ENDBRANCH  29  32
ENDBRANCH   1  29
TORSDOF 5
