REMARK  Name = ZINC24705305
REMARK  8 active torsions:
REMARK  status: ('A' for Active; 'I' for Inactive)
REMARK    1  A    between atoms: C_1  and  C_2
REMARK    2  A    between atoms: C_2  and  C_3
REMARK    3  A    between atoms: C_2  and  C_4
REMARK    4  A    between atoms: C_2  and  O_5
REMARK    5  A    between atoms: O_5  and  C_6
REMARK    6  A    between atoms: C_12  and  C_15
REMARK    7  A    between atoms: N_17  and  N_18
REMARK    8  A    between atoms: C_19  and  C_21
REMARK                            x       y       z     vdW  Elec       q    Type
REMARK                         _______ _______ _______ _____ _____    ______ ____
ROOT
ATOM      1  C   UNL     1       5.911   2.628  -0.029  0.00  0.00    +0.234 C 
ATOM      2  O   UNL     1       5.682   3.819  -0.028  0.00  0.00    -0.274 OA
ATOM      3  N   UNL     1       4.892   1.746  -0.023  0.00  0.00    -0.234 N 
ATOM      4  H   UNL     1       5.099   0.665  -0.025  0.00  0.00    +0.173 HD
ENDROOT
BRANCH   1  11
ATOM      5  C   UNL     1       9.388  -0.366   1.374  0.00  0.00    +0.403 C 
ATOM      6  O   UNL     1       8.547  -1.240   1.448  0.00  0.00    -0.226 OA
ATOM      7  N   UNL     1       9.013   0.923   1.254  0.00  0.00    -0.267 N 
ATOM      8  C   UNL     1      10.018   1.990   1.163  0.00  0.00    +0.111 C 
ATOM      9  C   UNL     1       9.736   2.829  -0.087  0.00  0.00    +0.020 C 
ATOM     10  C   UNL     1       8.290   3.329  -0.044  0.00  0.00    +0.016 C 
ATOM     11  C   UNL     1       7.335   2.134  -0.039  0.00  0.00    +0.094 C 
ATOM     12  C   UNL     1       7.590   1.287   1.212  0.00  0.00    +0.124 C 
BRANCH   5  13
ATOM     13  O   UNL     1      10.696  -0.686   1.411  0.00  0.00    -0.445 OA
BRANCH  13  15
ATOM     14  C   UNL     1      10.449  -2.865   0.354  0.00  0.00    +0.055 C 
ATOM     15  C   UNL     1      11.027  -2.093   1.542  0.00  0.00    +0.107 C 
ATOM     16  C   UNL     1      12.548  -2.259   1.567  0.00  0.00    +0.055 C 
ATOM     17  C   UNL     1      10.433  -2.639   2.842  0.00  0.00    +0.055 C 
ENDBRANCH  13  15
ENDBRANCH   5  13
ENDBRANCH   1  11
BRANCH   3  18
ATOM     18  N   UNL     1       3.568   2.205  -0.015  0.00  0.00    -0.230 N 
ATOM     19  C   UNL     1       2.549   1.323  -0.008  0.00  0.00    +0.267 C 
ATOM     20  O   UNL     1       2.778   0.128  -0.010  0.00  0.00    -0.268 OA
ATOM     21  H   UNL     1       3.361   3.285  -0.013  0.00  0.00    +0.173 HD
BRANCH  19  22
ATOM     22  C   UNL     1       1.164   1.804   0.001  0.00  0.00    +0.076 A 
ATOM     23  C   UNL     1      -0.013   1.076   0.008  0.00  0.00    +0.024 A 
ATOM     24  C   UNL     1      -1.214   1.774   0.017  0.00  0.00    -0.036 A 
ATOM     25  C   UNL     1      -1.129   3.124   0.004  0.00  0.00    -0.006 A 
ATOM     26  S   UNL     1       0.553   3.482   0.005  0.00  0.00    -0.088 S 
ATOM     27  C   UNL     1      -2.283   4.100  -0.036  0.00  0.00    +0.043 C 
ATOM     28  C   UNL     1      -3.009   4.003   1.317  0.00  0.00    +0.005 C 
ATOM     29  C   UNL     1      -3.903   2.786   1.346  0.00  0.00    +0.001 C 
ATOM     30  C   UNL     1      -3.214   1.449   1.434  0.00  0.00    +0.005 C 
ATOM     31  C   UNL     1      -2.563   1.051   0.108  0.00  0.00    +0.036 C 
ENDBRANCH  19  22
ENDBRANCH   3  18
TORSDOF 5
