REMARK  Name = ZINC16608660
REMARK  12 active torsions:
REMARK  status: ('A' for Active; 'I' for Inactive)
REMARK    1  A    between atoms: C_1  and  C_2
REMARK    2  A    between atoms: C_2  and  C_3
REMARK    3  A    between atoms: C_3  and  C_5
REMARK    4  A    between atoms: C_3  and  C_6
REMARK    5  A    between atoms: C_6  and  C_8
REMARK    6  A    between atoms: C_6  and  N_25
REMARK    7  A    between atoms: C_14  and  C_16
REMARK    8  A    between atoms: N_25  and  S_26
REMARK    9  A    between atoms: S_26  and  C_29
REMARK   10  A    between atoms: C_30  and  C_37
REMARK   11  A    between atoms: C_32  and  C_36
REMARK   12  A    between atoms: C_34  and  C_35
REMARK                            x       y       z     vdW  Elec       q    Type
REMARK                         _______ _______ _______ _____ _____    ______ ____
ROOT
ATOM      1  C   UNL     1      -1.101   1.559   3.980  0.00  0.00    +0.165 C 
ENDROOT
BRANCH   1   2
ATOM      2  C   UNL     1      -2.562   1.208   4.098  0.00  0.00    +0.238 C 
ATOM      3  O   UNL     1      -3.402   2.079   4.029  0.00  0.00    -0.274 OA
ATOM      4  N   UNL     1      -2.933  -0.075   4.282  0.00  0.00    -0.262 N 
ATOM      5  C   UNL     1      -4.280  -0.399   4.390  0.00  0.00    +0.188 A 
ATOM      6  N   UNL     1      -5.351   0.382   4.343  0.00  0.00    -0.125 NA
ATOM      7  N   UNL     1      -6.519  -0.080   4.461  0.00  0.00    -0.140 NA
ATOM      8  C   UNL     1      -6.746  -1.376   4.639  0.00  0.00    +0.134 A 
ATOM      9  S   UNL     1      -5.065  -1.991   4.626  0.00  0.00    -0.030 S 
ATOM     10  H   UNL     1      -2.261  -0.772   4.337  0.00  0.00    +0.157 HD
BRANCH   8  11
ATOM     11  C   UNL     1      -8.023  -2.104   4.796  0.00  0.00    +0.013 A 
ATOM     12  C   UNL     1      -8.021  -3.488   4.973  0.00  0.00    +0.014 A 
ATOM     13  C   UNL     1      -9.214  -4.166   5.120  0.00  0.00    +0.050 A 
ATOM     14  C   UNL     1     -10.417  -3.476   5.092  0.00  0.00    +0.166 A 
ATOM     15  C   UNL     1     -10.425  -2.093   4.915  0.00  0.00    +0.167 A 
ATOM     16  C   UNL     1      -9.232  -1.408   4.772  0.00  0.00    +0.060 A 
ATOM     17  O   UNL     1     -11.720  -1.660   4.924  0.00  0.00    -0.453 OA
ATOM     18  C   UNL     1     -12.479  -2.730   5.516  0.00  0.00    +0.466 C 
ATOM     19  O   UNL     1     -11.707  -3.907   5.212  0.00  0.00    -0.453 OA
ENDBRANCH   8  11
ENDBRANCH   1   2
BRANCH   1  20
ATOM     20  C   UNL     1      -0.494   0.824   2.783  0.00  0.00    +0.013 C 
ATOM     21  C   UNL     1       1.000   1.139   2.695  0.00  0.00    +0.009 C 
BRANCH  20  23
ATOM     22  C   UNL     1      -0.670   0.458   0.318  0.00  0.00    +0.004 C 
ATOM     23  C   UNL     1      -1.189   1.281   1.499  0.00  0.00    +0.002 C 
ENDBRANCH  20  23
ENDBRANCH   1  20
BRANCH   1  24
ATOM     24  N   UNL     1      -0.961   3.005   3.788  0.00  0.00    -0.178 NA
ATOM     25  H   UNL     1      -0.985   3.380   2.894  0.00  0.00    +0.149 HD
BRANCH  24  26
ATOM     26  S   UNL     1      -0.760   3.999   5.097  0.00  0.00    +0.060 S 
ATOM     27  O   UNL     1      -0.615   5.317   4.588  0.00  0.00    -0.153 OA
ATOM     28  O   UNL     1      -1.773   3.650   6.031  0.00  0.00    -0.153 OA
BRANCH  26  29
ATOM     29  C   UNL     1       0.779   3.574   5.843  0.00  0.00    +0.111 A 
ATOM     30  C   UNL     1       1.926   4.266   5.502  0.00  0.00    -0.024 A 
ATOM     31  C   UNL     1       3.133   3.936   6.090  0.00  0.00    +0.008 A 
ATOM     32  C   UNL     1       3.194   2.908   7.012  0.00  0.00    -0.050 A 
ATOM     33  C   UNL     1       2.048   2.212   7.349  0.00  0.00    +0.008 A 
ATOM     34  C   UNL     1       0.840   2.545   6.764  0.00  0.00    -0.024 A 
ATOM     35  C   UNL     1      -0.409   1.787   7.131  0.00  0.00    +0.046 C 
ATOM     36  C   UNL     1       4.510   2.545   7.651  0.00  0.00    +0.044 C 
ATOM     37  C   UNL     1       1.861   5.383   4.493  0.00  0.00    +0.046 C 
ENDBRANCH  26  29
ENDBRANCH  24  26
ENDBRANCH   1  24
TORSDOF 7
