REMARK  Name = ZINC35057845
REMARK  8 active torsions:
REMARK  status: ('A' for Active; 'I' for Inactive)
REMARK    1  A    between atoms: C_1  and  C_2
REMARK    2  A    between atoms: N_4  and  C_5
REMARK    3  A    between atoms: C_7  and  O_38
REMARK    4  A    between atoms: C_15  and  C_18
REMARK    5  A    between atoms: C_25  and  O_27
REMARK    6  A    between atoms: O_27  and  C_28
REMARK    7  A    between atoms: O_38  and  C_39
REMARK    8  A    between atoms: C_39  and  C_40
REMARK                            x       y       z     vdW  Elec       q    Type
REMARK                         _______ _______ _______ _____ _____    ______ ____
ROOT
ATOM      1  C   UNL     1       0.069  -2.078  -1.185  0.00  0.00    +0.173 C 
ATOM      2  C   UNL     1       0.502  -2.638  -2.543  0.00  0.00    +0.176 C 
ATOM      3  C   UNL     1       0.380  -4.162  -2.522  0.00  0.00    +0.183 C 
ATOM      4  C   UNL     1      -1.053  -4.559  -2.152  0.00  0.00    +0.179 C 
ATOM      5  C   UNL     1      -1.119  -6.086  -2.020  0.00  0.00    +0.197 C 
ATOM      6  O   UNL     1      -0.126  -6.511  -1.080  0.00  0.00    -0.345 OA
ATOM      7  C   UNL     1       1.205  -6.129  -1.433  0.00  0.00    +0.282 C 
ATOM      8  O   UNL     1       1.279  -4.706  -1.552  0.00  0.00    -0.339 OA
ATOM      9  O   UNL     1      -1.410  -3.954  -0.908  0.00  0.00    -0.332 OA
ATOM     10  C   UNL     1      -1.358  -2.542  -0.883  0.00  0.00    +0.331 C 
ENDROOT
BRANCH   7  11
ATOM     11  C   UNL     1       2.161  -6.593  -0.364  0.00  0.00    +0.008 A 
ATOM     12  C   UNL     1       2.927  -5.672   0.325  0.00  0.00    +0.008 A 
ATOM     13  C   UNL     1       3.804  -6.098   1.306  0.00  0.00    +0.000 A 
ATOM     14  C   UNL     1       3.913  -7.445   1.598  0.00  0.00    +0.000 A 
ATOM     15  C   UNL     1       3.146  -8.366   0.909  0.00  0.00    +0.000 A 
ATOM     16  C   UNL     1       2.266  -7.939  -0.069  0.00  0.00    +0.008 A 
ENDBRANCH   7  11
BRANCH   1  20
ATOM     17  C   UNL     1       0.329   1.591  -0.124  0.00  0.00    +0.109 C 
ATOM     18  C   UNL     1       0.286   0.086  -0.084  0.00  0.00    +0.210 C 
ATOM     19  O   UNL     1       0.410  -0.497   0.972  0.00  0.00    -0.276 OA
ATOM     20  N   UNL     1       0.111  -0.614  -1.223  0.00  0.00    -0.304 N 
ATOM     21  H   UNL     1       0.012  -0.147  -2.068  0.00  0.00    +0.149 HD
ENDBRANCH   1  20
BRANCH  10  22
ATOM     22  O   UNL     1      -2.247  -2.028  -1.877  0.00  0.00    -0.462 OA
BRANCH  22  23
ATOM     23  C   UNL     1      -3.579  -2.170  -1.647  0.00  0.00    +0.125 A 
ATOM     24  C   UNL     1      -4.013  -2.792  -0.472  0.00  0.00    +0.046 A 
ATOM     25  C   UNL     1      -5.339  -2.949  -0.214  0.00  0.00    +0.012 A 
ATOM     26  C   UNL     1      -6.290  -2.479  -1.137  0.00  0.00    -0.018 A 
ATOM     27  C   UNL     1      -7.668  -2.624  -0.901  0.00  0.00    +0.008 A 
ATOM     28  C   UNL     1      -8.560  -2.158  -1.816  0.00  0.00    +0.001 A 
ATOM     29  C   UNL     1      -8.130  -1.537  -2.988  0.00  0.00    +0.001 A 
ATOM     30  C   UNL     1      -6.804  -1.379  -3.250  0.00  0.00    +0.008 A 
ATOM     31  C   UNL     1      -5.852  -1.848  -2.328  0.00  0.00    -0.014 A 
ATOM     32  C   UNL     1      -4.475  -1.698  -2.563  0.00  0.00    +0.054 A 
ENDBRANCH  22  23
ENDBRANCH  10  22
BRANCH   2  33
ATOM     33  O   UNL     1      -0.339  -2.106  -3.568  0.00  0.00    -0.361 OA
BRANCH  33  34
ATOM     34  C   UNL     1       0.291  -2.014  -4.848  0.00  0.00    +0.285 C 
BRANCH  34  35
ATOM     35  C   UNL     1      -0.639  -1.335  -5.819  0.00  0.00    +0.381 C 
ATOM     36  O   UNL     1      -1.740  -0.963  -5.449  0.00  0.00    -0.244 OA
ATOM     37  O   UNL     1      -0.291  -1.156  -6.973  0.00  0.00    -0.244 OA
ENDBRANCH  34  35
ENDBRANCH  33  34
ENDBRANCH   2  33
TORSDOF 7
