REMARK  Name = ZINC65638441
REMARK  10 active torsions:
REMARK  status: ('A' for Active; 'I' for Inactive)
REMARK    1  A    between atoms: C_1  and  C_2
REMARK    2  A    between atoms: C_2  and  C_3
REMARK    3  A    between atoms: C_2  and  N_4
REMARK    4  A    between atoms: C_7  and  C_9
REMARK    5  A    between atoms: C_9  and  N_10
REMARK    6  A    between atoms: C_11  and  C_13
REMARK    7  A    between atoms: N_15  and  C_16
REMARK    8  A    between atoms: C_19  and  C_22
REMARK    9  A    between atoms: N_24  and  C_25
REMARK   10  A    between atoms: C_25  and  C_26
REMARK                            x       y       z     vdW  Elec       q    Type
REMARK                         _______ _______ _______ _____ _____    ______ ____
ROOT
ATOM      1  C   UNL     1      -5.723  -5.540  -2.809  0.00  0.00    +0.303 C 
ATOM      2  O   UNL     1      -6.621  -4.734  -2.675  0.00  0.00    -0.265 OA
ATOM      3  N   UNL     1      -5.961  -6.718  -3.418  0.00  0.00    -0.278 N 
ATOM      4  H   UNL     1      -5.231  -7.334  -3.585  0.00  0.00    +0.155 HD
ENDROOT
BRANCH   3   5
ATOM      5  C   UNL     1      -7.256  -7.052  -3.808  0.00  0.00    +0.034 A 
ATOM      6  C   UNL     1      -8.119  -6.063  -4.269  0.00  0.00    +0.024 A 
ATOM      7  C   UNL     1      -9.400  -6.390  -4.655  0.00  0.00    +0.015 A 
ATOM      8  C   UNL     1      -9.832  -7.717  -4.583  0.00  0.00    +0.037 A 
ATOM      9  C   UNL     1      -8.963  -8.708  -4.119  0.00  0.00    +0.015 A 
ATOM     10  C   UNL     1      -7.682  -8.376  -3.739  0.00  0.00    +0.024 A 
BRANCH   8  11
ATOM     11  C   UNL     1     -11.205  -8.071  -4.995  0.00  0.00    +0.244 C 
ATOM     12  O   UNL     1     -11.960  -7.208  -5.398  0.00  0.00    -0.270 OA
ATOM     13  N   UNL     1     -11.621  -9.351  -4.925  0.00  0.00    -0.308 N 
ATOM     14  H   UNL     1     -11.018 -10.040  -4.603  0.00  0.00    +0.149 HD
BRANCH  13  15
ATOM     15  C   UNL     1     -12.983  -9.702  -5.334  0.00  0.00    +0.131 C 
BRANCH  15  16
ATOM     16  C   UNL     1     -13.193 -11.184  -5.159  0.00  0.00    -0.016 C 
ATOM     17  C   UNL     1     -14.192 -11.623  -4.434  0.00  0.00    +0.005 C 
ENDBRANCH  15  16
ENDBRANCH  13  15
ENDBRANCH   8  11
ENDBRANCH   3   5
BRANCH   1  19
ATOM     18  N   UNL     1      -4.117  -4.046  -1.691  0.00  0.00    -0.307 N 
ATOM     19  C   UNL     1      -4.355  -5.225  -2.300  0.00  0.00    +0.299 C 
ATOM     20  O   UNL     1      -3.458  -6.030  -2.434  0.00  0.00    -0.265 OA
ATOM     21  H   UNL     1      -4.835  -3.402  -1.584  0.00  0.00    +0.149 HD
BRANCH  18  22
ATOM     22  C   UNL     1      -2.776  -3.737  -1.191  0.00  0.00    +0.106 C 
BRANCH  22  26
ATOM     23  N   UNL     1      -1.377  -0.507   0.003  0.00  0.00    +0.381 N 
ATOM     24  C   UNL     1      -2.090  -0.096  -1.226  0.00  0.00    -0.078 C 
ATOM     25  C   UNL     1      -3.029  -1.255  -1.612  0.00  0.00    -0.015 C 
ATOM     26  C   UNL     1      -2.777  -2.349  -0.549  0.00  0.00    -0.012 C 
ATOM     27  C   UNL     1      -1.369  -1.992  -0.010  0.00  0.00    -0.074 C 
ATOM     28  H   UNL     1      -1.864  -0.168   0.819  0.00  0.00    -0.081 HD
BRANCH  23  30
ATOM     29  C   UNL     1      -0.027   1.537  -0.002  0.00  0.00    -0.014 C 
ATOM     30  C   UNL     1      -0.001   0.007  -0.015  0.00  0.00    -0.075 C 
ATOM     31  C   UNL     1       0.750  -0.501   1.218  0.00  0.00    -0.014 C 
ENDBRANCH  23  30
ENDBRANCH  22  26
ENDBRANCH  18  22
ENDBRANCH   1  19
TORSDOF 8
