REMARK  Name = ZINC47128881
REMARK  9 active torsions:
REMARK  status: ('A' for Active; 'I' for Inactive)
REMARK    1  A    between atoms: C_1  and  C_2
REMARK    2  A    between atoms: C_2  and  C_4
REMARK    3  A    between atoms: C_2  and  N_17
REMARK    4  A    between atoms: C_7  and  N_10
REMARK    5  A    between atoms: N_13  and  C_14
REMARK    6  A    between atoms: N_20  and  C_21
REMARK    7  A    between atoms: N_20  and  C_22
REMARK    8  A    between atoms: C_22  and  C_24
REMARK    9  A    between atoms: C_22  and  C_25
REMARK                            x       y       z     vdW  Elec       q    Type
REMARK                         _______ _______ _______ _____ _____    ______ ____
ROOT
ATOM      1  C   UNL     1       0.002   1.489   0.238  0.00  0.00    +0.033 C 
ATOM      2  C   UNL     1       0.010  -0.025   0.017  0.00  0.00    +0.102 C 
ENDROOT
BRANCH   2   3
ATOM      3  C   UNL     1      -1.406  -0.541   0.024  0.00  0.00    -0.027 A 
ATOM      4  C   UNL     1      -2.059  -0.749   1.225  0.00  0.00    +0.007 A 
ATOM      5  C   UNL     1      -3.357  -1.222   1.234  0.00  0.00    +0.023 A 
ATOM      6  C   UNL     1      -4.006  -1.488   0.036  0.00  0.00    +0.035 A 
ATOM      7  C   UNL     1      -3.347  -1.279  -1.168  0.00  0.00    +0.023 A 
ATOM      8  C   UNL     1      -2.051  -0.801  -1.171  0.00  0.00    +0.007 A 
BRANCH   6   9
ATOM      9  N   UNL     1      -5.320  -1.968   0.042  0.00  0.00    -0.269 N 
ATOM     10  C   UNL     1      -6.177  -1.575   1.006  0.00  0.00    +0.304 C 
ATOM     11  O   UNL     1      -5.838  -0.730   1.812  0.00  0.00    -0.253 OA
ATOM     12  N   UNL     1      -7.408  -2.117   1.075  0.00  0.00    -0.296 N 
ATOM     13  H   UNL     1      -5.615  -2.584  -0.647  0.00  0.00    +0.156 HD
ATOM     14  H   UNL     1      -7.678  -2.791   0.432  0.00  0.00    +0.151 HD
BRANCH  12  15
ATOM     15  C   UNL     1      -8.339  -1.690   2.123  0.00  0.00    +0.075 C 
ATOM     16  C   UNL     1      -9.137  -2.776   2.846  0.00  0.00    +0.024 C 
ATOM     17  C   UNL     1      -9.835  -1.851   1.847  0.00  0.00    +0.024 C 
ENDBRANCH  12  15
ENDBRANCH   6   9
ENDBRANCH   2   3
BRANCH   2  18
ATOM     18  N   UNL     1       0.770  -0.671   1.090  0.00  0.00    -0.293 N 
ATOM     19  C   UNL     1       2.110  -0.780   0.995  0.00  0.00    +0.303 C 
ATOM     20  O   UNL     1       2.688  -0.343   0.019  0.00  0.00    -0.253 OA
ATOM     21  N   UNL     1       2.810  -1.375   1.982  0.00  0.00    -0.281 N 
ATOM     22  C   UNL     1       2.113  -1.902   3.158  0.00  0.00    +0.134 C 
ATOM     23  H   UNL     1       0.309  -1.020   1.869  0.00  0.00    +0.151 HD
BRANCH  21  24
ATOM     24  C   UNL     1       4.266  -1.493   1.878  0.00  0.00    +0.111 C 
ATOM     25  C   UNL     1       4.922  -0.765   3.053  0.00  0.00    +0.034 C 
BRANCH  24  26
ATOM     26  C   UNL     1       4.655  -2.949   1.909  0.00  0.00    +0.010 A 
ATOM     27  C   UNL     1       5.606  -3.594   1.190  0.00  0.00    +0.013 A 
ATOM     28  C   UNL     1       5.791  -4.950   1.386  0.00  0.00    +0.008 A 
ATOM     29  C   UNL     1       5.016  -5.594   2.293  0.00  0.00    +0.045 A 
ATOM     30  S   UNL     1       3.988  -4.270   2.908  0.00  0.00    -0.100 S 
ENDBRANCH  24  26
ENDBRANCH  21  24
ENDBRANCH   2  18
TORSDOF 6
