REMARK  Name = ZINC13245588
REMARK  7 active torsions:
REMARK  status: ('A' for Active; 'I' for Inactive)
REMARK    1  A    between atoms: C_1  and  C_2
REMARK    2  A    between atoms: C_5  and  N_8
REMARK    3  A    between atoms: C_12  and  S_13
REMARK    4  A    between atoms: S_13  and  C_14
REMARK    5  A    between atoms: C_14  and  C_15
REMARK    6  A    between atoms: N_17  and  C_18
REMARK    7  A    between atoms: C_23  and  C_24
REMARK                            x       y       z     vdW  Elec       q    Type
REMARK                         _______ _______ _______ _____ _____    ______ ____
ROOT
ATOM      1  N   UNL     1       0.003  -0.003  -0.017  0.00  0.00    -0.259 N 
ATOM      2  C   UNL     1       1.311  -0.406  -0.048  0.00  0.00    +0.225 A 
ATOM      3  N   UNL     1       2.064   0.665  -0.059  0.00  0.00    -0.112 NA
ATOM      4  N   UNL     1       1.226   1.787  -0.035  0.00  0.00    -0.120 NA
ATOM      5  C   UNL     1      -0.015   1.366  -0.010  0.00  0.00    +0.198 A 
ATOM      6  N   UNL     1       1.760  -1.721  -0.064  0.00  0.00    -0.299 N 
ATOM      7  C   UNL     1       1.302  -2.424  -1.289  0.00  0.00    +0.108 C 
ATOM      8  C   UNL     1       2.284  -3.618  -1.401  0.00  0.00    +0.020 C 
ATOM      9  C   UNL     1       3.625  -3.005  -0.938  0.00  0.00    +0.020 C 
ATOM     10  C   UNL     1       3.237  -1.776  -0.096  0.00  0.00    +0.108 C 
ENDROOT
BRANCH   1  15
ATOM     11  C   UNL     1      -4.539  -3.406   0.063  0.00  0.00    +0.044 C 
ATOM     12  C   UNL     1      -3.333  -2.502   0.042  0.00  0.00    -0.050 A 
ATOM     13  C   UNL     1      -3.108  -1.678  -1.045  0.00  0.00    +0.005 A 
ATOM     14  C   UNL     1      -2.003  -0.849  -1.067  0.00  0.00    +0.026 A 
ATOM     15  C   UNL     1      -1.119  -0.844   0.003  0.00  0.00    +0.052 A 
ATOM     16  C   UNL     1      -1.345  -1.677   1.090  0.00  0.00    +0.026 A 
ATOM     17  C   UNL     1      -2.454  -2.500   1.109  0.00  0.00    +0.005 A 
ENDBRANCH   1  15
BRANCH   5  18
ATOM     18  S   UNL     1      -1.454   2.382   0.019  0.00  0.00    -0.076 S 
BRANCH  18  19
ATOM     19  C   UNL     1      -0.797   4.073   0.017  0.00  0.00    +0.173 C 
BRANCH  19  20
ATOM     20  C   UNL     1      -1.940   5.056   0.041  0.00  0.00    +0.228 C 
ATOM     21  O   UNL     1      -3.084   4.655   0.058  0.00  0.00    -0.275 OA
ATOM     22  N   UNL     1      -1.689   6.380   0.043  0.00  0.00    -0.284 N 
ATOM     23  H   UNL     1      -0.776   6.701   0.110  0.00  0.00    +0.155 HD
BRANCH  22  24
ATOM     24  C   UNL     1      -2.741   7.288  -0.051  0.00  0.00    +0.048 A 
ATOM     25  C   UNL     1      -3.935   6.913  -0.652  0.00  0.00    +0.025 A 
ATOM     26  C   UNL     1      -4.977   7.813  -0.744  0.00  0.00    +0.022 A 
ATOM     27  C   UNL     1      -4.841   9.097  -0.238  0.00  0.00    +0.042 A 
ATOM     28  C   UNL     1      -3.663   9.488   0.363  0.00  0.00    +0.037 A 
ATOM     29  C   UNL     1      -2.602   8.585   0.467  0.00  0.00    +0.086 A 
ATOM     30 CL   UNL     1      -6.162  10.218  -0.361  0.00  0.00    -0.084 Cl
BRANCH  29  31
ATOM     31  C   UNL     1      -1.342   8.993   1.113  0.00  0.00    +0.388 C 
ATOM     32  O   UNL     1      -0.390   8.239   1.120  0.00  0.00    -0.241 OA
ATOM     33  O   UNL     1      -1.246  10.204   1.698  0.00  0.00    -0.241 OA
ENDBRANCH  29  31
ENDBRANCH  22  24
ENDBRANCH  19  20
ENDBRANCH  18  19
ENDBRANCH   5  18
TORSDOF 6
