REMARK  Name = ZINC16925720
REMARK  8 active torsions:
REMARK  status: ('A' for Active; 'I' for Inactive)
REMARK    1  A    between atoms: C_1  and  C_2
REMARK    2  A    between atoms: C_2  and  C_8
REMARK    3  A    between atoms: N_3  and  N_4
REMARK    4  A    between atoms: C_14  and  C_35
REMARK    5  A    between atoms: C_24  and  C_34
REMARK    6  A    between atoms: C_27  and  O_30
REMARK    7  A    between atoms: O_30  and  C_31
REMARK    8  A    between atoms: C_31  and  C_33
REMARK                            x       y       z     vdW  Elec       q    Type
REMARK                         _______ _______ _______ _____ _____    ______ ____
ROOT
ATOM      1  C   UNL     1      -1.623   2.798  -0.588  0.00  0.00    +0.041 C 
ATOM      2  C   UNL     1      -0.617   1.712  -1.044  0.00  0.00    +0.010 C 
ATOM      3  C   UNL     1       0.119   1.225   0.235  0.00  0.00    +0.005 C 
ATOM      4  C   UNL     1      -0.828   1.660   1.359  0.00  0.00    -0.001 C 
ATOM      5  C   UNL     1      -1.269   3.065   0.881  0.00  0.00    -0.021 C 
ATOM      6  C   UNL     1      -2.399   3.552   1.754  0.00  0.00    +0.008 C 
ATOM      7  C   UNL     1      -2.046   3.480   3.235  0.00  0.00    +0.005 C 
ATOM      8  C   UNL     1      -1.351   2.210   3.705  0.00  0.00    +0.003 C 
ATOM      9  C   UNL     1      -0.246   1.781   2.742  0.00  0.00    +0.000 C 
ATOM     10  C   UNL     1       0.434   0.498   3.199  0.00  0.00    +0.031 C 
ATOM     11  C   UNL     1      -0.572  -0.553   3.549  0.00  0.00    -0.027 C 
ATOM     12  C   UNL     1      -1.767  -0.275   3.967  0.00  0.00    -0.064 C 
ATOM     13  C   UNL     1      -2.314   1.117   4.103  0.00  0.00    -0.008 C 
ATOM     14  C   UNL     1      -2.726   1.311   5.573  0.00  0.00    +0.015 C 
ATOM     15  C   UNL     1      -3.669   0.203   6.027  0.00  0.00    +0.046 C 
ATOM     16  C   UNL     1      -3.035  -1.176   5.871  0.00  0.00    +0.180 C 
ATOM     17  C   UNL     1      -2.664  -1.422   4.404  0.00  0.00    +0.075 C 
ATOM     18  C   UNL     1      -3.590   1.190   3.265  0.00  0.00    +0.016 C 
ATOM     19  C   UNL     1      -0.116   4.069   0.912  0.00  0.00    +0.012 C 
ENDROOT
BRANCH   1  21
ATOM     20  C   UNL     1      -2.394   5.210  -1.217  0.00  0.00    +0.062 C 
ATOM     21  C   UNL     1      -1.443   4.055  -1.396  0.00  0.00    +0.037 C 
ATOM     22  N   UNL     1      -0.481   4.143  -2.237  0.00  0.00    -0.188 NA
BRANCH  22  23
ATOM     23  N   UNL     1      -0.239   5.353  -2.900  0.00  0.00    -0.191 N 
ATOM     24  C   UNL     1       0.831   5.475  -3.710  0.00  0.00    +0.317 C 
ATOM     25  O   UNL     1       1.093   6.551  -4.214  0.00  0.00    -0.251 OA
ATOM     26  N   UNL     1       1.610   4.405  -3.963  0.00  0.00    -0.312 N 
ATOM     27  H   UNL     1      -0.841   6.104  -2.775  0.00  0.00    +0.179 HD
ATOM     28  H   UNL     1       1.361   3.532  -3.622  0.00  0.00    +0.147 HD
ATOM     29  H   UNL     1       2.420   4.508  -4.487  0.00  0.00    +0.147 HD
ENDBRANCH  22  23
ENDBRANCH   1  21
BRANCH  16  30
ATOM     30  O   UNL     1      -1.837  -1.259   6.689  0.00  0.00    -0.461 OA
BRANCH  30  31
ATOM     31  C   UNL     1      -1.510  -2.469   7.170  0.00  0.00    +0.304 C 
ATOM     32  O   UNL     1      -2.200  -3.427   6.915  0.00  0.00    -0.251 OA
ATOM     33  C   UNL     1      -0.281  -2.632   8.027  0.00  0.00    +0.136 C 
ENDBRANCH  30  31
ENDBRANCH  16  30
TORSDOF 4
