REMARK  Name = ZINC37579719
REMARK  9 active torsions:
REMARK  status: ('A' for Active; 'I' for Inactive)
REMARK    1  A    between atoms: C_1  and  C_2
REMARK    2  A    between atoms: C_5  and  C_18
REMARK    3  A    between atoms: C_7  and  S_8
REMARK    4  A    between atoms: S_8  and  N_11
REMARK    5  A    between atoms: N_11  and  C_12
REMARK    6  A    between atoms: C_12  and  C_14
REMARK    7  A    between atoms: C_12  and  C_15
REMARK    8  A    between atoms: C_19  and  C_20
REMARK    9  A    between atoms: C_20  and  O_21
REMARK                            x       y       z     vdW  Elec       q    Type
REMARK                         _______ _______ _______ _____ _____    ______ ____
ROOT
ATOM      1  C   UNL     1      -0.524   1.480  -0.046  0.00  0.00    +0.046 C 
ATOM      2  C   UNL     1      -0.400  -0.022  -0.076  0.00  0.00    -0.024 A 
ATOM      3  C   UNL     1      -0.620  -0.708  -1.258  0.00  0.00    +0.006 A 
ATOM      4  C   UNL     1      -0.507  -2.082  -1.292  0.00  0.00    +0.017 A 
ATOM      5  C   UNL     1      -0.171  -2.781  -0.132  0.00  0.00    +0.027 A 
ATOM      6  C   UNL     1       0.050  -2.083   1.056  0.00  0.00    +0.045 A 
ATOM      7  C   UNL     1      -0.061  -0.708   1.076  0.00  0.00    +0.109 A 
ENDROOT
BRANCH   7   8
ATOM      8  S   UNL     1       0.224   0.176   2.574  0.00  0.00    +0.059 S 
ATOM      9  O   UNL     1       0.517  -0.795   3.569  0.00  0.00    -0.153 OA
ATOM     10  O   UNL     1       1.117   1.234   2.256  0.00  0.00    -0.153 OA
BRANCH   8  11
ATOM     11  N   UNL     1      -1.210   0.880   3.007  0.00  0.00    -0.178 NA
ATOM     12  H   UNL     1      -1.290   1.847   3.025  0.00  0.00    +0.149 HD
BRANCH  11  13
ATOM     13  C   UNL     1      -2.359   0.044   3.364  0.00  0.00    +0.159 C 
ATOM     14  C   UNL     1      -2.418  -0.118   4.884  0.00  0.00    +0.035 C 
BRANCH  13  15
ATOM     15  C   UNL     1      -3.627   0.698   2.878  0.00  0.00    +0.229 C 
ATOM     16  O   UNL     1      -3.576   1.758   2.292  0.00  0.00    -0.274 OA
ATOM     17  N   UNL     1      -4.817   0.104   3.096  0.00  0.00    -0.328 N 
ATOM     18  H   UNL     1      -4.858  -0.744   3.565  0.00  0.00    +0.145 HD
ATOM     19  H   UNL     1      -5.633   0.525   2.783  0.00  0.00    +0.145 HD
ENDBRANCH  13  15
ENDBRANCH  11  13
ENDBRANCH   8  11
ENDBRANCH   7   8
BRANCH   5  20
ATOM     20  C   UNL     1      -0.052  -4.208  -0.160  0.00  0.00    -0.064 C 
ATOM     21  C   UNL     1       0.044  -5.378  -0.183  0.00  0.00    -0.069 C 
BRANCH  21  22
ATOM     22  C   UNL     1       0.166  -6.844  -0.213  0.00  0.00    +0.244 C 
BRANCH  22  23
ATOM     23  O   UNL     1       0.517  -7.319   1.089  0.00  0.00    -0.383 OA
ATOM     24  H   UNL     1       0.614  -8.280   1.144  0.00  0.00    +0.211 HD
ENDBRANCH  22  23
ENDBRANCH  21  22
ENDBRANCH   5  20
TORSDOF 7
