REMARK  Name = ZINC34899896
REMARK  8 active torsions:
REMARK  status: ('A' for Active; 'I' for Inactive)
REMARK    1  A    between atoms: C_4  and  C_7
REMARK    2  A    between atoms: N_9  and  C_10
REMARK    3  A    between atoms: C_10  and  C_11
REMARK    4  A    between atoms: C_11  and  N_12
REMARK    5  A    between atoms: C_13  and  C_15
REMARK    6  A    between atoms: C_21  and  C_23
REMARK    7  A    between atoms: C_25  and  C_33
REMARK    8  A    between atoms: C_27  and  C_29
REMARK                            x       y       z     vdW  Elec       q    Type
REMARK                         _______ _______ _______ _____ _____    ______ ____
ROOT
ATOM      1  C   UNL     1       6.929  -6.985   0.794  0.00  0.00    +0.078 C 
ATOM      2  C   UNL     1       8.052  -6.660   1.782  0.00  0.00    +0.032 C 
ATOM      3  C   UNL     1       9.339  -7.358   1.333  0.00  0.00    +0.109 C 
ATOM      4  N   UNL     1       9.069  -8.794   1.178  0.00  0.00    -0.297 N 
ATOM      5  C   UNL     1       7.952  -9.214   0.321  0.00  0.00    +0.109 C 
ATOM      6  C   UNL     1       6.680  -8.495   0.781  0.00  0.00    +0.032 C 
ATOM      7  C   UNL     1       9.832  -9.708   1.809  0.00  0.00    +0.247 C 
ATOM      8  O   UNL     1      10.795  -9.351   2.459  0.00  0.00    -0.270 OA
ENDROOT
BRANCH   7   9
ATOM      9  C   UNL     1       9.497 -11.145   1.711  0.00  0.00    +0.038 A 
ATOM     10  C   UNL     1       9.392 -11.920   2.867  0.00  0.00    +0.025 A 
ATOM     11  C   UNL     1       9.079 -13.260   2.769  0.00  0.00    +0.056 A 
ATOM     12  C   UNL     1       8.870 -13.836   1.528  0.00  0.00    +0.024 A 
ATOM     13  C   UNL     1       8.974 -13.073   0.378  0.00  0.00    +0.056 A 
ATOM     14  C   UNL     1       9.280 -11.730   0.463  0.00  0.00    +0.025 A 
BRANCH  13  15
ATOM     15  C   UNL     1       8.745 -13.708  -0.969  0.00  0.00    +0.417 C 
ATOM     16  F   UNL     1       8.445 -15.064  -0.800  0.00  0.00    -0.166 F 
ATOM     17  F   UNL     1       7.677 -13.071  -1.610  0.00  0.00    -0.166 F 
ATOM     18  F   UNL     1       9.900 -13.579  -1.747  0.00  0.00    -0.166 F 
ENDBRANCH  13  15
BRANCH  11  19
ATOM     19  C   UNL     1       8.965 -14.099   4.015  0.00  0.00    +0.417 C 
ATOM     20  F   UNL     1       7.646 -14.065   4.481  0.00  0.00    -0.166 F 
ATOM     21  F   UNL     1       9.322 -15.420   3.723  0.00  0.00    -0.166 F 
ATOM     22  F   UNL     1       9.820 -13.591   4.999  0.00  0.00    -0.166 F 
ENDBRANCH  11  19
ENDBRANCH   7   9
BRANCH   1  24
ATOM     23  N   UNL     1       5.651  -4.927   1.297  0.00  0.00    -0.314 N 
ATOM     24  C   UNL     1       5.669  -6.272   1.214  0.00  0.00    +0.216 C 
ATOM     25  O   UNL     1       4.671  -6.909   1.477  0.00  0.00    -0.276 OA
ATOM     26  H   UNL     1       6.450  -4.418   1.087  0.00  0.00    +0.149 HD
BRANCH  23  27
ATOM     27  C   UNL     1       4.427  -4.235   1.705  0.00  0.00    +0.123 C 
BRANCH  27  28
ATOM     28  C   UNL     1       4.675  -2.725   1.718  0.00  0.00    +0.123 C 
BRANCH  28  31
ATOM     29  C   UNL     1       3.433  -0.687   2.210  0.00  0.00    +0.244 C 
ATOM     30  O   UNL     1       4.433  -0.049   1.946  0.00  0.00    -0.270 OA
ATOM     31  N   UNL     1       3.450  -2.032   2.126  0.00  0.00    -0.310 N 
ATOM     32  H   UNL     1       2.652  -2.542   2.337  0.00  0.00    +0.149 HD
BRANCH  29  36
ATOM     33  C   UNL     1      -0.119   1.321   3.392  0.00  0.00    +0.000 A 
ATOM     34  C   UNL     1       1.018   2.051   3.093  0.00  0.00    +0.001 A 
ATOM     35  C   UNL     1       2.175   1.405   2.708  0.00  0.00    +0.013 A 
ATOM     36  C   UNL     1       2.197   0.012   2.621  0.00  0.00    +0.037 A 
ATOM     37  C   UNL     1       1.046  -0.718   2.924  0.00  0.00    +0.013 A 
ATOM     38  C   UNL     1      -0.104  -0.059   3.307  0.00  0.00    +0.001 A 
ENDBRANCH  29  36
ENDBRANCH  28  31
ENDBRANCH  27  28
ENDBRANCH  23  27
ENDBRANCH   1  24
TORSDOF 8
