REMARK  Name = ZINC15443548
REMARK  5 active torsions:
REMARK  status: ('A' for Active; 'I' for Inactive)
REMARK    1  A    between atoms: C_1  and  C_2
REMARK    2  A    between atoms: C_4  and  S_11
REMARK    3  A    between atoms: C_7  and  N_8
REMARK    4  A    between atoms: N_8  and  N_9
REMARK    5  A    between atoms: S_11  and  C_14
REMARK                            x       y       z     vdW  Elec       q    Type
REMARK                         _______ _______ _______ _____ _____    ______ ____
ROOT
ATOM      1  C   UNL     1      -4.649  -1.473   3.254  0.00  0.00    +0.046 C 
ATOM      2  C   UNL     1      -4.186  -0.461   2.239  0.00  0.00    -0.027 A 
ATOM      3  C   UNL     1      -2.913   0.069   2.322  0.00  0.00    +0.033 A 
ATOM      4  C   UNL     1      -2.486   0.998   1.391  0.00  0.00    +0.102 A 
ATOM      5  C   UNL     1      -3.335   1.403   0.375  0.00  0.00    +0.044 A 
ATOM      6  C   UNL     1      -4.608   0.874   0.284  0.00  0.00    +0.041 A 
ATOM      7  C   UNL     1      -5.038  -0.060   1.218  0.00  0.00    +0.045 A 
ATOM      8 BR   UNL     1      -2.749   2.679  -0.892  0.00  0.00    -0.048 Br
ENDROOT
BRANCH   4   9
ATOM      9  S   UNL     1      -0.862   1.671   1.500  0.00  0.00    -0.005 S 
ATOM     10  O   UNL     1      -0.296   1.065   2.655  0.00  0.00    -0.170 OA
ATOM     11  O   UNL     1      -1.048   3.078   1.438  0.00  0.00    -0.170 OA
ATOM     12  C   UNL     1      -0.013   1.086   0.008  0.00  0.00    +0.200 C 
ENDBRANCH   4   9
BRANCH   7  13
ATOM     13  N   UNL     1      -6.326  -0.594   1.132  0.00  0.00    -0.283 N 
ATOM     14  H   UNL     1      -6.626  -1.245   1.785  0.00  0.00    +0.166 HD
BRANCH  13  15
ATOM     15  N   UNL     1      -7.163  -0.198   0.128  0.00  0.00    -0.257 NA
ATOM     16  H   UNL     1      -6.741  -0.351  -0.776  0.00  0.00    +0.140 HD
ATOM     17  H   UNL     1      -8.055  -0.667   0.194  0.00  0.00    +0.140 HD
ENDBRANCH  13  15
ENDBRANCH   7  13
TORSDOF 3
