REMARK  Name = ZINC39761515
REMARK  4 active torsions:
REMARK  status: ('A' for Active; 'I' for Inactive)
REMARK    1  A    between atoms: C_4  and  C_7
REMARK    2  A    between atoms: C_13  and  C_15
REMARK    3  A    between atoms: C_18  and  N_21
REMARK    4  A    between atoms: C_22  and  C_24
REMARK                            x       y       z     vdW  Elec       q    Type
REMARK                         _______ _______ _______ _____ _____    ______ ____
ROOT
ATOM      1  C   UNL     1       7.840  -4.851  -0.091  0.00  0.00    +0.037 A 
ATOM      2  C   UNL     1       7.099  -6.024   0.078  0.00  0.00    +0.015 A 
ATOM      3  C   UNL     1       7.733  -7.246   0.055  0.00  0.00    +0.024 A 
ATOM      4  C   UNL     1       9.110  -7.313  -0.135  0.00  0.00    +0.034 A 
ATOM      5  C   UNL     1       9.850  -6.147  -0.303  0.00  0.00    +0.024 A 
ATOM      6  C   UNL     1       9.222  -4.923  -0.287  0.00  0.00    +0.015 A 
ENDROOT
BRANCH   1  13
ATOM      7  C   UNL     1       3.702  -0.690   0.273  0.00  0.00    +0.250 A 
ATOM      8  N   UNL     1       4.878  -0.146   0.071  0.00  0.00    -0.106 NA
ATOM      9  N   UNL     1       5.769  -1.071  -0.005  0.00  0.00    -0.092 NA
ATOM     10  C   UNL     1       5.197  -2.241   0.145  0.00  0.00    +0.315 A 
ATOM     11  O   UNL     1       3.881  -2.027   0.329  0.00  0.00    -0.405 OA
ATOM     12  N   UNL     1       5.831  -3.472   0.122  0.00  0.00    -0.234 N 
ATOM     13  C   UNL     1       7.164  -3.540  -0.067  0.00  0.00    +0.252 C 
ATOM     14  O   UNL     1       7.809  -2.520  -0.219  0.00  0.00    -0.270 OA
ATOM     15  H   UNL     1       5.316  -4.285   0.243  0.00  0.00    +0.160 HD
BRANCH   7  19
ATOM     16  C   UNL     1       0.014   1.375   0.692  0.00  0.00    +0.000 A 
ATOM     17  C   UNL     1       1.181   2.086   0.475  0.00  0.00    +0.001 A 
ATOM     18  C   UNL     1       2.382   1.422   0.339  0.00  0.00    +0.013 A 
ATOM     19  C   UNL     1       2.419   0.029   0.419  0.00  0.00    +0.039 A 
ATOM     20  C   UNL     1       1.238  -0.683   0.637  0.00  0.00    +0.013 A 
ATOM     21  C   UNL     1       0.043  -0.006   0.772  0.00  0.00    +0.001 A 
ENDBRANCH   7  19
ENDBRANCH   1  13
BRANCH   4  22
ATOM     22  N   UNL     1       9.748  -8.552  -0.156  0.00  0.00    -0.282 N 
ATOM     23  C   UNL     1       9.114  -9.629  -0.660  0.00  0.00    +0.248 C 
ATOM     24  O   UNL     1       8.024  -9.502  -1.183  0.00  0.00    -0.270 OA
ATOM     25  H   UNL     1      10.649  -8.639   0.192  0.00  0.00    +0.155 HD
BRANCH  23  26
ATOM     26  C   UNL     1       9.743 -10.963  -0.577  0.00  0.00    +0.037 A 
ATOM     27  C   UNL     1      10.992 -11.112   0.029  0.00  0.00    +0.014 A 
ATOM     28  C   UNL     1      11.574 -12.360   0.103  0.00  0.00    +0.016 A 
ATOM     29  C   UNL     1      10.923 -13.464  -0.421  0.00  0.00    +0.018 A 
ATOM     30  C   UNL     1       9.684 -13.322  -1.023  0.00  0.00    +0.016 A 
ATOM     31  C   UNL     1       9.088 -12.081  -1.098  0.00  0.00    +0.014 A 
ATOM     32 BR   UNL     1      11.728 -15.171  -0.316  0.00  0.00    -0.050 Br
ENDBRANCH  23  26
ENDBRANCH   4  22
TORSDOF 4
