REMARK  Name = ZINC03997137
REMARK  4 active torsions:
REMARK  status: ('A' for Active; 'I' for Inactive)
REMARK    1  A    between atoms: C_3  and  C_9
REMARK    2  A    between atoms: C_11  and  C_21
REMARK    3  A    between atoms: C_16  and  N_20
REMARK    4  A    between atoms: C_17  and  C_18
REMARK                            x       y       z     vdW  Elec       q    Type
REMARK                         _______ _______ _______ _____ _____    ______ ____
ROOT
ATOM      1  C   UNL     1       3.671   2.185  -0.023  0.00  0.00    +0.086 C 
ATOM      2  C   UNL     1       3.756   3.006   1.258  0.00  0.00    +0.159 C 
ATOM      3  C   UNL     1       4.985   3.895   1.189  0.00  0.00    +0.089 C 
ATOM      4  N   UNL     1       5.970   3.772   2.019  0.00  0.00    -0.296 NA
ATOM      5  S   UNL     1       4.986   5.112  -0.100  0.00  0.00    -0.058 S 
ATOM      6  C   UNL     1       4.271   4.215  -1.443  0.00  0.00    +0.079 C 
ATOM      7  C   UNL     1       3.728   2.999  -1.266  0.00  0.00    +0.066 C 
ATOM      8  H   UNL     1       5.937   3.095   2.713  0.00  0.00    +0.187 HD
ENDROOT
BRANCH   1  11
ATOM      9  C   UNL     1      -0.017   1.379   0.010  0.00  0.00    +0.020 A 
ATOM     10  C   UNL     1       1.171   2.087   0.002  0.00  0.00    +0.007 A 
ATOM     11  C   UNL     1       2.377   1.413  -0.013  0.00  0.00    -0.019 A 
ATOM     12  C   UNL     1       2.397   0.029  -0.021  0.00  0.00    +0.046 A 
ATOM     13  C   UNL     1       1.210  -0.679  -0.013  0.00  0.00    +0.040 A 
ATOM     14  C   UNL     1       0.002  -0.004   0.002  0.00  0.00    +0.042 A 
ATOM     15 CL   UNL     1      -1.489  -0.893   0.012  0.00  0.00    -0.083 Cl
ATOM     16 CL   UNL     1       3.913  -0.817  -0.041  0.00  0.00    -0.083 Cl
ENDBRANCH   1  11
BRANCH   6  17
ATOM     17  N   UNL     1       4.267   4.776  -2.698  0.00  0.00    -0.352 N 
ATOM     18  H   UNL     1       4.654   5.654  -2.837  0.00  0.00    +0.143 HD
ATOM     19  H   UNL     1       3.878   4.293  -3.444  0.00  0.00    +0.143 HD
ENDBRANCH   6  17
BRANCH   7  20
ATOM     20  C   UNL     1       3.131   2.409  -2.426  0.00  0.00    +0.098 C 
ATOM     21  N   UNL     1       2.658   1.941  -3.347  0.00  0.00    -0.191 NA
ENDBRANCH   7  20
BRANCH   2  22
ATOM     22  C   UNL     1       2.549   3.837   1.391  0.00  0.00    +0.074 C 
ATOM     23  N   UNL     1       1.617   4.479   1.494  0.00  0.00    -0.196 NA
ENDBRANCH   2  22
TORSDOF 4
