REMARK  Name = ZINC59170665
REMARK  7 active torsions:
REMARK  status: ('A' for Active; 'I' for Inactive)
REMARK    1  A    between atoms: C_1  and  C_2
REMARK    2  A    between atoms: C_5  and  S_8
REMARK    3  A    between atoms: S_8  and  N_11
REMARK    4  A    between atoms: N_11  and  N_12
REMARK    5  A    between atoms: C_14  and  C_23
REMARK    6  A    between atoms: N_25  and  C_26
REMARK    7  A    between atoms: C_29  and  C_32
REMARK                            x       y       z     vdW  Elec       q    Type
REMARK                         _______ _______ _______ _____ _____    ______ ____
ROOT
ATOM      1  N   UNL     1       3.322  -3.591  -0.189  0.00  0.00    -0.260 N 
ATOM      2  C   UNL     1       4.407  -4.273   0.044  0.00  0.00    +0.225 A 
ATOM      3  C   UNL     1       5.057  -4.246   1.375  0.00  0.00    +0.099 A 
ATOM      4  C   UNL     1       5.804  -5.343   1.732  0.00  0.00    +0.030 A 
ATOM      5  C   UNL     1       5.896  -6.446   0.769  0.00  0.00    +0.018 A 
ATOM      6  C   UNL     1       6.404  -7.691   1.155  0.00  0.00    +0.011 A 
ATOM      7  C   UNL     1       6.479  -8.713   0.233  0.00  0.00    +0.001 A 
ATOM      8  C   UNL     1       6.053  -8.512  -1.071  0.00  0.00    +0.004 A 
ATOM      9  C   UNL     1       5.550  -7.287  -1.466  0.00  0.00    +0.047 A 
ATOM     10  C   UNL     1       5.468  -6.247  -0.555  0.00  0.00    +0.137 A 
ATOM     11  O   UNL     1       4.979  -5.040  -0.930  0.00  0.00    -0.437 OA
ATOM     12  H   UNL     1       2.884  -3.115   0.534  0.00  0.00    +0.189 HD
ENDROOT
BRANCH   3  13
ATOM     13  C   UNL     1       4.908  -3.092   2.277  0.00  0.00    +0.253 C 
ATOM     14  O   UNL     1       4.177  -2.170   1.970  0.00  0.00    -0.270 OA
ATOM     15  N   UNL     1       5.581  -3.059   3.445  0.00  0.00    -0.281 N 
ATOM     16  H   UNL     1       6.233  -3.747   3.648  0.00  0.00    +0.155 HD
BRANCH  15  17
ATOM     17  C   UNL     1       5.338  -2.032   4.361  0.00  0.00    +0.034 A 
ATOM     18  C   UNL     1       4.064  -1.490   4.475  0.00  0.00    +0.024 A 
ATOM     19  C   UNL     1       3.823  -0.477   5.379  0.00  0.00    +0.010 A 
ATOM     20  C   UNL     1       4.858   0.003   6.179  0.00  0.00    -0.018 A 
ATOM     21  C   UNL     1       6.136  -0.543   6.064  0.00  0.00    +0.010 A 
ATOM     22  C   UNL     1       6.371  -1.559   5.162  0.00  0.00    +0.024 A 
BRANCH  20  23
ATOM     23  C   UNL     1       4.601   1.092   7.152  0.00  0.00    -0.018 A 
ATOM     24  C   UNL     1       3.323   1.635   7.273  0.00  0.00    +0.008 A 
ATOM     25  C   UNL     1       3.090   2.649   8.180  0.00  0.00    +0.001 A 
ATOM     26  C   UNL     1       4.121   3.126   8.969  0.00  0.00    +0.000 A 
ATOM     27  C   UNL     1       5.391   2.590   8.854  0.00  0.00    +0.001 A 
ATOM     28  C   UNL     1       5.635   1.573   7.954  0.00  0.00    +0.008 A 
ENDBRANCH  20  23
ENDBRANCH  15  17
ENDBRANCH   3  13
BRANCH   1  29
ATOM     29  N   UNL     1       2.788  -3.543  -1.483  0.00  0.00    -0.157 N 
ATOM     30  H   UNL     1       3.183  -4.077  -2.191  0.00  0.00    +0.194 HD
BRANCH  29  31
ATOM     31  S   UNL     1       1.483  -2.577  -1.806  0.00  0.00    +0.085 S 
ATOM     32  O   UNL     1       0.431  -3.019  -0.958  0.00  0.00    -0.149 OA
ATOM     33  O   UNL     1       1.352  -2.530  -3.220  0.00  0.00    -0.149 OA
BRANCH  31  38
ATOM     34  C   UNL     1       2.908   3.007  -0.018  0.00  0.00    +0.044 C 
ATOM     35  C   UNL     1       2.552   1.612  -0.465  0.00  0.00    -0.050 A 
ATOM     36  C   UNL     1       2.928   1.171  -1.720  0.00  0.00    +0.005 A 
ATOM     37  C   UNL     1       2.601  -0.108  -2.129  0.00  0.00    +0.029 A 
ATOM     38  C   UNL     1       1.900  -0.947  -1.283  0.00  0.00    +0.110 A 
ATOM     39  C   UNL     1       1.525  -0.506  -0.028  0.00  0.00    +0.029 A 
ATOM     40  C   UNL     1       1.855   0.772   0.383  0.00  0.00    +0.005 A 
ENDBRANCH  31  38
ENDBRANCH  29  31
ENDBRANCH   1  29
TORSDOF 6
