REMARK  Name = ZINC20724283
REMARK  10 active torsions:
REMARK  status: ('A' for Active; 'I' for Inactive)
REMARK    1  A    between atoms: C_1  and  C_2
REMARK    2  A    between atoms: C_4  and  N_9
REMARK    3  A    between atoms: N_9  and  C_10
REMARK    4  A    between atoms: C_10  and  N_12
REMARK    5  A    between atoms: N_12  and  C_13
REMARK    6  A    between atoms: C_15  and  S_26
REMARK    7  A    between atoms: C_18  and  N_19
REMARK    8  A    between atoms: C_22  and  C_25
REMARK    9  A    between atoms: S_26  and  N_29
REMARK   10  A    between atoms: C_32  and  C_35
REMARK                            x       y       z     vdW  Elec       q    Type
REMARK                         _______ _______ _______ _____ _____    ______ ____
ROOT
ATOM      1  C   UNL     1       2.192   2.510  -5.520  0.00  0.00    +0.056 A 
ATOM      2  C   UNL     1       1.780   3.168  -4.372  0.00  0.00    +0.053 A 
ATOM      3  C   UNL     1       2.479   3.002  -3.191  0.00  0.00    +0.107 A 
ATOM      4  C   UNL     1       3.594   2.183  -3.152  0.00  0.00    +0.030 A 
ATOM      5  C   UNL     1       4.008   1.519  -4.291  0.00  0.00    +0.027 A 
ATOM      6  C   UNL     1       3.312   1.681  -5.480  0.00  0.00    +0.051 A 
ENDROOT
BRANCH   6   7
ATOM      7  N   UNL     1       3.733   1.013  -6.636  0.00  0.00    -0.328 N 
ATOM      8  C   UNL     1       5.056   0.405  -6.440  0.00  0.00    +0.105 C 
ATOM      9  C   UNL     1       5.546  -0.188  -7.763  0.00  0.00    +0.022 C 
ATOM     10  C   UNL     1       4.546  -1.242  -8.246  0.00  0.00    -0.011 C 
ATOM     11  C   UNL     1       3.166  -0.595  -8.395  0.00  0.00    +0.022 C 
ATOM     12  C   UNL     1       2.745   0.011  -7.054  0.00  0.00    +0.105 C 
ATOM     13  C   UNL     1       4.999  -1.796  -9.598  0.00  0.00    +0.007 C 
ENDBRANCH   6   7
BRANCH   3  14
ATOM     14  S   UNL     1       1.954   3.839  -1.732  0.00  0.00    +0.061 S 
ATOM     15  O   UNL     1       1.214   4.974  -2.161  0.00  0.00    -0.153 OA
ATOM     16  O   UNL     1       3.095   3.946  -0.892  0.00  0.00    -0.153 OA
BRANCH  14  17
ATOM     17  N   UNL     1       0.884   2.843  -0.954  0.00  0.00    -0.177 NA
ATOM     18  C   UNL     1       1.355   1.871   0.042  0.00  0.00    +0.110 C 
ATOM     19  C   UNL     1       0.835   0.481  -0.341  0.00  0.00    +0.020 C 
ATOM     20  C   UNL     1      -0.686   0.536  -0.495  0.00  0.00    -0.012 C 
ATOM     21  C   UNL     1      -1.053   1.514  -1.614  0.00  0.00    +0.020 C 
ATOM     22  C   UNL     1      -0.554   2.914  -1.246  0.00  0.00    +0.110 C 
ATOM     23  C   UNL     1      -1.214  -0.858  -0.843  0.00  0.00    +0.007 C 
ENDBRANCH  14  17
ENDBRANCH   3  14
BRANCH   1  24
ATOM     24  N   UNL     1       1.485   2.678  -6.718  0.00  0.00    -0.295 N 
ATOM     25  H   UNL     1       2.024   2.919  -7.646  0.00  0.00    +0.154 HD
BRANCH  24  26
ATOM     26  C   UNL     1       0.144   2.545  -6.734  0.00  0.00    +0.139 C 
ATOM     27  S   UNL     1      -0.709   2.300  -5.270  0.00  0.00    -0.018 S 
BRANCH  26  28
ATOM     28  N   UNL     1      -0.526   2.605  -7.902  0.00  0.00    -0.297 N 
ATOM     29  H   UNL     1       0.026   2.692  -8.849  0.00  0.00    +0.154 HD
BRANCH  28  33
ATOM     30  C   UNL     1      -4.811   4.361  -9.553  0.00  0.00    +0.045 C 
ATOM     31  C   UNL     1      -4.027   3.396  -8.701  0.00  0.00    -0.030 A 
ATOM     32  C   UNL     1      -2.647   3.446  -8.695  0.00  0.00    +0.028 A 
ATOM     33  C   UNL     1      -1.925   2.557  -7.910  0.00  0.00    +0.033 A 
ATOM     34  C   UNL     1      -2.593   1.616  -7.136  0.00  0.00    +0.025 A 
ATOM     35  C   UNL     1      -3.973   1.575  -7.142  0.00  0.00    +0.022 A 
ATOM     36  C   UNL     1      -4.690   2.462  -7.925  0.00  0.00    +0.044 A 
ATOM     37 CL   UNL     1      -6.425   2.402  -7.935  0.00  0.00    -0.083 Cl
ENDBRANCH  28  33
ENDBRANCH  26  28
ENDBRANCH  24  26
ENDBRANCH   1  24
TORSDOF 7
