REMARK  Name = ZINC15946720
REMARK  11 active torsions:
REMARK  status: ('A' for Active; 'I' for Inactive)
REMARK    1  A    between atoms: C_1  and  C_2
REMARK    2  A    between atoms: C_6  and  N_8
REMARK    3  A    between atoms: C_9  and  C_11
REMARK    4  A    between atoms: C_15  and  N_16
REMARK    5  A    between atoms: C_17  and  C_19
REMARK    6  A    between atoms: C_19  and  N_73
REMARK    7  A    between atoms: C_22  and  C_25
REMARK    8  A    between atoms: C_27  and  C_31
REMARK    9  A    between atoms: C_31  and  C_32
REMARK   10  A    between atoms: C_31  and  C_33
REMARK   11  A    between atoms: C_31  and  C_34
REMARK                            x       y       z     vdW  Elec       q    Type
REMARK                         _______ _______ _______ _____ _____    ______ ____
ROOT
ATOM      1  C   UNL     1      -1.594   7.391  -0.185  0.00  0.00    +0.069 A 
ATOM      2  C   UNL     1      -1.554   8.222   1.006  0.00  0.00    -0.023 A 
ATOM      3  C   UNL     1      -1.292   9.529   0.789  0.00  0.00    -0.004 A 
ATOM      4  S   UNL     1      -1.100   9.665  -0.966  0.00  0.00    -0.077 S 
ATOM      5  C   UNL     1      -1.358   8.009  -1.405  0.00  0.00    +0.084 A 
ATOM      6  C   UNL     1      -1.189  10.613   1.817  0.00  0.00    +0.046 C 
ATOM      7  C   UNL     1      -1.055   9.958   3.199  0.00  0.00    -0.000 C 
ATOM      8  C   UNL     1      -2.123   8.869   3.334  0.00  0.00    +0.009 C 
ATOM      9  C   UNL     1      -1.787   7.692   2.416  0.00  0.00    +0.037 C 
ENDROOT
BRANCH   1  11
ATOM     10  N   UNL     1      -0.849   5.082   0.046  0.00  0.00    -0.281 N 
ATOM     11  C   UNL     1      -1.867   5.954  -0.101  0.00  0.00    +0.251 C 
ATOM     12  O   UNL     1      -3.012   5.547  -0.164  0.00  0.00    -0.270 OA
ATOM     13  H   UNL     1       0.055   5.409   0.172  0.00  0.00    +0.155 HD
BRANCH  10  19
ATOM     14  C   UNL     1       0.254   0.550   1.597  0.00  0.00    +0.044 C 
ATOM     15  C   UNL     1      -0.578   1.486   0.759  0.00  0.00    -0.049 A 
ATOM     16  C   UNL     1      -1.587   0.984  -0.042  0.00  0.00    +0.003 A 
ATOM     17  C   UNL     1      -2.349   1.838  -0.817  0.00  0.00    +0.002 A 
ATOM     18  C   UNL     1      -2.110   3.199  -0.786  0.00  0.00    +0.023 A 
ATOM     19  C   UNL     1      -1.097   3.706   0.017  0.00  0.00    +0.034 A 
ATOM     20  C   UNL     1      -0.330   2.844   0.790  0.00  0.00    +0.026 A 
ENDBRANCH  10  19
ENDBRANCH   1  11
BRANCH   5  21
ATOM     21  N   UNL     1      -1.337   7.440  -2.670  0.00  0.00    -0.281 N 
ATOM     22  C   UNL     1      -1.088   8.206  -3.750  0.00  0.00    +0.201 C 
ATOM     23  O   UNL     1      -0.882   9.394  -3.616  0.00  0.00    -0.278 OA
ATOM     24  H   UNL     1      -1.501   6.490  -2.776  0.00  0.00    +0.155 HD
BRANCH  22  25
ATOM     25  C   UNL     1      -1.064   7.588  -5.124  0.00  0.00    +0.019 C 
BRANCH  25  32
ATOM     26  C   UNL     1      -0.635   8.071  -7.457  0.00  0.00    -0.078 C 
ATOM     27  C   UNL     1      -0.344   9.198  -8.450  0.00  0.00    -0.016 C 
ATOM     28  C   UNL     1      -1.556  10.132  -8.525  0.00  0.00    -0.018 C 
ATOM     29  C   UNL     1      -1.857  10.676  -7.126  0.00  0.00    -0.016 C 
ATOM     30  C   UNL     1      -2.104   9.507  -6.171  0.00  0.00    -0.078 C 
ATOM     31  C   UNL     1      -1.248  11.294  -9.471  0.00  0.00    +0.007 C 
ATOM     32  N   UNL     1      -0.893   8.660  -6.125  0.00  0.00    +0.385 N 
ATOM     33  H   UNL     1      -0.090   9.242  -5.857  0.00  0.00    -0.081 HD
ENDBRANCH  25  32
ENDBRANCH  22  25
ENDBRANCH   5  21
BRANCH   7  34
ATOM     34  C   UNL     1      -1.257  11.013   4.288  0.00  0.00    -0.035 C 
ATOM     35  C   UNL     1      -1.140  10.354   5.664  0.00  0.00    +0.011 C 
ATOM     36  C   UNL     1      -0.188  12.099   4.151  0.00  0.00    +0.011 C 
ATOM     37  C   UNL     1      -2.644  11.640   4.139  0.00  0.00    +0.011 C 
ENDBRANCH   7  34
TORSDOF 6
