REMARK  Name = ZINC11325235
REMARK  6 active torsions:
REMARK  status: ('A' for Active; 'I' for Inactive)
REMARK    1  A    between atoms: C_3  and  N_20
REMARK    2  A    between atoms: C_6  and  N_7
REMARK    3  A    between atoms: C_8  and  C_10
REMARK    4  A    between atoms: C_15  and  N_16
REMARK    5  A    between atoms: N_20  and  S_21
REMARK    6  A    between atoms: S_21  and  C_24
REMARK                            x       y       z     vdW  Elec       q    Type
REMARK                         _______ _______ _______ _____ _____    ______ ____
ROOT
ATOM      1  C   UNL     1       6.165   1.492  -3.281  0.00  0.00    +0.025 A 
ATOM      2  C   UNL     1       6.002   0.623  -2.221  0.00  0.00    +0.026 A 
ATOM      3  C   UNL     1       4.869   0.709  -1.422  0.00  0.00    +0.048 A 
ATOM      4  C   UNL     1       3.898   1.665  -1.692  0.00  0.00    +0.026 A 
ATOM      5  C   UNL     1       4.065   2.537  -2.749  0.00  0.00    +0.025 A 
ATOM      6  C   UNL     1       5.197   2.452  -3.549  0.00  0.00    +0.034 A 
ENDROOT
BRANCH   6   7
ATOM      7  N   UNL     1       5.363   3.333  -4.624  0.00  0.00    -0.281 N 
ATOM      8  C   UNL     1       4.987   4.622  -4.504  0.00  0.00    +0.250 C 
ATOM      9  O   UNL     1       4.585   5.040  -3.435  0.00  0.00    -0.270 OA
ATOM     10  H   UNL     1       5.749   3.017  -5.456  0.00  0.00    +0.155 HD
BRANCH   8  11
ATOM     11  C   UNL     1       5.063   5.526  -5.670  0.00  0.00    +0.067 A 
ATOM     12  C   UNL     1       6.279   5.719  -6.329  0.00  0.00    +0.017 A 
ATOM     13  C   UNL     1       6.344   6.564  -7.417  0.00  0.00    +0.021 A 
ATOM     14  C   UNL     1       5.205   7.220  -7.856  0.00  0.00    +0.043 A 
ATOM     15  C   UNL     1       3.997   7.033  -7.207  0.00  0.00    +0.053 A 
ATOM     16  C   UNL     1       3.918   6.186  -6.121  0.00  0.00    +0.140 A 
ATOM     17 CL   UNL     1       5.295   8.283  -9.226  0.00  0.00    -0.083 Cl
BRANCH  16  18
ATOM     18  N   UNL     1       2.625   5.982  -5.431  0.00  0.00    +0.057 N 
ATOM     19  O   UNL     1       1.655   6.647  -5.748  0.00  0.00    -0.126 OA
ATOM     20  O   UNL     1       2.530   5.149  -4.547  0.00  0.00    -0.126 OA
ENDBRANCH  16  18
ENDBRANCH   8  11
ENDBRANCH   6   7
BRANCH   3  21
ATOM     21  N   UNL     1       4.703  -0.172  -0.348  0.00  0.00    -0.216 N 
ATOM     22  H   UNL     1       4.062  -0.898  -0.410  0.00  0.00    +0.174 HD
BRANCH  21  23
ATOM     23  S   UNL     1       5.601   0.023   1.030  0.00  0.00    +0.072 S 
ATOM     24  O   UNL     1       6.957   0.133   0.619  0.00  0.00    -0.150 OA
ATOM     25  O   UNL     1       5.160  -0.970   1.946  0.00  0.00    -0.150 OA
BRANCH  23  26
ATOM     26  C   UNL     1       5.157   1.581   1.724  0.00  0.00    +0.112 A 
ATOM     27  C   UNL     1       4.050   1.680   2.546  0.00  0.00    +0.032 A 
ATOM     28  C   UNL     1       3.698   2.900   3.091  0.00  0.00    +0.051 A 
ATOM     29  C   UNL     1       4.455   4.029   2.814  0.00  0.00    +0.162 A 
ATOM     30  C   UNL     1       5.569   3.929   1.990  0.00  0.00    +0.164 A 
ATOM     31  C   UNL     1       5.916   2.702   1.446  0.00  0.00    +0.078 A 
ATOM     32  O   UNL     1       6.330   5.023   1.712  0.00  0.00    -0.485 OA
ATOM     33  C   UNL     1       5.739   6.301   1.971  0.00  0.00    +0.270 C 
ATOM     34  C   UNL     1       5.086   6.256   3.359  0.00  0.00    +0.270 C 
ATOM     35  O   UNL     1       4.091   5.226   3.352  0.00  0.00    -0.485 OA
ENDBRANCH  23  26
ENDBRANCH  21  23
ENDBRANCH   3  21
TORSDOF 6
