REMARK  Name = ZINC38653529
REMARK  10 active torsions:
REMARK  status: ('A' for Active; 'I' for Inactive)
REMARK    1  A    between atoms: C_1  and  C_2
REMARK    2  A    between atoms: C_4  and  O_43
REMARK    3  A    between atoms: C_14  and  C_15
REMARK    4  A    between atoms: C_14  and  O_32
REMARK    5  A    between atoms: C_15  and  C_17
REMARK    6  A    between atoms: C_17  and  O_18
REMARK    7  A    between atoms: O_18  and  C_19
REMARK    8  A    between atoms: C_19  and  C_21
REMARK    9  A    between atoms: C_27  and  C_29
REMARK   10  A    between atoms: C_41  and  C_42
REMARK                            x       y       z     vdW  Elec       q    Type
REMARK                         _______ _______ _______ _____ _____    ______ ____
ROOT
ATOM      1  C   UNL     1      -0.249   1.355  -0.750  0.00  0.00    +0.015 C 
ATOM      2  C   UNL     1      -0.295  -0.173  -0.702  0.00  0.00    +0.009 C 
ATOM      3  C   UNL     1       0.552  -0.804  -1.812  0.00  0.00    +0.041 C 
ATOM      4  C   UNL     1       2.038  -0.611  -1.526  0.00  0.00    +0.120 C 
ATOM      5  C   UNL     1       2.390  -1.339  -0.223  0.00  0.00    +0.035 C 
ATOM      6  C   UNL     1       1.607  -0.697   0.921  0.00  0.00    -0.000 C 
ATOM      7  C   UNL     1       0.128  -0.718   0.672  0.00  0.00    +0.002 C 
ATOM      8  C   UNL     1      -0.442  -2.148   0.684  0.00  0.00    +0.008 C 
ATOM      9  C   UNL     1      -1.819  -1.992  -0.001  0.00  0.00    +0.043 C 
ATOM     10  C   UNL     1      -1.739  -0.719  -0.864  0.00  0.00    +0.133 C 
ATOM     11  C   UNL     1       1.930  -1.405   2.239  0.00  0.00    +0.008 C 
ATOM     12  C   UNL     1       3.414  -1.222   2.574  0.00  0.00    +0.032 C 
ATOM     13  C   UNL     1       4.226  -1.719   1.393  0.00  0.00    -0.056 C 
ATOM     14  C   UNL     1       5.194  -2.601   1.604  0.00  0.00    +0.051 C 
ATOM     15  C   UNL     1       5.989  -3.121   0.481  0.00  0.00    +0.179 C 
ATOM     16  O   UNL     1       6.904  -3.899   0.674  0.00  0.00    -0.288 OA
ATOM     17  C   UNL     1       5.651  -2.679  -0.883  0.00  0.00    +0.047 C 
ATOM     18  C   UNL     1       4.685  -1.793  -1.069  0.00  0.00    -0.012 C 
ATOM     19  C   UNL     1       3.895  -1.191   0.027  0.00  0.00    +0.013 C 
ATOM     20  C   UNL     1       4.222   0.303   0.025  0.00  0.00    +0.020 C 
ENDROOT
BRANCH  10  21
ATOM     21  C   UNL     1      -2.007  -1.054  -2.309  0.00  0.00    +0.202 C 
ATOM     22  O   UNL     1      -1.859  -2.186  -2.703  0.00  0.00    -0.291 OA
BRANCH  21  23
ATOM     23  C   UNL     1      -2.460   0.022  -3.261  0.00  0.00    +0.309 C 
BRANCH  23  24
ATOM     24  O   UNL     1      -2.646  -0.540  -4.562  0.00  0.00    -0.457 OA
BRANCH  24  25
ATOM     25  C   UNL     1      -3.051   0.293  -5.533  0.00  0.00    +0.312 C 
ATOM     26  O   UNL     1      -3.242   1.460  -5.287  0.00  0.00    -0.250 OA
BRANCH  25  27
ATOM     27  C   UNL     1      -3.268  -0.228  -6.930  0.00  0.00    +0.116 C 
ATOM     28  C   UNL     1      -3.084   0.909  -7.938  0.00  0.00    +0.042 C 
ATOM     29  C   UNL     1      -4.219   1.885  -7.829  0.00  0.00    -0.030 C 
ATOM     30  C   UNL     1      -5.345   1.625  -7.247  0.00  0.00    -0.030 C 
ATOM     31  C   UNL     1      -5.670   0.316  -6.590  0.00  0.00    +0.042 C 
ATOM     32  C   UNL     1      -4.696  -0.772  -7.062  0.00  0.00    +0.120 C 
BRANCH  32  33
ATOM     33  C   UNL     1      -4.850  -2.005  -6.208  0.00  0.00    +0.360 C 
ATOM     34  O   UNL     1      -5.934  -2.280  -5.724  0.00  0.00    -0.246 OA
ATOM     35  O   UNL     1      -3.889  -2.727  -6.002  0.00  0.00    -0.246 OA
ENDBRANCH  32  33
ENDBRANCH  25  27
ENDBRANCH  24  25
ENDBRANCH  23  24
ENDBRANCH  21  23
ENDBRANCH  10  21
BRANCH  10  36
ATOM     36  O   UNL     1      -2.684   0.248  -0.401  0.00  0.00    -0.380 OA
ATOM     37  H   UNL     1      -3.605  -0.035  -0.476  0.00  0.00    +0.211 HD
ENDBRANCH  10  36
BRANCH   4  38
ATOM     38  O   UNL     1       2.322   0.783  -1.391  0.00  0.00    -0.391 OA
ATOM     39  H   UNL     1       2.114   1.305  -2.178  0.00  0.00    +0.210 HD
ENDBRANCH   4  38
TORSDOF 8
