REMARK  Name = ZINC15737486
REMARK  7 active torsions:
REMARK  status: ('A' for Active; 'I' for Inactive)
REMARK    1  A    between atoms: C_1  and  C_2
REMARK    2  A    between atoms: C_2  and  C_4
REMARK    3  A    between atoms: C_2  and  N_14
REMARK    4  A    between atoms: C_15  and  C_17
REMARK    5  A    between atoms: C_20  and  S_23
REMARK    6  A    between atoms: S_23  and  N_26
REMARK    7  A    between atoms: N_26  and  C_27
REMARK                            x       y       z     vdW  Elec       q    Type
REMARK                         _______ _______ _______ _____ _____    ______ ____
ROOT
ATOM      1  C   UNL     1      -2.426   2.699  -3.608  0.00  0.00    +0.037 A 
ATOM      2  C   UNL     1      -1.486   3.566  -3.048  0.00  0.00    +0.015 A 
ATOM      3  C   UNL     1      -0.756   3.170  -1.946  0.00  0.00    +0.029 A 
ATOM      4  C   UNL     1      -0.954   1.915  -1.397  0.00  0.00    +0.105 A 
ATOM      5  C   UNL     1      -1.879   1.049  -1.950  0.00  0.00    +0.029 A 
ATOM      6  C   UNL     1      -2.620   1.435  -3.048  0.00  0.00    +0.015 A 
ENDROOT
BRANCH   1   8
ATOM      7  N   UNL     1      -4.118   2.278  -5.327  0.00  0.00    -0.308 N 
ATOM      8  C   UNL     1      -3.211   3.117  -4.788  0.00  0.00    +0.244 C 
ATOM      9  O   UNL     1      -3.040   4.219  -5.273  0.00  0.00    -0.270 OA
ATOM     10  H   UNL     1      -4.255   1.399  -4.939  0.00  0.00    +0.149 HD
BRANCH   7  12
ATOM     11  C   UNL     1      -6.121   3.486  -6.038  0.00  0.00    +0.028 C 
ATOM     12  C   UNL     1      -4.896   2.692  -6.496  0.00  0.00    +0.076 C 
BRANCH  12  13
ATOM     13  C   UNL     1      -5.352   1.454  -7.271  0.00  0.00    -0.010 C 
ATOM     14  C   UNL     1      -6.219   0.577  -6.366  0.00  0.00    +0.012 C 
ATOM     15  C   UNL     1      -6.674  -0.662  -7.140  0.00  0.00    -0.010 C 
ATOM     16  C   UNL     1      -7.487  -0.229  -8.362  0.00  0.00    +0.007 C 
ATOM     17  C   UNL     1      -6.620   0.648  -9.267  0.00  0.00    -0.010 C 
ATOM     18  C   UNL     1      -6.165   1.887  -8.492  0.00  0.00    +0.012 C 
ATOM     19  C   UNL     1      -5.395  -0.146  -9.725  0.00  0.00    +0.007 C 
ATOM     20  C   UNL     1      -4.582  -0.579  -8.503  0.00  0.00    -0.010 C 
ATOM     21  C   UNL     1      -5.449  -1.456  -7.598  0.00  0.00    +0.007 C 
ATOM     22  C   UNL     1      -4.127   0.659  -7.729  0.00  0.00    +0.012 C 
ENDBRANCH  12  13
ENDBRANCH   7  12
ENDBRANCH   1   8
BRANCH   4  23
ATOM     23  S   UNL     1      -0.017   1.417   0.010  0.00  0.00    +0.059 S 
ATOM     24  O   UNL     1       0.002  -0.004   0.002  0.00  0.00    -0.153 OA
ATOM     25  O   UNL     1       1.172   2.195   0.003  0.00  0.00    -0.153 OA
BRANCH  23  26
ATOM     26  N   UNL     1      -0.872   1.871   1.353  0.00  0.00    -0.185 NA
ATOM     27  H   UNL     1      -0.510   2.541   1.955  0.00  0.00    +0.148 HD
BRANCH  26  28
ATOM     28  C   UNL     1      -2.174   1.261   1.634  0.00  0.00    +0.099 C 
ATOM     29  C   UNL     1      -3.297   2.168   1.104  0.00  0.00    +0.044 C 
ATOM     30  C   UNL     1      -4.661   1.704   1.669  0.00  0.00    +0.167 C 
ATOM     31  S   UNL     1      -4.193   0.931   3.270  0.00  0.00    -0.029 S 
ATOM     32  O   UNL     1      -4.528  -0.450   3.233  0.00  0.00    -0.174 OA
ATOM     33  O   UNL     1      -4.678   1.739   4.334  0.00  0.00    -0.174 OA
ATOM     34  C   UNL     1      -2.362   1.107   3.170  0.00  0.00    +0.186 C 
ENDBRANCH  26  28
ENDBRANCH  23  26
ENDBRANCH   4  23
TORSDOF 6
