REMARK  Name = ZINC02905545
REMARK  9 active torsions:
REMARK  status: ('A' for Active; 'I' for Inactive)
REMARK    1  A    between atoms: C_1  and  C_2
REMARK    2  A    between atoms: C_7  and  C_8
REMARK    3  A    between atoms: N_10  and  C_11
REMARK    4  A    between atoms: C_11  and  C_13
REMARK    5  A    between atoms: C_11  and  N_17
REMARK    6  A    between atoms: N_17  and  C_19
REMARK    7  A    between atoms: C_19  and  N_21
REMARK    8  A    between atoms: N_21  and  C_22
REMARK    9  A    between atoms: C_23  and  C_31
REMARK                            x       y       z     vdW  Elec       q    Type
REMARK                         _______ _______ _______ _____ _____    ______ ____
ROOT
ATOM      1  N   UNL     1      -3.060   7.860  -2.465  0.00  0.00    -0.305 N 
ATOM      2  H   UNL     1      -3.128   8.523  -1.760  0.00  0.00    +0.150 HD
ENDROOT
BRANCH   1   3
ATOM      3  C   UNL     1      -2.887   6.560  -2.155  0.00  0.00    +0.136 C 
ATOM      4  S   UNL     1      -2.768   5.391  -3.399  0.00  0.00    -0.019 S 
BRANCH   3   5
ATOM      5  N   UNL     1      -2.807   6.181  -0.864  0.00  0.00    -0.290 N 
ATOM      6  H   UNL     1      -2.875   6.844  -0.158  0.00  0.00    +0.154 HD
BRANCH   5   7
ATOM      7  C   UNL     1      -2.628   4.843  -0.544  0.00  0.00    +0.089 A 
ATOM      8  C   UNL     1      -2.524   4.264   0.712  0.00  0.00    +0.084 A 
ATOM      9  C   UNL     1      -2.339   2.824   0.775  0.00  0.00    -0.018 A 
ATOM     10  C   UNL     1      -2.288   2.198  -0.421  0.00  0.00    -0.004 A 
ATOM     11  S   UNL     1      -2.482   3.490  -1.616  0.00  0.00    -0.077 S 
ATOM     12  C   UNL     1      -2.106   0.732  -0.666  0.00  0.00    +0.043 C 
ATOM     13  C   UNL     1      -1.610   0.083   0.634  0.00  0.00    +0.005 C 
ATOM     14  C   UNL     1      -2.484   0.565   1.795  0.00  0.00    +0.005 C 
ATOM     15  C   UNL     1      -2.209   2.042   2.076  0.00  0.00    +0.037 C 
BRANCH   8  16
ATOM     16  C   UNL     1      -2.595   5.056   1.903  0.00  0.00    +0.102 C 
ATOM     17  N   UNL     1      -2.651   5.684   2.848  0.00  0.00    -0.191 NA
ENDBRANCH   8  16
ENDBRANCH   5   7
ENDBRANCH   3   5
ENDBRANCH   1   3
BRANCH   1  18
ATOM     18  C   UNL     1      -3.147   8.273  -3.869  0.00  0.00    +0.211 C 
BRANCH  18  21
ATOM     19  C   UNL     1      -5.263   7.718  -4.943  0.00  0.00    +0.246 C 
ATOM     20  O   UNL     1      -4.759   6.683  -5.334  0.00  0.00    -0.270 OA
ATOM     21  N   UNL     1      -4.540   8.581  -4.202  0.00  0.00    -0.289 N 
ATOM     22  H   UNL     1      -4.942   9.406  -3.889  0.00  0.00    +0.151 HD
BRANCH  19  29
ATOM     23  C   UNL     1      -6.720   5.987  -6.746  0.00  0.00    +0.044 C 
ATOM     24  C   UNL     1      -7.381   7.201  -6.147  0.00  0.00    -0.038 A 
ATOM     25  C   UNL     1      -8.693   7.497  -6.457  0.00  0.00    +0.004 A 
ATOM     26  C   UNL     1      -9.302   8.611  -5.907  0.00  0.00    +0.000 A 
ATOM     27  C   UNL     1      -8.601   9.436  -5.046  0.00  0.00    +0.001 A 
ATOM     28  C   UNL     1      -7.290   9.149  -4.724  0.00  0.00    +0.013 A 
ATOM     29  C   UNL     1      -6.668   8.029  -5.279  0.00  0.00    +0.040 A 
ENDBRANCH  19  29
ENDBRANCH  18  21
BRANCH  18  30
ATOM     30  C   UNL     1      -2.283   9.516  -4.089  0.00  0.00    +0.225 C 
ATOM     31 CL   UNL     1      -0.569   9.136  -3.679  0.00  0.00    -0.080 Cl
ATOM     32 CL   UNL     1      -2.389  10.023  -5.816  0.00  0.00    -0.080 Cl
ATOM     33 CL   UNL     1      -2.872  10.852  -3.032  0.00  0.00    -0.080 Cl
ENDBRANCH  18  30
ENDBRANCH   1  18
TORSDOF 8
