REMARK  Name = ZINC35324910
REMARK  7 active torsions:
REMARK  status: ('A' for Active; 'I' for Inactive)
REMARK    1  A    between atoms: C_1  and  C_2
REMARK    2  A    between atoms: C_2  and  N_3
REMARK    3  A    between atoms: C_9  and  C_15
REMARK    4  A    between atoms: C_19  and  O_23
REMARK    5  A    between atoms: C_20  and  O_21
REMARK    6  A    between atoms: O_21  and  C_22
REMARK    7  A    between atoms: O_23  and  C_24
REMARK                            x       y       z     vdW  Elec       q    Type
REMARK                         _______ _______ _______ _____ _____    ______ ____
ROOT
ATOM      1  N   UNL     1      -1.372  -0.511   0.012  0.00  0.00    -0.324 N 
ATOM      2  C   UNL     1      -1.607  -1.877   0.007  0.00  0.00    +0.160 A 
ATOM      3  N   UNL     1      -0.727  -2.858  -0.001  0.00  0.00    -0.210 NA
ATOM      4  C   UNL     1      -1.102  -4.131  -0.006  0.00  0.00    +0.138 A 
ATOM      5  C   UNL     1      -2.453  -4.333   0.005  0.00  0.00    +0.041 A 
ATOM      6  S   UNL     1      -3.088  -2.684   0.017  0.00  0.00    -0.055 S 
ATOM      7  C   UNL     1      -3.142  -5.653   0.016  0.00  0.00    +0.072 C 
ATOM      8  C   UNL     1      -2.217  -6.680  -0.655  0.00  0.00    +0.109 C 
ATOM      9  C   UNL     1      -0.795  -6.480  -0.214  0.00  0.00    +0.219 C 
ATOM     10  O   UNL     1      -0.103  -7.461  -0.036  0.00  0.00    -0.275 OA
ATOM     11  N   UNL     1      -0.252  -5.267  -0.009  0.00  0.00    -0.270 N 
ATOM     12  H   UNL     1      -2.118   0.109   0.023  0.00  0.00    +0.148 HD
ATOM     13  H   UNL     1       0.703  -5.171   0.135  0.00  0.00    +0.156 HD
ENDROOT
BRANCH   7  14
ATOM     14  C   UNL     1      -3.420  -6.070   1.437  0.00  0.00    +0.010 A 
ATOM     15  C   UNL     1      -2.373  -6.230   2.327  0.00  0.00    +0.057 A 
ATOM     16  C   UNL     1      -2.624  -6.613   3.635  0.00  0.00    +0.170 A 
ATOM     17  C   UNL     1      -3.932  -6.838   4.054  0.00  0.00    +0.211 A 
ATOM     18  C   UNL     1      -4.982  -6.678   3.160  0.00  0.00    +0.208 A 
ATOM     19  C   UNL     1      -4.724  -6.287   1.851  0.00  0.00    +0.169 A 
ATOM     20  O   UNL     1      -3.912  -7.201   5.371  0.00  0.00    -0.449 OA
ATOM     21  C   UNL     1      -2.553  -7.593   5.641  0.00  0.00    +0.467 C 
ATOM     22  O   UNL     1      -1.783  -6.836   4.688  0.00  0.00    -0.452 OA
BRANCH  19  23
ATOM     23  O   UNL     1      -5.753  -6.123   0.975  0.00  0.00    -0.491 OA
ATOM     24  C   UNL     1      -6.147  -7.269   0.217  0.00  0.00    +0.277 C 
ENDBRANCH  19  23
BRANCH  18  25
ATOM     25  O   UNL     1      -6.262  -6.896   3.567  0.00  0.00    -0.488 OA
ATOM     26  C   UNL     1      -6.974  -5.778   4.099  0.00  0.00    +0.277 C 
ENDBRANCH  18  25
ENDBRANCH   7  14
BRANCH   1  28
ATOM     27  C   UNL     1      -0.019   1.526   0.010  0.00  0.00    +0.024 C 
ATOM     28  C   UNL     1       0.002  -0.004   0.002  0.00  0.00    +0.100 C 
ENDBRANCH   1  28
TORSDOF 4
