REMARK  Name = ZINC39686754
REMARK  10 active torsions:
REMARK  status: ('A' for Active; 'I' for Inactive)
REMARK    1  A    between atoms: C_1  and  C_2
REMARK    2  A    between atoms: C_7  and  C_8
REMARK    3  A    between atoms: C_8  and  C_9
REMARK    4  A    between atoms: C_13  and  C_22
REMARK    5  A    between atoms: N_24  and  C_25
REMARK    6  A    between atoms: C_25  and  C_27
REMARK    7  A    between atoms: C_25  and  C_28
REMARK    8  A    between atoms: C_28  and  C_29
REMARK    9  A    between atoms: C_34  and  O_35
REMARK   10  A    between atoms: O_35  and  C_36
REMARK                            x       y       z     vdW  Elec       q    Type
REMARK                         _______ _______ _______ _____ _____    ______ ____
ROOT
ATOM      1  C   UNL     1      -1.472   0.375   2.907  0.00  0.00    +0.220 C 
ATOM      2  O   UNL     1      -2.401   0.072   2.188  0.00  0.00    -0.275 OA
ATOM      3  N   UNL     1      -1.697   1.063   4.045  0.00  0.00    -0.300 N 
ATOM      4  C   UNL     1      -0.700   1.524   5.039  0.00  0.00    +0.121 C 
ATOM      5  C   UNL     1      -1.190   2.928   5.460  0.00  0.00    +0.100 C 
ATOM      6  C   UNL     1      -2.698   2.923   5.161  0.00  0.00    -0.004 C 
ATOM      7  C   UNL     1      -2.997   1.533   4.580  0.00  0.00    +0.115 C 
ATOM      8  C   UNL     1      -3.037   4.000   4.135  0.00  0.00    -0.010 C 
ATOM      9  C   UNL     1      -4.549   4.014   3.897  0.00  0.00    -0.082 C 
ATOM     10  N   UNL     1      -5.244   4.280   5.162  0.00  0.00    +0.379 N 
ATOM     11  C   UNL     1      -4.987   3.191   6.112  0.00  0.00    -0.082 C 
ATOM     12  C   UNL     1      -3.493   3.142   6.445  0.00  0.00    -0.010 C 
ATOM     13  H   UNL     1      -4.910   5.149   5.551  0.00  0.00    -0.086 HD
ATOM     14  H   UNL     1      -6.236   4.349   4.992  0.00  0.00    -0.086 HD
ENDROOT
BRANCH   5  15
ATOM     15  C   UNL     1      -0.945   3.149   6.931  0.00  0.00    +0.218 C 
ATOM     16  O   UNL     1      -1.008   2.216   7.703  0.00  0.00    -0.275 OA
ATOM     17  N   UNL     1      -0.656   4.384   7.387  0.00  0.00    -0.312 N 
ATOM     18  H   UNL     1      -0.605   5.130   6.770  0.00  0.00    +0.149 HD
BRANCH  17  19
ATOM     19  C   UNL     1      -0.418   4.599   8.817  0.00  0.00    +0.074 C 
ATOM     20  C   UNL     1       1.046   4.296   9.142  0.00  0.00    +0.028 C 
BRANCH  19  21
ATOM     21  C   UNL     1      -0.728   6.055   9.172  0.00  0.00    +0.060 C 
BRANCH  21  22
ATOM     22  C   UNL     1      -2.198   6.319   8.968  0.00  0.00    -0.004 A 
ATOM     23  C   UNL     1      -2.645   6.855   7.775  0.00  0.00    +0.007 A 
ATOM     24  C   UNL     1      -3.993   7.099   7.588  0.00  0.00    +0.000 A 
ATOM     25  C   UNL     1      -4.897   6.807   8.593  0.00  0.00    +0.004 A 
ATOM     26  C   UNL     1      -4.455   6.271   9.787  0.00  0.00    +0.046 A 
ATOM     27  C   UNL     1      -3.103   6.020   9.975  0.00  0.00    +0.123 A 
BRANCH  27  28
ATOM     28  O   UNL     1      -2.667   5.488  11.147  0.00  0.00    -0.495 OA
ATOM     29  C   UNL     1      -3.655   5.205  12.139  0.00  0.00    +0.277 C 
ENDBRANCH  27  28
ENDBRANCH  21  22
ENDBRANCH  19  21
ENDBRANCH  17  19
ENDBRANCH   5  15
BRANCH   1  30
ATOM     30  C   UNL     1      -0.067  -0.017   2.529  0.00  0.00    +0.131 C 
BRANCH  30  37
ATOM     31  C   UNL     1      -0.042   1.426   0.026  0.00  0.00    +0.044 C 
ATOM     32  C   UNL     1      -0.078  -0.081   0.027  0.00  0.00    -0.047 A 
ATOM     33  C   UNL     1      -0.093  -0.773  -1.170  0.00  0.00    +0.003 A 
ATOM     34  C   UNL     1      -0.126  -2.155  -1.169  0.00  0.00    +0.000 A 
ATOM     35  C   UNL     1      -0.143  -2.845   0.029  0.00  0.00    +0.000 A 
ATOM     36  C   UNL     1      -0.127  -2.153   1.225  0.00  0.00    +0.004 A 
ATOM     37  C   UNL     1      -0.090  -0.771   1.224  0.00  0.00    -0.036 A 
ENDBRANCH  30  37
ENDBRANCH   1  30
TORSDOF 7
