REMARK  Name = ZINC22364938
REMARK  10 active torsions:
REMARK  status: ('A' for Active; 'I' for Inactive)
REMARK    1  A    between atoms: C_1  and  C_2
REMARK    2  A    between atoms: C_4  and  N_9
REMARK    3  A    between atoms: N_9  and  C_10
REMARK    4  A    between atoms: N_9  and  S_29
REMARK    5  A    between atoms: C_10  and  C_11
REMARK    6  A    between atoms: N_13  and  C_14
REMARK    7  A    between atoms: C_14  and  C_16
REMARK    8  A    between atoms: C_14  and  C_17
REMARK    9  A    between atoms: C_20  and  N_23
REMARK   10  A    between atoms: S_29  and  C_32
REMARK                            x       y       z     vdW  Elec       q    Type
REMARK                         _______ _______ _______ _____ _____    ______ ____
ROOT
ATOM      1  C   UNL     1       2.403  -2.037  -1.530  0.00  0.00    +0.233 C 
ATOM      2  O   UNL     1       1.539  -2.854  -1.291  0.00  0.00    -0.274 OA
ATOM      3  N   UNL     1       3.685  -2.431  -1.665  0.00  0.00    -0.307 N 
ATOM      4  H   UNL     1       4.468  -1.690  -1.881  0.00  0.00    +0.149 HD
ENDROOT
BRANCH   3   5
ATOM      5  C   UNL     1       4.035  -3.847  -1.523  0.00  0.00    +0.100 C 
ATOM      6  C   UNL     1       4.243  -4.174  -0.043  0.00  0.00    +0.033 C 
BRANCH   5   7
ATOM      7  C   UNL     1       5.305  -4.129  -2.283  0.00  0.00    -0.027 A 
ATOM      8  C   UNL     1       6.338  -3.210  -2.265  0.00  0.00    +0.007 A 
ATOM      9  C   UNL     1       7.505  -3.468  -2.957  0.00  0.00    +0.023 A 
ATOM     10  C   UNL     1       7.636  -4.647  -3.680  0.00  0.00    +0.030 A 
ATOM     11  C   UNL     1       6.594  -5.565  -3.700  0.00  0.00    +0.023 A 
ATOM     12  C   UNL     1       5.432  -5.303  -3.002  0.00  0.00    +0.007 A 
BRANCH  10  13
ATOM     13  N   UNL     1       8.814  -4.909  -4.384  0.00  0.00    -0.330 N 
ATOM     14  C   UNL     1       9.399  -6.192  -3.974  0.00  0.00    +0.105 C 
ATOM     15  C   UNL     1      10.601  -6.514  -4.864  0.00  0.00    +0.019 C 
ATOM     16  C   UNL     1      11.638  -5.395  -4.737  0.00  0.00    +0.003 C 
ATOM     17  C   UNL     1      10.990  -4.063  -5.124  0.00  0.00    +0.019 C 
ATOM     18  C   UNL     1       9.777  -3.812  -4.226  0.00  0.00    +0.105 C 
ENDBRANCH  10  13
ENDBRANCH   5   7
ENDBRANCH   3   5
BRANCH   1  19
ATOM     19  C   UNL     1       2.043  -0.581  -1.676  0.00  0.00    +0.226 C 
BRANCH  19  20
ATOM     20  N   UNL     1       0.600  -0.413  -1.487  0.00  0.00    -0.199 N 
BRANCH  20  24
ATOM     21  C   UNL     1      -3.716   0.523  -3.645  0.00  0.00    +0.045 C 
ATOM     22  C   UNL     1      -2.371  -0.156  -3.636  0.00  0.00    -0.035 A 
ATOM     23  C   UNL     1      -1.511   0.028  -2.571  0.00  0.00    +0.029 A 
ATOM     24  C   UNL     1      -0.272  -0.599  -2.563  0.00  0.00    +0.052 A 
ATOM     25  C   UNL     1       0.101  -1.407  -3.630  0.00  0.00    +0.026 A 
ATOM     26  C   UNL     1      -0.765  -1.592  -4.690  0.00  0.00    +0.017 A 
ATOM     27  C   UNL     1      -1.998  -0.965  -4.694  0.00  0.00    +0.021 A 
ATOM     28 BR   UNL     1      -3.179  -1.216  -6.151  0.00  0.00    -0.050 Br
ENDBRANCH  20  24
BRANCH  20  29
ATOM     29  S   UNL     1       0.002  -0.004   0.002  0.00  0.00    +0.043 S 
ATOM     30  O   UNL     1       0.969  -0.485   0.926  0.00  0.00    -0.155 OA
ATOM     31  O   UNL     1      -1.325  -0.512   0.012  0.00  0.00    -0.155 OA
ATOM     32  C   UNL     1      -0.022   1.810   0.012  0.00  0.00    +0.218 C 
ENDBRANCH  20  29
ENDBRANCH  19  20
ENDBRANCH   1  19
TORSDOF 7
