REMARK  Name = ZINC17518458
REMARK  9 active torsions:
REMARK  status: ('A' for Active; 'I' for Inactive)
REMARK    1  A    between atoms: C_1  and  C_2
REMARK    2  A    between atoms: C_2  and  C_3
REMARK    3  A    between atoms: C_2  and  C_4
REMARK    4  A    between atoms: C_2  and  C_5
REMARK    5  A    between atoms: C_8  and  C_11
REMARK    6  A    between atoms: N_13  and  N_14
REMARK    7  A    between atoms: C_15  and  C_17
REMARK    8  A    between atoms: N_20  and  S_23
REMARK    9  A    between atoms: S_23  and  C_26
REMARK                            x       y       z     vdW  Elec       q    Type
REMARK                         _______ _______ _______ _____ _____    ______ ____
ROOT
ATOM      1  N   UNL     1       2.455  -4.213  -0.043  0.00  0.00    -0.234 N 
ATOM      2  C   UNL     1       3.635  -4.865  -0.058  0.00  0.00    +0.232 C 
ATOM      3  O   UNL     1       4.673  -4.239  -0.065  0.00  0.00    -0.274 OA
ATOM      4  H   UNL     1       1.624  -4.714  -0.038  0.00  0.00    +0.173 HD
ENDROOT
BRANCH   2   5
ATOM      5  C   UNL     1       3.663  -6.372  -0.066  0.00  0.00    +0.079 C 
ATOM      6  C   UNL     1       2.962  -6.901   1.187  0.00  0.00    +0.030 C 
ATOM      7  C   UNL     1       2.962  -8.433   1.159  0.00  0.00    +0.110 C 
ATOM      8  N   UNL     1       4.344  -8.903   0.997  0.00  0.00    -0.176 NA
ATOM      9  C   UNL     1       5.139  -8.386  -0.125  0.00  0.00    +0.110 C 
ATOM     10  C   UNL     1       5.115  -6.855  -0.082  0.00  0.00    +0.030 C 
BRANCH   8  11
ATOM     11  S   UNL     1       4.994  -9.995   2.058  0.00  0.00    +0.064 S 
ATOM     12  O   UNL     1       3.903 -10.700   2.634  0.00  0.00    -0.153 OA
ATOM     13  O   UNL     1       6.048 -10.654   1.369  0.00  0.00    -0.153 OA
BRANCH  11  14
ATOM     14  C   UNL     1       5.742  -9.074   3.361  0.00  0.00    +0.143 A 
ATOM     15  C   UNL     1       5.239  -9.160   4.645  0.00  0.00    +0.069 A 
ATOM     16  C   UNL     1       5.830  -8.439   5.669  0.00  0.00    +0.125 A 
ATOM     17  C   UNL     1       6.918  -7.625   5.405  0.00  0.00    +0.041 A 
ATOM     18  C   UNL     1       7.418  -7.536   4.120  0.00  0.00    +0.043 A 
ATOM     19  C   UNL     1       6.830  -8.260   3.096  0.00  0.00    +0.150 A 
ATOM     20  F   UNL     1       7.319  -8.173   1.840  0.00  0.00    -0.203 F 
ATOM     21  F   UNL     1       5.341  -8.527   6.926  0.00  0.00    -0.205 F 
ENDBRANCH  11  14
ENDBRANCH   8  11
ENDBRANCH   2   5
BRANCH   1  24
ATOM     22  C   UNL     1       1.250  -2.160  -0.021  0.00  0.00    +0.260 C 
ATOM     23  O   UNL     1       0.208  -2.788  -0.014  0.00  0.00    -0.269 OA
ATOM     24  N   UNL     1       2.429  -2.812  -0.036  0.00  0.00    -0.230 N 
ATOM     25  H   UNL     1       3.260  -2.312  -0.041  0.00  0.00    +0.173 HD
BRANCH  22  29
ATOM     26  C   UNL     1       1.170   2.086   0.002  0.00  0.00    -0.042 A 
ATOM     27  C   UNL     1      -0.017   1.375   0.010  0.00  0.00    +0.005 A 
ATOM     28  C   UNL     1       0.002  -0.004   0.002  0.00  0.00    +0.013 A 
ATOM     29  C   UNL     1       1.222  -0.682  -0.013  0.00  0.00    +0.038 A 
ATOM     30  C   UNL     1       2.416   0.041  -0.021  0.00  0.00    +0.013 A 
ATOM     31  C   UNL     1       2.383   1.420  -0.013  0.00  0.00    +0.005 A 
BRANCH  26  33
ATOM     32  C   UNL     1       0.423   4.083   1.268  0.00  0.00    +0.015 C 
ATOM     33  C   UNL     1       1.142   3.593   0.010  0.00  0.00    -0.013 C 
ATOM     34  C   UNL     1       2.575   4.130  -0.001  0.00  0.00    +0.015 C 
ATOM     35  C   UNL     1       0.400   4.096  -1.230  0.00  0.00    +0.015 C 
ENDBRANCH  26  33
ENDBRANCH  22  29
ENDBRANCH   1  24
TORSDOF 6
