REMARK  Name = ZINC03214521
REMARK  5 active torsions:
REMARK  status: ('A' for Active; 'I' for Inactive)
REMARK    1  A    between atoms: C_4  and  N_7
REMARK    2  A    between atoms: C_9  and  C_19
REMARK    3  A    between atoms: C_10  and  C_12
REMARK    4  A    between atoms: N_21  and  C_22
REMARK    5  A    between atoms: C_22  and  N_24
REMARK                            x       y       z     vdW  Elec       q    Type
REMARK                         _______ _______ _______ _____ _____    ______ ____
ROOT
ATOM      1  N   UNL     1      -0.685   3.585   0.026  0.00  0.00    -0.239 N 
ATOM      2  C   UNL     1       0.657   3.656   0.015  0.00  0.00    +0.128 A 
ATOM      3  C   UNL     1       1.149   2.366   0.004  0.00  0.00    +0.083 A 
ATOM      4  C   UNL     1      -0.018   1.478   0.010  0.00  0.00    +0.105 A 
ATOM      5  N   UNL     1      -1.085   2.245   0.019  0.00  0.00    -0.166 NA
ENDROOT
BRANCH   4   6
ATOM      6  C   UNL     1       0.002  -0.004   0.002  0.00  0.00    +0.003 A 
ATOM      7  C   UNL     1       0.989  -0.686  -0.708  0.00  0.00    +0.011 A 
ATOM      8  C   UNL     1       1.006  -2.066  -0.707  0.00  0.00    +0.016 A 
ATOM      9  C   UNL     1       0.040  -2.773  -0.013  0.00  0.00    +0.018 A 
ATOM     10  C   UNL     1      -0.946  -2.100   0.688  0.00  0.00    +0.016 A 
ATOM     11  C   UNL     1      -0.970  -0.721   0.699  0.00  0.00    +0.011 A 
ATOM     12 BR   UNL     1       0.065  -4.663  -0.024  0.00  0.00    -0.050 Br
ENDBRANCH   4   6
BRANCH   1  16
ATOM     13  C   UNL     1      -3.264   6.859   0.066  0.00  0.00    +0.000 A 
ATOM     14  C   UNL     1      -3.778   5.576   0.065  0.00  0.00    +0.002 A 
ATOM     15  C   UNL     1      -2.926   4.489   0.051  0.00  0.00    +0.028 A 
ATOM     16  C   UNL     1      -1.552   4.685   0.040  0.00  0.00    +0.065 A 
ATOM     17  C   UNL     1      -1.038   5.975   0.047  0.00  0.00    +0.028 A 
ATOM     18  C   UNL     1      -1.895   7.058   0.054  0.00  0.00    +0.002 A 
ENDBRANCH   1  16
BRANCH   3  19
ATOM     19  C   UNL     1       2.564   1.963  -0.011  0.00  0.00    +0.253 C 
ATOM     20  O   UNL     1       2.860   0.783  -0.019  0.00  0.00    -0.270 OA
ATOM     21  N   UNL     1       3.533   2.900  -0.015  0.00  0.00    -0.263 N 
ATOM     22  H   UNL     1       3.297   3.841  -0.009  0.00  0.00    +0.157 HD
BRANCH  21  23
ATOM     23  C   UNL     1       4.829   2.531  -0.028  0.00  0.00    +0.143 C 
ATOM     24  S   UNL     1       5.245   0.870  -0.040  0.00  0.00    -0.018 S 
BRANCH  23  25
ATOM     25  N   UNL     1       5.797   3.468  -0.033  0.00  0.00    -0.266 N 
ATOM     26  C   UNL     1       7.132   3.087  -0.046  0.00  0.00    +0.221 A 
ATOM     27  N   UNL     1       7.436   1.799  -0.050  0.00  0.00    -0.223 NA
ATOM     28  C   UNL     1       8.698   1.402  -0.067  0.00  0.00    +0.116 A 
ATOM     29  C   UNL     1       9.706   2.353  -0.072  0.00  0.00    +0.039 A 
ATOM     30  C   UNL     1       9.351   3.693  -0.063  0.00  0.00    +0.116 A 
ATOM     31  N   UNL     1       8.070   4.022  -0.051  0.00  0.00    -0.223 NA
ATOM     32  H   UNL     1       5.561   4.409  -0.026  0.00  0.00    +0.157 HD
ENDBRANCH  23  25
ENDBRANCH  21  23
ENDBRANCH   3  19
TORSDOF 5
