REMARK  Name = ZINC36071907
REMARK  14 active torsions:
REMARK  status: ('A' for Active; 'I' for Inactive)
REMARK    1  A    between atoms: C_1  and  C_2
REMARK    2  A    between atoms: C_5  and  C_9
REMARK    3  A    between atoms: C_6  and  C_8
REMARK    4  A    between atoms: C_11  and  C_32
REMARK    5  A    between atoms: C_12  and  C_31
REMARK    6  A    between atoms: C_16  and  C_19
REMARK    7  A    between atoms: C_20  and  N_22
REMARK    8  A    between atoms: N_22  and  C_23
REMARK    9  A    between atoms: C_23  and  C_24
REMARK   10  A    between atoms: C_24  and  C_25
REMARK   11  A    between atoms: C_32  and  O_34
REMARK   12  A    between atoms: O_34  and  C_35
REMARK   13  A    between atoms: C_35  and  C_36
REMARK   14  A    between atoms: C_35  and  C_37
REMARK                            x       y       z     vdW  Elec       q    Type
REMARK                         _______ _______ _______ _____ _____    ______ ____
ROOT
ATOM      1  C   UNL     1       0.167  -4.571  -0.283  0.00  0.00    +0.150 C 
ATOM      2  C   UNL     1       1.633  -4.873  -0.063  0.00  0.00    +0.083 C 
ATOM      3  C   UNL     1       2.321  -5.505  -1.081  0.00  0.00    +0.053 C 
ATOM      4  N   UNL     1       1.704  -5.829  -2.206  0.00  0.00    -0.230 NA
ATOM      5  C   UNL     1       0.433  -5.595  -2.461  0.00  0.00    +0.166 C 
ATOM      6  N   UNL     1      -0.419  -4.982  -1.587  0.00  0.00    -0.267 N 
ATOM      7  C   UNL     1      -1.724  -4.808  -2.003  0.00  0.00    +0.048 C 
ATOM      8  C   UNL     1      -2.054  -5.255  -3.234  0.00  0.00    +0.072 C 
ATOM      9  S   UNL     1      -0.510  -5.928  -3.809  0.00  0.00    -0.060 S 
ATOM     10  C   UNL     1       3.783  -5.827  -0.909  0.00  0.00    +0.066 C 
ENDROOT
BRANCH   1  15
ATOM     11  C   UNL     1      -0.583   1.130   0.286  0.00  0.00    +0.044 C 
ATOM     12  C   UNL     1      -0.387  -0.356   0.137  0.00  0.00    -0.050 A 
ATOM     13  C   UNL     1       0.241  -0.862  -0.985  0.00  0.00    +0.004 A 
ATOM     14  C   UNL     1       0.421  -2.226  -1.121  0.00  0.00    +0.006 A 
ATOM     15  C   UNL     1      -0.028  -3.084  -0.135  0.00  0.00    -0.019 A 
ATOM     16  C   UNL     1      -0.655  -2.578   0.988  0.00  0.00    -0.045 A 
ATOM     17  C   UNL     1      -0.831  -1.214   1.126  0.00  0.00    +0.007 A 
ATOM     18  C   UNL     1      -1.144  -3.514   2.064  0.00  0.00    +0.044 C 
ENDBRANCH   1  15
BRANCH   7  19
ATOM     19  C   UNL     1      -2.719  -4.159  -1.137  0.00  0.00    +0.091 C 
ATOM     20  C   UNL     1      -4.014  -4.130  -1.504  0.00  0.00    +0.239 C 
ATOM     21  O   UNL     1      -4.423  -4.810  -2.602  0.00  0.00    -0.271 OA
BRANCH  20  22
ATOM     22  N   UNL     1      -4.929  -3.404  -0.759  0.00  0.00    -0.311 N 
ATOM     23  H   UNL     1      -4.636  -2.917   0.028  0.00  0.00    +0.149 HD
BRANCH  22  24
ATOM     24  C   UNL     1      -6.338  -3.372  -1.158  0.00  0.00    +0.110 C 
BRANCH  24  25
ATOM     25  C   UNL     1      -7.127  -2.506  -0.174  0.00  0.00    +0.074 C 
BRANCH  25  26
ATOM     26  C   UNL     1      -8.577  -2.474  -0.585  0.00  0.00    +0.043 A 
ATOM     27  C   UNL     1      -9.553  -2.838   0.324  0.00  0.00    +0.023 A 
ATOM     28  C   UNL     1     -10.883  -2.804  -0.064  0.00  0.00    +0.003 A 
ATOM     29  C   UNL     1     -11.184  -2.403  -1.357  0.00  0.00    +0.020 A 
ATOM     30  C   UNL     1     -10.154  -2.053  -2.210  0.00  0.00    +0.111 A 
ATOM     31  N   UNL     1      -8.900  -2.092  -1.805  0.00  0.00    -0.260 NA
ENDBRANCH  25  26
ENDBRANCH  24  25
ENDBRANCH  22  24
ENDBRANCH  20  22
ENDBRANCH   7  19
BRANCH   2  32
ATOM     32  C   UNL     1       2.272  -4.523   1.133  0.00  0.00    +0.339 C 
ATOM     33  O   UNL     1       3.465  -4.731   1.270  0.00  0.00    -0.245 OA
BRANCH  32  34
ATOM     34  O   UNL     1       1.565  -3.954   2.135  0.00  0.00    -0.459 OA
BRANCH  34  35
ATOM     35  C   UNL     1       2.300  -3.524   3.283  0.00  0.00    +0.171 C 
ATOM     36  C   UNL     1       1.537  -2.397   3.982  0.00  0.00    +0.052 C 
ATOM     37  C   UNL     1       2.472  -4.699   4.248  0.00  0.00    +0.052 C 
ENDBRANCH  34  35
ENDBRANCH  32  34
ENDBRANCH   2  32
TORSDOF 9
