REMARK  Name = ZINC38551044
REMARK  8 active torsions:
REMARK  status: ('A' for Active; 'I' for Inactive)
REMARK    1  A    between atoms: C_1  and  C_2
REMARK    2  A    between atoms: N_8  and  C_9
REMARK    3  A    between atoms: C_9  and  C_11
REMARK    4  A    between atoms: C_9  and  C_19
REMARK    5  A    between atoms: C_14  and  O_17
REMARK    6  A    between atoms: O_17  and  C_18
REMARK    7  A    between atoms: C_23  and  N_24
REMARK    8  A    between atoms: C_25  and  C_27
REMARK                            x       y       z     vdW  Elec       q    Type
REMARK                         _______ _______ _______ _____ _____    ______ ____
ROOT
ATOM      1  C   UNL     1      -0.335  -2.086   3.891  0.00  0.00    +0.135 C 
ENDROOT
BRANCH   1   9
ATOM      2  C   UNL     1       2.933  -5.908   2.895  0.00  0.00    +0.044 C 
ATOM      3  C   UNL     1       1.912  -5.141   2.095  0.00  0.00    -0.046 A 
ATOM      4  C   UNL     1       1.718  -5.412   0.746  0.00  0.00    +0.021 A 
ATOM      5  C   UNL     1       0.775  -4.692   0.041  0.00  0.00    +0.084 A 
ATOM      6  N   UNL     1       0.059  -3.754   0.632  0.00  0.00    -0.350 N 
ATOM      7  C   UNL     1       0.214  -3.467   1.915  0.00  0.00    +0.097 A 
ATOM      8  C   UNL     1       1.143  -4.157   2.687  0.00  0.00    +0.045 A 
ATOM      9  N   UNL     1      -0.562  -2.470   2.496  0.00  0.00    -0.320 N 
ATOM     10  H   UNL     1      -1.253  -2.030   1.978  0.00  0.00    +0.148 HD
ATOM     11  H   UNL     1      -0.598  -3.263   0.113  0.00  0.00    +0.166 HD
ENDBRANCH   1   9
BRANCH   1  12
ATOM     12  C   UNL     1       0.875  -1.192   3.976  0.00  0.00    +0.009 A 
ATOM     13  C   UNL     1       1.814  -1.380   4.991  0.00  0.00    -0.030 A 
ATOM     14  C   UNL     1       2.879  -0.534   5.001  0.00  0.00    -0.005 A 
ATOM     15  S   UNL     1       2.593   0.527   3.609  0.00  0.00    -0.078 S 
ATOM     16  C   UNL     1       1.058  -0.204   3.060  0.00  0.00    +0.078 A 
ATOM     17  C   UNL     1       4.018  -0.514   5.968  0.00  0.00    +0.043 C 
ATOM     18  C   UNL     1       3.632  -1.366   7.186  0.00  0.00    +0.005 C 
ATOM     19  C   UNL     1       3.057  -2.697   6.692  0.00  0.00    +0.005 C 
ATOM     20  C   UNL     1       1.687  -2.469   6.052  0.00  0.00    +0.036 C 
BRANCH  16  21
ATOM     21  N   UNL     1       0.254   0.149   1.974  0.00  0.00    -0.273 N 
ATOM     22  C   UNL     1       0.588   1.202   1.202  0.00  0.00    +0.284 C 
ATOM     23  O   UNL     1       1.637   1.789   1.395  0.00  0.00    -0.266 OA
ATOM     24  H   UNL     1      -0.545  -0.364   1.775  0.00  0.00    +0.156 HD
BRANCH  22  25
ATOM     25  C   UNL     1      -0.312   1.641   0.132  0.00  0.00    +0.189 A 
ATOM     26  C   UNL     1      -0.057   2.628  -0.777  0.00  0.00    +0.054 A 
ATOM     27  C   UNL     1      -1.183   2.711  -1.610  0.00  0.00    +0.042 A 
ATOM     28  C   UNL     1      -2.066   1.784  -1.179  0.00  0.00    +0.196 A 
ATOM     29  O   UNL     1      -1.536   1.138  -0.132  0.00  0.00    -0.458 OA
ENDBRANCH  22  25
ENDBRANCH  16  21
ENDBRANCH   1  12
BRANCH   1  30
ATOM     30  C   UNL     1      -1.542  -1.349   4.412  0.00  0.00    -0.023 A 
ATOM     31  C   UNL     1      -2.257  -0.516   3.571  0.00  0.00    +0.009 A 
ATOM     32  C   UNL     1      -3.363   0.162   4.046  0.00  0.00    +0.046 A 
ATOM     33  C   UNL     1      -3.756   0.006   5.367  0.00  0.00    +0.120 A 
ATOM     34  C   UNL     1      -3.037  -0.830   6.209  0.00  0.00    +0.046 A 
ATOM     35  C   UNL     1      -1.935  -1.510   5.728  0.00  0.00    +0.009 A 
BRANCH  33  36
ATOM     36  O   UNL     1      -4.844   0.672   5.837  0.00  0.00    -0.495 OA
ATOM     37  C   UNL     1      -5.190   0.464   7.207  0.00  0.00    +0.277 C 
ENDBRANCH  33  36
ENDBRANCH   1  30
TORSDOF 6
