REMARK  Name = ZINC03333466
REMARK  7 active torsions:
REMARK  status: ('A' for Active; 'I' for Inactive)
REMARK    1  A    between atoms: C_1  and  C_2
REMARK    2  A    between atoms: C_5  and  C_16
REMARK    3  A    between atoms: C_7  and  N_8
REMARK    4  A    between atoms: C_9  and  C_11
REMARK    5  A    between atoms: N_18  and  C_19
REMARK    6  A    between atoms: C_22  and  S_25
REMARK    7  A    between atoms: S_25  and  C_26
REMARK                            x       y       z     vdW  Elec       q    Type
REMARK                         _______ _______ _______ _____ _____    ______ ____
ROOT
ATOM      1  C   UNL     1      -0.912   2.448  -0.147  0.00  0.00    +0.248 C 
ATOM      2  O   UNL     1      -1.742   3.337  -0.159  0.00  0.00    -0.270 OA
ATOM      3  N   UNL     1      -1.305   1.159  -0.167  0.00  0.00    -0.282 N 
ATOM      4  H   UNL     1      -0.645   0.453  -0.245  0.00  0.00    +0.155 HD
ENDROOT
BRANCH   1   9
ATOM      5  C   UNL     1       4.700   3.734  -0.027  0.00  0.00    +0.045 C 
ATOM      6  C   UNL     1       3.231   3.400  -0.059  0.00  0.00    -0.029 A 
ATOM      7  C   UNL     1       2.826   2.078  -0.079  0.00  0.00    +0.006 A 
ATOM      8  C   UNL     1       1.482   1.764  -0.102  0.00  0.00    +0.013 A 
ATOM      9  C   UNL     1       0.527   2.782  -0.116  0.00  0.00    +0.039 A 
ATOM     10  C   UNL     1       0.936   4.115  -0.095  0.00  0.00    +0.036 A 
ATOM     11  C   UNL     1       2.288   4.421  -0.067  0.00  0.00    +0.037 A 
BRANCH  11  12
ATOM     12  N   UNL     1       2.704   5.756  -0.046  0.00  0.00    -0.279 N 
ATOM     13  C   UNL     1       1.907   6.717  -0.554  0.00  0.00    +0.284 C 
ATOM     14  O   UNL     1       0.796   6.434  -0.963  0.00  0.00    -0.266 OA
ATOM     15  H   UNL     1       3.565   5.990   0.335  0.00  0.00    +0.155 HD
BRANCH  13  16
ATOM     16  C   UNL     1       2.380   8.104  -0.616  0.00  0.00    +0.189 A 
ATOM     17  C   UNL     1       1.679   9.169  -1.104  0.00  0.00    +0.054 A 
ATOM     18  C   UNL     1       2.508  10.294  -0.969  0.00  0.00    +0.042 A 
ATOM     19  C   UNL     1       3.664   9.871  -0.411  0.00  0.00    +0.196 A 
ATOM     20  O   UNL     1       3.581   8.552  -0.195  0.00  0.00    -0.458 OA
ENDBRANCH  13  16
ENDBRANCH  11  12
ENDBRANCH   1   9
BRANCH   3  21
ATOM     21  C   UNL     1      -2.666   0.840  -0.075  0.00  0.00    +0.034 A 
ATOM     22  C   UNL     1      -3.542   1.711   0.560  0.00  0.00    +0.024 A 
ATOM     23  C   UNL     1      -4.883   1.399   0.647  0.00  0.00    +0.017 A 
ATOM     24  C   UNL     1      -5.356   0.208   0.107  0.00  0.00    +0.013 A 
ATOM     25  C   UNL     1      -4.478  -0.665  -0.524  0.00  0.00    +0.017 A 
ATOM     26  C   UNL     1      -3.138  -0.350  -0.614  0.00  0.00    +0.024 A 
BRANCH  24  27
ATOM     27  S   UNL     1      -7.068  -0.193   0.222  0.00  0.00    -0.089 S 
BRANCH  27  28
ATOM     28  C   UNL     1      -7.223  -0.949   1.806  0.00  0.00    +0.013 A 
ATOM     29  C   UNL     1      -6.091  -1.195   2.574  0.00  0.00    +0.016 A 
ATOM     30  C   UNL     1      -6.216  -1.782   3.817  0.00  0.00    +0.016 A 
ATOM     31  C   UNL     1      -7.466  -2.137   4.294  0.00  0.00    +0.018 A 
ATOM     32  C   UNL     1      -8.594  -1.899   3.529  0.00  0.00    +0.016 A 
ATOM     33  C   UNL     1      -8.476  -1.306   2.288  0.00  0.00    +0.016 A 
ATOM     34 BR   UNL     1      -7.632  -2.948   5.994  0.00  0.00    -0.050 Br
ENDBRANCH  27  28
ENDBRANCH  24  27
ENDBRANCH   3  21
TORSDOF 6
