REMARK  Name = ZINC33821876
REMARK  10 active torsions:
REMARK  status: ('A' for Active; 'I' for Inactive)
REMARK    1  A    between atoms: C_1  and  C_2
REMARK    2  A    between atoms: C_5  and  C_8
REMARK    3  A    between atoms: C_8  and  C_10
REMARK    4  A    between atoms: C_12  and  C_31
REMARK    5  A    between atoms: C_14  and  C_26
REMARK    6  A    between atoms: C_14  and  C_28
REMARK    7  A    between atoms: C_34  and  O_39
REMARK    8  A    between atoms: C_35  and  O_37
REMARK    9  A    between atoms: O_37  and  C_38
REMARK   10  A    between atoms: O_39  and  C_40
REMARK                            x       y       z     vdW  Elec       q    Type
REMARK                         _______ _______ _______ _____ _____    ______ ____
ROOT
ATOM      1  C   UNL     1      -1.414   2.368   0.257  0.00  0.00    +0.155 C 
ATOM      2  C   UNL     1      -1.574   2.665   1.770  0.00  0.00    +0.078 C 
ATOM      3  C   UNL     1      -2.772   1.788   2.227  0.00  0.00    +0.163 C 
ATOM      4  C   UNL     1      -2.801   0.696   1.144  0.00  0.00    +0.127 C 
ATOM      5  N   UNL     1      -2.511   1.472  -0.090  0.00  0.00    -0.310 N 
ATOM      6  C   UNL     1      -2.384   0.624  -1.162  0.00  0.00    +0.038 A 
ATOM      7  C   UNL     1      -1.394   0.737  -2.118  0.00  0.00    +0.024 A 
ATOM      8  C   UNL     1      -1.332  -0.172  -3.158  0.00  0.00    +0.002 A 
ATOM      9  C   UNL     1      -2.257  -1.198  -3.251  0.00  0.00    +0.001 A 
ATOM     10  C   UNL     1      -3.256  -1.327  -2.306  0.00  0.00    +0.010 A 
ATOM     11  C   UNL     1      -3.332  -0.420  -1.257  0.00  0.00    -0.004 A 
ATOM     12  C   UNL     1      -4.389  -0.513  -0.223  0.00  0.00    +0.007 C 
ATOM     13  C   UNL     1      -4.138   0.037   0.978  0.00  0.00    -0.002 C 
ENDROOT
BRANCH   2  14
ATOM     14  C   UNL     1      -1.879   4.125   1.988  0.00  0.00    -0.036 A 
ATOM     15  C   UNL     1      -2.743   4.784   1.132  0.00  0.00    +0.008 A 
ATOM     16  C   UNL     1      -3.026   6.122   1.328  0.00  0.00    +0.049 A 
ATOM     17  C   UNL     1      -2.446   6.807   2.383  0.00  0.00    +0.161 A 
ATOM     18  C   UNL     1      -1.577   6.143   3.245  0.00  0.00    +0.162 A 
ATOM     19  C   UNL     1      -1.301   4.800   3.046  0.00  0.00    +0.053 A 
BRANCH  18  20
ATOM     20  O   UNL     1      -1.004   6.810   4.282  0.00  0.00    -0.491 OA
ATOM     21  C   UNL     1      -0.124   6.065   5.126  0.00  0.00    +0.277 C 
ENDBRANCH  18  20
BRANCH  17  22
ATOM     22  O   UNL     1      -2.724   8.124   2.578  0.00  0.00    -0.491 OA
ATOM     23  C   UNL     1      -3.624   8.739   1.655  0.00  0.00    +0.277 C 
ENDBRANCH  17  22
ENDBRANCH   2  14
BRANCH   3  24
ATOM     24  C   UNL     1      -4.053   2.582   2.223  0.00  0.00    +0.233 C 
ATOM     25  O   UNL     1      -4.915   2.340   1.405  0.00  0.00    -0.274 OA
ATOM     26  N   UNL     1      -4.241   3.562   3.129  0.00  0.00    -0.328 N 
ATOM     27  H   UNL     1      -5.175   4.142   3.127  0.00  0.00    +0.145 HD
ATOM     28  H   UNL     1      -3.459   3.782   3.872  0.00  0.00    +0.145 HD
ENDBRANCH   3  24
BRANCH   1  29
ATOM     29  C   UNL     1      -0.091   1.696  -0.004  0.00  0.00    +0.184 C 
ATOM     30  O   UNL     1      -0.051   0.508  -0.242  0.00  0.00    -0.290 OA
BRANCH  29  35
ATOM     31  C   UNL     1       4.766   4.769   0.107  0.00  0.00    +0.044 C 
ATOM     32  C   UNL     1       3.493   3.964   0.077  0.00  0.00    -0.050 A 
ATOM     33  C   UNL     1       3.543   2.607  -0.195  0.00  0.00    +0.004 A 
ATOM     34  C   UNL     1       2.382   1.863  -0.223  0.00  0.00    +0.012 A 
ATOM     35  C   UNL     1       1.153   2.483   0.025  0.00  0.00    +0.019 A 
ATOM     36  C   UNL     1       1.111   3.854   0.293  0.00  0.00    +0.012 A 
ATOM     37  C   UNL     1       2.280   4.584   0.323  0.00  0.00    +0.004 A 
ENDBRANCH  29  35
ENDBRANCH   1  29
BRANCH   3  38
ATOM     38  C   UNL     1      -2.521   1.205   3.555  0.00  0.00    +0.082 C 
ATOM     39  N   UNL     1      -2.327   0.755   4.580  0.00  0.00    -0.195 NA
ENDBRANCH   3  38
TORSDOF 7
