REMARK  Name = ZINC08567382
REMARK  13 active torsions:
REMARK  status: ('A' for Active; 'I' for Inactive)
REMARK    1  A    between atoms: C_1  and  O_2
REMARK    2  A    between atoms: O_2  and  C_3
REMARK    3  A    between atoms: C_6  and  C_9
REMARK    4  A    between atoms: C_15  and  C_23
REMARK    5  A    between atoms: C_17  and  C_21
REMARK    6  A    between atoms: C_18  and  N_20
REMARK    7  A    between atoms: C_25  and  O_39
REMARK    8  A    between atoms: C_26  and  O_31
REMARK    9  A    between atoms: C_27  and  O_29
REMARK   10  A    between atoms: O_29  and  C_30
REMARK   11  A    between atoms: O_31  and  C_32
REMARK   12  A    between atoms: C_32  and  C_34
REMARK   13  A    between atoms: O_39  and  C_40
REMARK                            x       y       z     vdW  Elec       q    Type
REMARK                         _______ _______ _______ _____ _____    ______ ____
ROOT
ATOM      1  C   UNL     1       2.573  -2.536   4.286  0.00  0.00    +0.084 C 
ATOM      2  N   UNL     1       3.153  -1.960   5.305  0.00  0.00    -0.150 NA
ATOM      3  N   UNL     1       3.667  -2.886   6.212  0.00  0.00    -0.115 NA
ATOM      4  C   UNL     1       3.404  -4.096   5.868  0.00  0.00    +0.227 C 
ATOM      5  C   UNL     1       2.730  -4.023   4.500  0.00  0.00    +0.140 C 
ATOM      6  C   UNL     1       1.365  -4.700   4.668  0.00  0.00    +0.083 C 
ATOM      7  C   UNL     1       1.530  -5.938   5.508  0.00  0.00    +0.095 C 
ATOM      8  C   UNL     1       2.567  -6.159   6.341  0.00  0.00    +0.200 C 
ATOM      9  O   UNL     1       3.595  -5.280   6.489  0.00  0.00    -0.425 OA
ENDROOT
BRANCH   1  13
ATOM     10  C   UNL     1       0.625  -0.618   1.041  0.00  0.00    +0.120 A 
ATOM     11  C   UNL     1       1.202   0.143   2.050  0.00  0.00    +0.046 A 
ATOM     12  C   UNL     1       1.835  -0.474   3.106  0.00  0.00    +0.013 A 
ATOM     13  C   UNL     1       1.897  -1.871   3.161  0.00  0.00    -0.001 A 
ATOM     14  C   UNL     1       1.315  -2.633   2.142  0.00  0.00    +0.013 A 
ATOM     15  C   UNL     1       0.680  -2.005   1.093  0.00  0.00    +0.046 A 
BRANCH  10  17
ATOM     16  C   UNL     1      -0.017   1.425   0.010  0.00  0.00    +0.277 C 
ATOM     17  O   UNL     1       0.002  -0.004   0.002  0.00  0.00    -0.495 OA
ENDBRANCH  10  17
ENDBRANCH   1  13
BRANCH   6  18
ATOM     18  C   UNL     1       0.412  -3.751   5.347  0.00  0.00    -0.031 A 
ATOM     19  C   UNL     1       0.705  -3.264   6.607  0.00  0.00    +0.054 A 
ATOM     20  C   UNL     1      -0.169  -2.390   7.236  0.00  0.00    +0.166 A 
ATOM     21  C   UNL     1      -1.342  -2.004   6.597  0.00  0.00    +0.215 A 
ATOM     22  C   UNL     1      -1.633  -2.496   5.330  0.00  0.00    +0.166 A 
ATOM     23  C   UNL     1      -0.751  -3.365   4.706  0.00  0.00    +0.054 A 
BRANCH  22  24
ATOM     24  O   UNL     1      -2.779  -2.122   4.701  0.00  0.00    -0.491 OA
ATOM     25  C   UNL     1      -3.013  -2.666   3.401  0.00  0.00    +0.277 C 
ENDBRANCH  22  24
BRANCH  20  26
ATOM     26  O   UNL     1       0.120  -1.912   8.476  0.00  0.00    -0.491 OA
ATOM     27  C   UNL     1       1.342  -2.352   9.071  0.00  0.00    +0.277 C 
ENDBRANCH  20  26
BRANCH  21  28
ATOM     28  O   UNL     1      -2.203  -1.147   7.211  0.00  0.00    -0.413 OA
BRANCH  28  29
ATOM     29  C   UNL     1      -2.033   0.175   7.008  0.00  0.00    +0.380 C 
ATOM     30  O   UNL     1      -1.131   0.569   6.293  0.00  0.00    -0.241 OA
BRANCH  29  31
ATOM     31  C   UNL     1      -2.934   1.136   7.647  0.00  0.00    +0.212 A 
ATOM     32  C   UNL     1      -2.879   2.495   7.522  0.00  0.00    +0.056 A 
ATOM     33  C   UNL     1      -3.925   3.015   8.299  0.00  0.00    +0.042 A 
ATOM     34  C   UNL     1      -4.566   1.964   8.857  0.00  0.00    +0.196 A 
ATOM     35  O   UNL     1      -3.970   0.834   8.458  0.00  0.00    -0.456 OA
ENDBRANCH  29  31
ENDBRANCH  28  29
ENDBRANCH  21  28
ENDBRANCH   6  18
BRANCH   8  36
ATOM     36  N   UNL     1       2.590  -7.325   7.066  0.00  0.00    -0.328 N 
ATOM     37  H   UNL     1       1.870  -7.968   6.973  0.00  0.00    +0.145 HD
ATOM     38  H   UNL     1       3.326  -7.505   7.671  0.00  0.00    +0.145 HD
ENDBRANCH   8  36
BRANCH   7  39
ATOM     39  C   UNL     1       0.518  -6.947   5.417  0.00  0.00    +0.100 C 
ATOM     40  N   UNL     1      -0.284  -7.748   5.344  0.00  0.00    -0.191 NA
ENDBRANCH   7  39
TORSDOF 10
