REMARK  Name = ZINC21237098
REMARK  8 active torsions:
REMARK  status: ('A' for Active; 'I' for Inactive)
REMARK    1  A    between atoms: C_1  and  C_2
REMARK    2  A    between atoms: C_2  and  C_3
REMARK    3  A    between atoms: C_3  and  C_27
REMARK    4  A    between atoms: N_6  and  C_10
REMARK    5  A    between atoms: C_10  and  C_11
REMARK    6  A    between atoms: N_13  and  C_14
REMARK    7  A    between atoms: C_14  and  C_15
REMARK    8  A    between atoms: C_18  and  C_20
REMARK                            x       y       z     vdW  Elec       q    Type
REMARK                         _______ _______ _______ _____ _____    ______ ____
ROOT
ATOM      1  C   UNL     1      -1.239   2.150   0.020  0.00  0.00    +0.213 C 
ENDROOT
BRANCH   1   5
ATOM      2  C   UNL     1       1.467  -0.394  -0.014  0.00  0.00    +0.138 C 
ATOM      3  C   UNL     1       0.002  -0.004   0.002  0.00  0.00    +0.251 C 
ATOM      4  O   UNL     1      -0.954  -0.749   0.008  0.00  0.00    -0.272 OA
ATOM      5  N   UNL     1      -0.016   1.343   0.009  0.00  0.00    -0.215 N 
ATOM      6  C   UNL     1       1.220   1.854   0.000  0.00  0.00    +0.310 C 
ATOM      7  O   UNL     1       1.460   3.045   0.005  0.00  0.00    -0.252 OA
ATOM      8  N   UNL     1       2.170   0.901  -0.014  0.00  0.00    -0.281 N 
ATOM      9  H   UNL     1       3.269   0.929  -0.024  0.00  0.00    +0.152 HD
BRANCH   2  10
ATOM     10  C   UNL     1       1.793  -1.178  -1.259  0.00  0.00    -0.015 A 
ATOM     11  C   UNL     1       1.697  -2.557  -1.252  0.00  0.00    +0.009 A 
ATOM     12  C   UNL     1       1.991  -3.277  -2.395  0.00  0.00    +0.039 A 
ATOM     13  C   UNL     1       2.393  -2.617  -3.544  0.00  0.00    +0.123 A 
ATOM     14  C   UNL     1       2.494  -1.236  -3.548  0.00  0.00    +0.039 A 
ATOM     15  C   UNL     1       2.194  -0.518  -2.406  0.00  0.00    +0.009 A 
ATOM     16  F   UNL     1       2.686  -3.319  -4.659  0.00  0.00    -0.205 F 
ENDBRANCH   2  10
BRANCH   2  18
ATOM     17  C   UNL     1       1.532  -0.362   2.483  0.00  0.00    +0.007 C 
ATOM     18  C   UNL     1       1.823  -1.200   1.237  0.00  0.00    +0.037 C 
ENDBRANCH   2  18
ENDBRANCH   1   5
BRANCH   1  19
ATOM     19  C   UNL     1      -1.652   2.419   1.444  0.00  0.00    +0.231 C 
ATOM     20  O   UNL     1      -0.989   1.980   2.360  0.00  0.00    -0.274 OA
ATOM     21  N   UNL     1      -2.757   3.147   1.700  0.00  0.00    -0.307 N 
ATOM     22  H   UNL     1      -3.357   3.545   0.869  0.00  0.00    +0.149 HD
BRANCH  21  23
ATOM     23  C   UNL     1      -3.158   3.408   3.084  0.00  0.00    +0.178 C 
BRANCH  23  24
ATOM     24  C   UNL     1      -4.416   4.238   3.095  0.00  0.00    +0.123 A 
ATOM     25  C   UNL     1      -5.674   3.756   3.093  0.00  0.00    +0.047 A 
ATOM     26  C   UNL     1      -6.541   4.867   3.108  0.00  0.00    +0.050 A 
ATOM     27  C   UNL     1      -5.756   5.977   3.110  0.00  0.00    +0.135 A 
ATOM     28  O   UNL     1      -4.469   5.580   3.102  0.00  0.00    -0.458 OA
BRANCH  27  29
ATOM     29  C   UNL     1      -6.231   7.376   3.119  0.00  0.00    +0.017 A 
ATOM     30  C   UNL     1      -7.600   7.651   3.120  0.00  0.00    +0.013 A 
ATOM     31  C   UNL     1      -8.038   8.959   3.132  0.00  0.00    +0.021 A 
ATOM     32  C   UNL     1      -7.123   9.998   3.134  0.00  0.00    +0.041 A 
ATOM     33  C   UNL     1      -5.764   9.732   3.127  0.00  0.00    +0.021 A 
ATOM     34  C   UNL     1      -5.314   8.428   3.119  0.00  0.00    +0.013 A 
ATOM     35 CL   UNL     1      -7.682  11.642   3.142  0.00  0.00    -0.084 Cl
ENDBRANCH  27  29
ENDBRANCH  23  24
ENDBRANCH  21  23
ENDBRANCH   1  19
TORSDOF 7
