REMARK  Name = ZINC21348695
REMARK  10 active torsions:
REMARK  status: ('A' for Active; 'I' for Inactive)
REMARK    1  A    between atoms: C_1  and  C_2
REMARK    2  A    between atoms: C_8  and  N_10
REMARK    3  A    between atoms: C_11  and  C_13
REMARK    4  A    between atoms: C_13  and  C_15
REMARK    5  A    between atoms: C_13  and  O_16
REMARK    6  A    between atoms: O_16  and  C_17
REMARK    7  A    between atoms: C_17  and  C_19
REMARK    8  A    between atoms: C_23  and  S_25
REMARK    9  A    between atoms: S_25  and  N_28
REMARK   10  A    between atoms: N_28  and  C_29
REMARK                            x       y       z     vdW  Elec       q    Type
REMARK                         _______ _______ _______ _____ _____    ______ ____
ROOT
ATOM      1  C   UNL     1       7.573   2.010   2.965  0.00  0.00    +0.061 A 
ATOM      2  C   UNL     1       7.600   1.933   1.571  0.00  0.00    +0.015 A 
ATOM      3  C   UNL     1       8.677   1.350   0.936  0.00  0.00    +0.003 A 
ATOM      4  C   UNL     1       9.728   0.841   1.678  0.00  0.00    +0.029 A 
ATOM      5  C   UNL     1       9.708   0.914   3.060  0.00  0.00    +0.109 A 
ATOM      6  C   UNL     1       8.639   1.500   3.707  0.00  0.00    +0.043 A 
ENDROOT
BRANCH   5   7
ATOM      7  S   UNL     1      11.053   0.264   3.994  0.00  0.00    +0.072 S 
ATOM      8  O   UNL     1      10.516  -0.151   5.243  0.00  0.00    -0.150 OA
ATOM      9  O   UNL     1      11.754  -0.623   3.134  0.00  0.00    -0.150 OA
BRANCH   7  10
ATOM     10  N   UNL     1      12.080   1.522   4.315  0.00  0.00    -0.216 N 
ATOM     11  H   UNL     1      12.265   1.830   5.355  0.00  0.00    +0.174 HD
BRANCH  10  12
ATOM     12  C   UNL     1      12.713   2.194   3.264  0.00  0.00    +0.048 A 
ATOM     13  C   UNL     1      13.784   1.603   2.606  0.00  0.00    +0.027 A 
ATOM     14  C   UNL     1      14.404   2.266   1.565  0.00  0.00    +0.040 A 
ATOM     15  C   UNL     1      13.965   3.523   1.185  0.00  0.00    +0.124 A 
ATOM     16  C   UNL     1      12.901   4.116   1.843  0.00  0.00    +0.040 A 
ATOM     17  C   UNL     1      12.274   3.455   2.881  0.00  0.00    +0.027 A 
ATOM     18  F   UNL     1      14.576   4.172   0.169  0.00  0.00    -0.205 F 
ENDBRANCH  10  12
ENDBRANCH   7  10
ENDBRANCH   5   7
BRANCH   1  19
ATOM     19  C   UNL     1       6.423   2.634   3.651  0.00  0.00    +0.340 C 
ATOM     20  O   UNL     1       6.402   2.700   4.864  0.00  0.00    -0.245 OA
BRANCH  19  21
ATOM     21  O   UNL     1       5.398   3.131   2.932  0.00  0.00    -0.449 OA
BRANCH  21  22
ATOM     22  C   UNL     1       4.302   3.729   3.673  0.00  0.00    +0.259 C 
ATOM     23  C   UNL     1       3.256   2.659   3.991  0.00  0.00    +0.062 C 
BRANCH  22  25
ATOM     24  N   UNL     1       2.694   5.584   3.369  0.00  0.00    -0.309 N 
ATOM     25  C   UNL     1       3.670   4.818   2.844  0.00  0.00    +0.254 C 
ATOM     26  O   UNL     1       4.041   5.004   1.704  0.00  0.00    -0.272 OA
ATOM     27  H   UNL     1       2.357   5.415   4.403  0.00  0.00    +0.149 HD
BRANCH  24  34
ATOM     28  C   UNL     1      -0.177   5.657   2.989  0.00  0.00    +0.009 C 
ATOM     29  C   UNL     1       0.670   6.928   3.085  0.00  0.00    +0.006 C 
ATOM     30  C   UNL     1       0.749   7.380   4.545  0.00  0.00    +0.005 C 
ATOM     31  C   UNL     1       1.596   8.650   4.641  0.00  0.00    +0.000 C 
ATOM     32  C   UNL     1       3.005   8.364   4.119  0.00  0.00    +0.002 C 
ATOM     33  C   UNL     1       2.927   7.913   2.659  0.00  0.00    +0.022 C 
ATOM     34  C   UNL     1       2.080   6.642   2.563  0.00  0.00    +0.076 C 
ENDBRANCH  24  34
ENDBRANCH  22  25
ENDBRANCH  21  22
ENDBRANCH  19  21
ENDBRANCH   1  19
TORSDOF 8
