REMARK  Name = ZINC08764093
REMARK  6 active torsions:
REMARK  status: ('A' for Active; 'I' for Inactive)
REMARK    1  A    between atoms: C_1  and  C_2
REMARK    2  A    between atoms: C_4  and  C_16
REMARK    3  A    between atoms: C_5  and  C_9
REMARK    4  A    between atoms: C_7  and  C_8
REMARK    5  A    between atoms: C_9  and  C_15
REMARK    6  A    between atoms: N_10  and  N_11
REMARK                            x       y       z     vdW  Elec       q    Type
REMARK                         _______ _______ _______ _____ _____    ______ ____
ROOT
ATOM      1  C   UNL     1      -1.234  -2.103   0.092  0.00  0.00    +0.064 C 
ATOM      2  N   UNL     1      -1.967  -2.030  -0.976  0.00  0.00    -0.183 NA
ATOM      3  C   UNL     1      -1.701  -1.457   1.371  0.00  0.00    +0.068 C 
ENDROOT
BRANCH   1   8
ATOM      4  C   UNL     1       3.796  -4.888  -0.055  0.00  0.00    +0.044 C 
ATOM      5  C   UNL     1       2.478  -4.158  -0.016  0.00  0.00    -0.047 A 
ATOM      6  C   UNL     1       2.454  -2.791   0.198  0.00  0.00    +0.007 A 
ATOM      7  C   UNL     1       1.252  -2.116   0.229  0.00  0.00    -0.041 A 
ATOM      8  C   UNL     1       0.056  -2.817   0.055  0.00  0.00    +0.001 A 
ATOM      9  C   UNL     1       0.088  -4.197  -0.161  0.00  0.00    +0.013 A 
ATOM     10  C   UNL     1       1.298  -4.858  -0.195  0.00  0.00    -0.047 A 
ATOM     11  C   UNL     1       1.334  -6.347  -0.427  0.00  0.00    +0.044 C 
ATOM     12  C   UNL     1       1.228  -0.626   0.456  0.00  0.00    +0.044 C 
ENDBRANCH   1   8
BRANCH   2  13
ATOM     13  N   UNL     1      -1.480  -2.523  -2.193  0.00  0.00    -0.191 N 
ATOM     14  C   UNL     1      -2.270  -2.519  -3.286  0.00  0.00    +0.317 C 
ATOM     15  O   UNL     1      -1.848  -2.947  -4.343  0.00  0.00    -0.251 OA
ATOM     16  N   UNL     1      -3.529  -2.045  -3.205  0.00  0.00    -0.312 N 
ATOM     17  H   UNL     1      -0.576  -2.868  -2.251  0.00  0.00    +0.179 HD
ATOM     18  H   UNL     1      -3.867  -1.707  -2.361  0.00  0.00    +0.147 HD
ATOM     19  H   UNL     1      -4.097  -2.041  -3.991  0.00  0.00    +0.147 HD
ENDBRANCH   2  13
TORSDOF 2
