REMARK  Name = ZINC35755521
REMARK  9 active torsions:
REMARK  status: ('A' for Active; 'I' for Inactive)
REMARK    1  A    between atoms: C_1  and  C_2
REMARK    2  A    between atoms: C_5  and  C_8
REMARK    3  A    between atoms: C_8  and  N_9
REMARK    4  A    between atoms: C_10  and  C_31
REMARK    5  A    between atoms: C_12  and  C_17
REMARK    6  A    between atoms: C_21  and  N_23
REMARK    7  A    between atoms: C_24  and  C_26
REMARK    8  A    between atoms: N_33  and  C_34
REMARK    9  A    between atoms: C_34  and  C_35
REMARK                            x       y       z     vdW  Elec       q    Type
REMARK                         _______ _______ _______ _____ _____    ______ ____
ROOT
ATOM      1  N   UNL     1       1.438  -4.762  -0.037  0.00  0.00    -0.248 N 
ATOM      2  C   UNL     1       2.261  -5.023  -1.235  0.00  0.00    +0.210 C 
ATOM      3  C   UNL     1       3.686  -5.115  -0.639  0.00  0.00    +0.238 C 
ATOM      4  O   UNL     1       3.417  -5.485   0.727  0.00  0.00    -0.440 OA
ATOM      5  C   UNL     1       2.192  -5.031   1.045  0.00  0.00    +0.405 C 
ATOM      6  O   UNL     1       1.806  -4.883   2.188  0.00  0.00    -0.226 OA
ENDROOT
BRANCH   3   7
ATOM      7  C   UNL     1       4.493  -6.179  -1.337  0.00  0.00    -0.003 A 
ATOM      8  C   UNL     1       4.318  -7.510  -1.001  0.00  0.00    +0.007 A 
ATOM      9  C   UNL     1       5.056  -8.490  -1.639  0.00  0.00    +0.002 A 
ATOM     10  C   UNL     1       5.971  -8.143  -2.614  0.00  0.00    +0.023 A 
ATOM     11  C   UNL     1       6.149  -6.808  -2.953  0.00  0.00    +0.034 A 
ATOM     12  C   UNL     1       5.402  -5.826  -2.314  0.00  0.00    +0.030 A 
BRANCH  11  13
ATOM     13  N   UNL     1       7.075  -6.453  -3.939  0.00  0.00    -0.281 N 
ATOM     14  C   UNL     1       8.223  -7.147  -4.066  0.00  0.00    +0.255 C 
ATOM     15  O   UNL     1       8.417  -8.134  -3.380  0.00  0.00    -0.269 OA
ATOM     16  H   UNL     1       6.891  -5.707  -4.531  0.00  0.00    +0.155 HD
BRANCH  14  17
ATOM     17  C   UNL     1       9.238  -6.714  -5.031  0.00  0.00    +0.074 A 
ATOM     18  C   UNL     1      10.470  -7.283  -5.318  0.00  0.00    +0.021 A 
ATOM     19  C   UNL     1      11.211  -6.645  -6.283  0.00  0.00    +0.008 A 
ATOM     20  C   UNL     1      10.707  -5.533  -6.874  0.00  0.00    +0.046 A 
ATOM     21  S   UNL     1       9.208  -5.324  -6.146  0.00  0.00    -0.092 S 
ENDBRANCH  14  17
ENDBRANCH  11  13
ENDBRANCH   3   7
BRANCH   2  22
ATOM     22  C   UNL     1       1.863  -6.322  -1.887  0.00  0.00    +0.238 C 
ATOM     23  O   UNL     1       1.230  -7.146  -1.261  0.00  0.00    -0.274 OA
ATOM     24  N   UNL     1       2.208  -6.567  -3.166  0.00  0.00    -0.311 N 
ATOM     25  H   UNL     1       2.714  -5.908  -3.667  0.00  0.00    +0.149 HD
BRANCH  24  26
ATOM     26  C   UNL     1       1.821  -7.830  -3.800  0.00  0.00    +0.135 C 
BRANCH  26  27
ATOM     27  C   UNL     1       2.334  -7.855  -5.242  0.00  0.00    +0.135 C 
ATOM     28  C   UNL     1       1.828  -9.127  -5.955  0.00  0.00    +0.035 C 
ATOM     29  C   UNL     1       3.061  -9.541  -6.804  0.00  0.00    +0.031 C 
ATOM     30  C   UNL     1       4.219  -9.108  -5.870  0.00  0.00    +0.160 C 
ATOM     31  O   UNL     1       3.765  -7.894  -5.247  0.00  0.00    -0.375 OA
ENDBRANCH  26  27
ENDBRANCH  24  26
ENDBRANCH   2  22
BRANCH   1  32
ATOM     32  C   UNL     1       0.052  -4.289  -0.028  0.00  0.00    +0.147 C 
BRANCH  32  37
ATOM     33  C   UNL     1      -0.016   1.489   0.043  0.00  0.00    +0.044 C 
ATOM     34  C   UNL     1       0.002  -0.018   0.025  0.00  0.00    -0.050 A 
ATOM     35  C   UNL     1       0.008  -0.694  -1.181  0.00  0.00    +0.003 A 
ATOM     36  C   UNL     1       0.024  -2.077  -1.198  0.00  0.00    +0.005 A 
ATOM     37  C   UNL     1       0.035  -2.782  -0.009  0.00  0.00    -0.030 A 
ATOM     38  C   UNL     1       0.030  -2.106   1.196  0.00  0.00    +0.005 A 
ATOM     39  C   UNL     1       0.018  -0.724   1.213  0.00  0.00    +0.003 A 
ENDBRANCH  32  37
ENDBRANCH   1  32
TORSDOF 8
