REMARK  Name = ZINC16633604
REMARK  10 active torsions:
REMARK  status: ('A' for Active; 'I' for Inactive)
REMARK    1  A    between atoms: C_1  and  N_54
REMARK    2  A    between atoms: C_2  and  C_3
REMARK    3  A    between atoms: C_2  and  N_54
REMARK    4  A    between atoms: N_5  and  C_6
REMARK    5  A    between atoms: C_13  and  C_14
REMARK    6  A    between atoms: C_13  and  N_54
REMARK    7  A    between atoms: N_16  and  C_17
REMARK    8  A    between atoms: C_18  and  C_26
REMARK    9  A    between atoms: C_26  and  O_28
REMARK   10  A    between atoms: O_28  and  C_29
REMARK                            x       y       z     vdW  Elec       q    Type
REMARK                         _______ _______ _______ _____ _____    ______ ____
ROOT
ATOM      1  C   UNL     1      -0.759   1.951   1.236  0.00  0.00    +0.201 C 
ATOM      2  O   UNL     1      -1.196   1.152   2.037  0.00  0.00    -0.278 OA
ATOM      3  N   UNL     1      -0.908   3.273   1.454  0.00  0.00    -0.281 N 
ATOM      4  H   UNL     1      -0.558   3.913   0.814  0.00  0.00    +0.155 HD
ENDROOT
BRANCH   3   5
ATOM      5  C   UNL     1      -1.560   3.719   2.593  0.00  0.00    +0.086 A 
ATOM      6  C   UNL     1      -1.805   5.026   2.992  0.00  0.00    +0.091 A 
ATOM      7  C   UNL     1      -2.522   5.224   4.240  0.00  0.00    -0.021 A 
ATOM      8  C   UNL     1      -2.867   4.092   4.891  0.00  0.00    -0.004 A 
ATOM      9  S   UNL     1      -2.263   2.779   3.868  0.00  0.00    -0.077 S 
ATOM     10  C   UNL     1      -3.600   3.986   6.193  0.00  0.00    +0.043 C 
ATOM     11  C   UNL     1      -3.578   5.362   6.874  0.00  0.00    +0.005 C 
ATOM     12  C   UNL     1      -3.981   6.426   5.849  0.00  0.00    +0.005 C 
ATOM     13  C   UNL     1      -2.871   6.594   4.809  0.00  0.00    +0.037 C 
BRANCH   6  14
ATOM     14  C   UNL     1      -1.361   6.163   2.183  0.00  0.00    +0.342 C 
ATOM     15  O   UNL     1      -2.092   6.623   1.327  0.00  0.00    -0.245 OA
BRANCH  14  16
ATOM     16  O   UNL     1      -0.140   6.700   2.387  0.00  0.00    -0.464 OA
ATOM     17  C   UNL     1       0.234   7.824   1.548  0.00  0.00    +0.280 C 
ENDBRANCH  14  16
ENDBRANCH   6  14
ENDBRANCH   3   5
BRANCH   1  18
ATOM     18  C   UNL     1      -0.049   1.467  -0.002  0.00  0.00    +0.019 C 
BRANCH  18  20
ATOM     19  C   UNL     1       0.809  -0.514   1.094  0.00  0.00    -0.095 C 
ATOM     20  N   UNL     1      -0.046  -0.011  -0.002  0.00  0.00    +0.389 N 
ATOM     21  H   UNL     1      -1.005  -0.347   0.142  0.00  0.00    -0.081 HD
BRANCH  20  22
ATOM     22  C   UNL     1       0.450  -0.515  -1.300  0.00  0.00    +0.019 C 
BRANCH  22  23
ATOM     23  C   UNL     1       0.237  -2.006  -1.356  0.00  0.00    +0.201 C 
ATOM     24  O   UNL     1      -0.256  -2.584  -0.410  0.00  0.00    -0.278 OA
ATOM     25  N   UNL     1       0.595  -2.697  -2.456  0.00  0.00    -0.286 N 
ATOM     26  H   UNL     1       0.928  -2.227  -3.237  0.00  0.00    +0.155 HD
BRANCH  25  27
ATOM     27  C   UNL     1       0.485  -4.092  -2.473  0.00  0.00    +0.047 A 
ATOM     28  C   UNL     1      -0.555  -4.716  -1.798  0.00  0.00    +0.024 A 
ATOM     29  C   UNL     1      -0.663  -6.093  -1.819  0.00  0.00    +0.002 A 
ATOM     30  C   UNL     1       0.269  -6.851  -2.505  0.00  0.00    +0.001 A 
ATOM     31  C   UNL     1       1.309  -6.233  -3.175  0.00  0.00    +0.017 A 
ATOM     32  C   UNL     1       1.420  -4.856  -3.161  0.00  0.00    +0.039 A 
ATOM     33 BR   UNL     1       2.843  -4.012  -4.076  0.00  0.00    -0.048 Br
ENDBRANCH  25  27
ENDBRANCH  22  23
ENDBRANCH  20  22
ENDBRANCH  18  20
ENDBRANCH   1  18
TORSDOF 8
