REMARK  Name = ZINC22851554
REMARK  9 active torsions:
REMARK  status: ('A' for Active; 'I' for Inactive)
REMARK    1  A    between atoms: C_1  and  C_2
REMARK    2  A    between atoms: C_2  and  C_3
REMARK    3  A    between atoms: C_2  and  C_4
REMARK    4  A    between atoms: C_2  and  N_5
REMARK    5  A    between atoms: N_8  and  C_9
REMARK    6  A    between atoms: C_9  and  C_10
REMARK    7  A    between atoms: C_10  and  C_12
REMARK    8  A    between atoms: C_10  and  N_21
REMARK    9  A    between atoms: N_24  and  C_27
REMARK                            x       y       z     vdW  Elec       q    Type
REMARK                         _______ _______ _______ _____ _____    ______ ____
ROOT
ATOM      1  C   UNL     1      -0.010  -0.004  -0.013  0.00  0.00    +0.104 C 
ENDROOT
BRANCH   1   2
ATOM      2  C   UNL     1      -0.265   1.476  -0.142  0.00  0.00    -0.025 A 
ATOM      3  C   UNL     1      -1.559   1.942  -0.284  0.00  0.00    +0.009 A 
ATOM      4  C   UNL     1      -1.799   3.299  -0.398  0.00  0.00    +0.050 A 
ATOM      5  C   UNL     1      -0.742   4.194  -0.381  0.00  0.00    +0.166 A 
ATOM      6  C   UNL     1       0.562   3.724  -0.243  0.00  0.00    +0.167 A 
ATOM      7  C   UNL     1       0.794   2.363  -0.124  0.00  0.00    +0.054 A 
ATOM      8  O   UNL     1       1.414   4.790  -0.256  0.00  0.00    -0.453 OA
ATOM      9  C   UNL     1       0.592   5.942   0.009  0.00  0.00    +0.466 C 
ATOM     10  O   UNL     1      -0.707   5.555  -0.479  0.00  0.00    -0.453 OA
ENDBRANCH   1   2
BRANCH   1  11
ATOM     11  N   UNL     1      -1.038  -0.606   0.846  0.00  0.00    -0.291 NA
ATOM     12  C   UNL     1      -1.033   0.007   2.182  0.00  0.00    +0.104 C 
ATOM     13  C   UNL     1      -2.167  -0.590   3.018  0.00  0.00    +0.120 C 
ATOM     14  N   UNL     1      -1.992  -2.046   3.108  0.00  0.00    -0.325 N 
ATOM     15  C   UNL     1      -1.997  -2.659   1.773  0.00  0.00    +0.120 C 
ATOM     16  C   UNL     1      -0.863  -2.062   0.936  0.00  0.00    +0.104 C 
BRANCH  14  17
ATOM     17  C   UNL     1      -2.971  -2.619   3.926  0.00  0.00    +0.065 A 
ATOM     18  C   UNL     1      -2.939  -3.979   4.202  0.00  0.00    +0.026 A 
ATOM     19  C   UNL     1      -3.905  -4.542   5.013  0.00  0.00    +0.002 A 
ATOM     20  C   UNL     1      -4.910  -3.754   5.544  0.00  0.00    +0.003 A 
ATOM     21  C   UNL     1      -4.949  -2.399   5.269  0.00  0.00    +0.040 A 
ATOM     22  C   UNL     1      -3.983  -1.829   4.461  0.00  0.00    +0.144 A 
ATOM     23  F   UNL     1      -4.021  -0.505   4.191  0.00  0.00    -0.204 F 
ENDBRANCH  14  17
ENDBRANCH   1  11
BRANCH   1  24
ATOM     24  C   UNL     1      -0.058  -0.652  -1.398  0.00  0.00    +0.129 C 
BRANCH  24  28
ATOM     25  N   UNL     1       2.114   0.025  -4.286  0.00  0.00    -0.295 N 
ATOM     26  C   UNL     1       1.116  -0.466  -3.525  0.00  0.00    +0.300 C 
ATOM     27  O   UNL     1       0.297  -1.222  -4.010  0.00  0.00    -0.253 OA
ATOM     28  N   UNL     1       1.026  -0.119  -2.226  0.00  0.00    -0.298 N 
ATOM     29  H   UNL     1       2.855   0.710  -3.848  0.00  0.00    +0.151 HD
ATOM     30  H   UNL     1       1.767   0.566  -1.787  0.00  0.00    +0.150 HD
BRANCH  25  32
ATOM     31  C   UNL     1       0.939   0.081  -6.431  0.00  0.00    +0.031 C 
ATOM     32  C   UNL     1       2.211  -0.352  -5.699  0.00  0.00    +0.028 C 
ATOM     33  C   UNL     1       3.422   0.338  -6.329  0.00  0.00    +0.031 C 
ATOM     34  C   UNL     1       2.373  -1.869  -5.811  0.00  0.00    +0.031 C 
ENDBRANCH  25  32
ENDBRANCH  24  28
ENDBRANCH   1  24
TORSDOF 6
