REMARK  Name = ZINC00751323
REMARK  5 active torsions:
REMARK  status: ('A' for Active; 'I' for Inactive)
REMARK    1  A    between atoms: N_9  and  C_11
REMARK    2  A    between atoms: C_14  and  N_23
REMARK    3  A    between atoms: C_16  and  C_17
REMARK    4  A    between atoms: N_19  and  C_20
REMARK    5  A    between atoms: N_26  and  C_27
REMARK                            x       y       z     vdW  Elec       q    Type
REMARK                         _______ _______ _______ _____ _____    ______ ____
ROOT
ATOM      1  C   UNL     1      -0.741   1.770   1.200  0.00  0.00    +0.042 A 
ATOM      2  C   UNL     1      -2.068   1.412   1.401  0.00  0.00    +0.026 A 
ATOM      3  C   UNL     1      -2.777   1.942   2.458  0.00  0.00    +0.025 A 
ATOM      4  C   UNL     1      -2.170   2.839   3.332  0.00  0.00    +0.036 A 
ATOM      5  C   UNL     1      -0.850   3.206   3.147  0.00  0.00    +0.038 A 
ATOM      6  C   UNL     1      -0.122   2.670   2.081  0.00  0.00    +0.059 A 
ENDROOT
BRANCH   1  15
ATOM      7  C   UNL     1       1.943  -1.929  -3.209  0.00  0.00    +0.000 A 
ATOM      8  C   UNL     1       1.733  -2.682  -2.068  0.00  0.00    +0.000 A 
ATOM      9  C   UNL     1       1.099  -2.118  -0.980  0.00  0.00    +0.005 A 
ATOM     10  C   UNL     1       0.671  -0.799  -1.023  0.00  0.00    -0.027 A 
ATOM     11  C   UNL     1       0.882  -0.049  -2.159  0.00  0.00    -0.041 A 
ATOM     12  C   UNL     1       1.518  -0.617  -3.253  0.00  0.00    +0.004 A 
ATOM     13  C   UNL     1       0.440   1.389  -2.252  0.00  0.00    +0.054 C 
ATOM     14  C   UNL     1      -0.577   1.694  -1.152  0.00  0.00    +0.110 C 
ATOM     15  N   UNL     1      -0.027   1.235   0.134  0.00  0.00    -0.325 N 
ATOM     16  C   UNL     1      -0.020  -0.230   0.188  0.00  0.00    +0.140 C 
ENDBRANCH   1  15
BRANCH   4  17
ATOM     17  N   UNL     1      -2.900   3.372   4.404  0.00  0.00    -0.269 N 
ATOM     18  C   UNL     1      -4.226   3.575   4.281  0.00  0.00    +0.308 C 
ATOM     19  O   UNL     1      -4.774   3.389   3.212  0.00  0.00    -0.252 OA
ATOM     20  N   UNL     1      -4.947   3.986   5.344  0.00  0.00    -0.267 N 
ATOM     21  H   UNL     1      -2.450   3.595   5.234  0.00  0.00    +0.156 HD
ATOM     22  H   UNL     1      -4.501   4.196   6.180  0.00  0.00    +0.156 HD
BRANCH  20  23
ATOM     23  C   UNL     1      -6.338   4.108   5.242  0.00  0.00    +0.070 A 
ATOM     24  C   UNL     1      -6.925   4.369   4.012  0.00  0.00    +0.026 A 
ATOM     25  C   UNL     1      -8.298   4.484   3.913  0.00  0.00    +0.002 A 
ATOM     26  C   UNL     1      -9.088   4.350   5.040  0.00  0.00    +0.003 A 
ATOM     27  C   UNL     1      -8.508   4.095   6.269  0.00  0.00    +0.040 A 
ATOM     28  C   UNL     1      -7.134   3.974   6.374  0.00  0.00    +0.145 A 
ATOM     29  F   UNL     1      -6.567   3.725   7.575  0.00  0.00    -0.204 F 
ENDBRANCH  20  23
ENDBRANCH   4  17
BRANCH   6  30
ATOM     30  C   UNL     1       1.288   3.051   1.881  0.00  0.00    +0.246 C 
ATOM     31  O   UNL     1       1.890   2.661   0.898  0.00  0.00    -0.270 OA
ATOM     32  N   UNL     1       1.911   3.832   2.786  0.00  0.00    -0.308 N 
ATOM     33  H   UNL     1       1.431   4.143   3.569  0.00  0.00    +0.149 HD
BRANCH  32  34
ATOM     34  C   UNL     1       3.311   4.211   2.586  0.00  0.00    +0.073 C 
ATOM     35  C   UNL     1       4.242   4.143   3.799  0.00  0.00    +0.024 C 
ATOM     36  C   UNL     1       3.796   5.500   3.252  0.00  0.00    +0.024 C 
ENDBRANCH  32  34
ENDBRANCH   6  30
TORSDOF 5
