REMARK  Name = ZINC39633449
REMARK  4 active torsions:
REMARK  status: ('A' for Active; 'I' for Inactive)
REMARK    1  A    between atoms: C_3  and  C_12
REMARK    2  A    between atoms: C_6  and  C_7
REMARK    3  A    between atoms: C_16  and  C_25
REMARK    4  A    between atoms: N_27  and  C_28
REMARK                            x       y       z     vdW  Elec       q    Type
REMARK                         _______ _______ _______ _____ _____    ______ ____
ROOT
ATOM      1  C   UNL     1       3.945   2.221   0.074  0.00  0.00    +0.249 C 
ATOM      2  O   UNL     1       5.049   1.721   0.175  0.00  0.00    -0.270 OA
ATOM      3  N   UNL     1       3.820   3.557  -0.056  0.00  0.00    -0.296 N 
ATOM      4  C   UNL     1       2.571   4.354  -0.084  0.00  0.00    +0.121 C 
ATOM      5  C   UNL     1       2.902   5.627   0.727  0.00  0.00    +0.100 C 
ATOM      6  C   UNL     1       4.432   5.759   0.644  0.00  0.00    -0.004 C 
ATOM      7  C   UNL     1       4.901   4.562  -0.196  0.00  0.00    +0.115 C 
ATOM      8  C   UNL     1       5.045   5.689   2.039  0.00  0.00    -0.010 C 
ATOM      9  C   UNL     1       6.561   5.880   1.936  0.00  0.00    -0.082 C 
ATOM     10  N   UNL     1       6.851   7.178   1.316  0.00  0.00    +0.379 N 
ATOM     11  C   UNL     1       6.339   7.202  -0.060  0.00  0.00    -0.082 C 
ATOM     12  C   UNL     1       4.814   7.068  -0.041  0.00  0.00    -0.010 C 
ATOM     13  H   UNL     1       6.410   7.911   1.851  0.00  0.00    -0.086 HD
ATOM     14  H   UNL     1       7.849   7.328   1.304  0.00  0.00    -0.086 HD
ENDROOT
BRANCH   1  17
ATOM     15  C   UNL     1       0.504   0.905  -0.649  0.00  0.00    +0.013 A 
ATOM     16  C   UNL     1       1.625   1.709  -0.671  0.00  0.00    +0.016 A 
ATOM     17  C   UNL     1       2.742   1.365   0.092  0.00  0.00    +0.072 A 
ATOM     18  C   UNL     1       2.716   0.206   0.874  0.00  0.00    +0.136 A 
ATOM     19  C   UNL     1       1.586  -0.590   0.886  0.00  0.00    +0.051 A 
ATOM     20  C   UNL     1       0.484  -0.241   0.126  0.00  0.00    +0.058 A 
ATOM     21  F   UNL     1       3.793  -0.135   1.616  0.00  0.00    -0.205 F 
BRANCH  20  22
ATOM     22  C   UNL     1      -0.745  -1.113   0.144  0.00  0.00    +0.418 C 
ATOM     23  F   UNL     1      -0.646  -2.078  -0.865  0.00  0.00    -0.166 F 
ATOM     24  F   UNL     1      -0.849  -1.747   1.387  0.00  0.00    -0.166 F 
ATOM     25  F   UNL     1      -1.879  -0.324  -0.074  0.00  0.00    -0.166 F 
ENDBRANCH  20  22
ENDBRANCH   1  17
BRANCH   5  26
ATOM     26  C   UNL     1       2.464   5.466   2.159  0.00  0.00    +0.218 C 
ATOM     27  O   UNL     1       2.452   4.365   2.670  0.00  0.00    -0.275 OA
ATOM     28  N   UNL     1       2.085   6.544   2.874  0.00  0.00    -0.312 N 
ATOM     29  H   UNL     1       2.094   7.424   2.466  0.00  0.00    +0.149 HD
BRANCH  28  30
ATOM     30  C   UNL     1       1.659   6.387   4.267  0.00  0.00    +0.073 C 
ATOM     31  C   UNL     1       0.180   5.947   4.290  0.00  0.00    +0.022 C 
ATOM     32  C   UNL     1      -0.106   5.305   5.621  0.00  0.00    +0.002 C 
ATOM     33  C   UNL     1      -0.683   6.301   6.644  0.00  0.00    +0.000 C 
ATOM     34  C   UNL     1       0.021   7.671   6.607  0.00  0.00    +0.000 C 
ATOM     35  C   UNL     1       1.514   7.547   6.467  0.00  0.00    +0.002 C 
ATOM     36  C   UNL     1       1.875   7.642   4.970  0.00  0.00    +0.022 C 
ENDBRANCH  28  30
ENDBRANCH   5  26
TORSDOF 4
