REMARK  Name = ZINC14653746
REMARK  12 active torsions:
REMARK  status: ('A' for Active; 'I' for Inactive)
REMARK    1  A    between atoms: C_1  and  C_2
REMARK    2  A    between atoms: C_2  and  C_3
REMARK    3  A    between atoms: C_2  and  C_4
REMARK    4  A    between atoms: C_4  and  O_5
REMARK    5  A    between atoms: O_5  and  C_6
REMARK    6  A    between atoms: C_9  and  C_13
REMARK    7  A    between atoms: N_15  and  C_16
REMARK    8  A    between atoms: C_16  and  N_18
REMARK    9  A    between atoms: N_18  and  C_19
REMARK   10  A    between atoms: C_20  and  C_27
REMARK   11  A    between atoms: C_27  and  O_29
REMARK   12  A    between atoms: O_29  and  C_30
REMARK                            x       y       z     vdW  Elec       q    Type
REMARK                         _______ _______ _______ _____ _____    ______ ____
ROOT
ATOM      1  C   UNL     1      -2.519   3.867   0.047  0.00  0.00    +0.250 C 
ATOM      2  O   UNL     1      -2.533   5.083   0.054  0.00  0.00    -0.270 OA
ATOM      3  N   UNL     1      -3.678   3.180   0.054  0.00  0.00    -0.264 N 
ATOM      4  H   UNL     1      -3.667   2.210   0.049  0.00  0.00    +0.157 HD
ENDROOT
BRANCH   1   8
ATOM      5  C   UNL     1       1.182   1.786   0.000  0.00  0.00    +0.134 A 
ATOM      6  C   UNL     1      -0.013   1.076   0.008  0.00  0.00    +0.047 A 
ATOM      7  C   UNL     1      -1.215   1.747   0.017  0.00  0.00    +0.017 A 
ATOM      8  C   UNL     1      -1.233   3.145   0.030  0.00  0.00    +0.038 A 
ATOM      9  C   UNL     1      -0.030   3.856   0.023  0.00  0.00    +0.032 A 
ATOM     10  C   UNL     1       1.169   3.177   0.007  0.00  0.00    +0.060 A 
ATOM     11 BR   UNL     1       2.798   4.137  -0.003  0.00  0.00    -0.046 Br
BRANCH   5  12
ATOM     12  O   UNL     1       2.365   1.121  -0.015  0.00  0.00    -0.491 OA
BRANCH  12  13
ATOM     13  C   UNL     1       2.306  -0.307  -0.022  0.00  0.00    +0.232 C 
BRANCH  13  15
ATOM     14  C   UNL     1       3.666  -2.400   0.080  0.00  0.00    +0.010 C 
ATOM     15  C   UNL     1       3.726  -0.876  -0.038  0.00  0.00    +0.020 C 
ATOM     16  C   UNL     1       4.414  -0.493  -1.350  0.00  0.00    +0.010 C 
ENDBRANCH  13  15
ENDBRANCH  12  13
ENDBRANCH   5  12
ENDBRANCH   1   8
BRANCH   3  17
ATOM     17  C   UNL     1      -4.853   3.840   0.070  0.00  0.00    +0.141 C 
ATOM     18  S   UNL     1      -4.873   5.552   0.080  0.00  0.00    -0.018 S 
BRANCH  17  19
ATOM     19  N   UNL     1      -6.013   3.153   0.077  0.00  0.00    -0.290 N 
ATOM     20  H   UNL     1      -6.001   2.183   0.071  0.00  0.00    +0.154 HD
BRANCH  19  21
ATOM     21  C   UNL     1      -7.220   3.831   0.093  0.00  0.00    +0.086 A 
ATOM     22  C   UNL     1      -8.502   3.307   0.096  0.00  0.00    +0.091 A 
ATOM     23  C   UNL     1      -9.620   4.252   0.117  0.00  0.00    -0.021 A 
ATOM     24  C   UNL     1      -9.269   5.550   0.121  0.00  0.00    -0.004 A 
ATOM     25  S   UNL     1      -7.493   5.540   0.104  0.00  0.00    -0.077 S 
ATOM     26  C   UNL     1     -10.469   6.458   0.141  0.00  0.00    +0.043 C 
ATOM     27  C   UNL     1     -11.637   5.550   0.584  0.00  0.00    +0.010 C 
ATOM     28  C   UNL     1     -11.146   4.161   0.129  0.00  0.00    +0.037 C 
BRANCH  22  29
ATOM     29  C   UNL     1      -8.732   1.861   0.085  0.00  0.00    +0.342 C 
ATOM     30  O   UNL     1      -8.820   1.250   1.133  0.00  0.00    -0.245 OA
BRANCH  29  31
ATOM     31  O   UNL     1      -8.844   1.206  -1.089  0.00  0.00    -0.464 OA
ATOM     32  C   UNL     1      -9.071  -0.227  -1.025  0.00  0.00    +0.280 C 
ENDBRANCH  29  31
ENDBRANCH  22  29
ENDBRANCH  19  21
ENDBRANCH  17  19
ENDBRANCH   3  17
TORSDOF 9
