REMARK  Name = ZINC04452908
REMARK  12 active torsions:
REMARK  status: ('A' for Active; 'I' for Inactive)
REMARK    1  A    between atoms: C_1  and  C_2
REMARK    2  A    between atoms: C_2  and  C_3
REMARK    3  A    between atoms: C_3  and  N_4
REMARK    4  A    between atoms: C_11  and  C_23
REMARK    5  A    between atoms: C_13  and  C_19
REMARK    6  A    between atoms: C_13  and  C_21
REMARK    7  A    between atoms: C_14  and  N_18
REMARK    8  A    between atoms: C_15  and  C_16
REMARK    9  A    between atoms: C_25  and  O_31
REMARK   10  A    between atoms: C_27  and  O_29
REMARK   11  A    between atoms: O_29  and  C_30
REMARK   12  A    between atoms: O_31  and  C_32
REMARK                            x       y       z     vdW  Elec       q    Type
REMARK                         _______ _______ _______ _____ _____    ______ ____
ROOT
ATOM      1  N   UNL     1       0.957  -1.907  -0.765  0.00  0.00    -0.298 NA
ATOM      2  C   UNL     1      -0.446  -2.343  -0.880  0.00  0.00    +0.112 C 
ATOM      3  C   UNL     1      -0.454  -3.852  -0.901  0.00  0.00    -0.007 C 
ATOM      4  C   UNL     1       0.547  -4.509  -1.458  0.00  0.00    -0.026 C 
ATOM      5  C   UNL     1       1.698  -3.822  -2.137  0.00  0.00    +0.044 C 
ATOM      6  C   UNL     1       1.715  -2.323  -1.949  0.00  0.00    +0.093 C 
ATOM      7  C   UNL     1       2.993  -4.479  -1.655  0.00  0.00    +0.068 C 
ATOM      8  C   UNL     1       2.998  -5.944  -2.093  0.00  0.00    +0.188 C 
ATOM      9  C   UNL     1       1.726  -6.642  -1.715  0.00  0.00    +0.054 C 
ATOM     10  C   UNL     1       0.570  -5.992  -1.428  0.00  0.00    +0.074 C 
ENDROOT
BRANCH   7  11
ATOM     11  C   UNL     1       4.175  -3.765  -2.259  0.00  0.00    -0.034 A 
ATOM     12  C   UNL     1       5.268  -3.455  -1.473  0.00  0.00    +0.050 A 
ATOM     13  C   UNL     1       6.358  -2.798  -2.026  0.00  0.00    +0.124 A 
ATOM     14  C   UNL     1       6.350  -2.453  -3.369  0.00  0.00    +0.091 A 
ATOM     15  C   UNL     1       5.252  -2.766  -4.155  0.00  0.00    +0.124 A 
ATOM     16  C   UNL     1       4.167  -3.428  -3.599  0.00  0.00    +0.050 A 
BRANCH  15  17
ATOM     17  O   UNL     1       5.240  -2.429  -5.472  0.00  0.00    -0.495 OA
ATOM     18  C   UNL     1       6.393  -1.754  -5.979  0.00  0.00    +0.277 C 
ENDBRANCH  15  17
BRANCH  13  19
ATOM     19  O   UNL     1       7.433  -2.492  -1.252  0.00  0.00    -0.495 OA
ATOM     20  C   UNL     1       8.519  -1.816  -1.889  0.00  0.00    +0.277 C 
ENDBRANCH  13  19
ENDBRANCH   7  11
BRANCH   9  21
ATOM     21  N   UNL     1       1.732  -8.008  -1.658  0.00  0.00    -0.358 N 
ATOM     22  H   UNL     1       2.544  -8.498  -1.859  0.00  0.00    +0.142 HD
ATOM     23  H   UNL     1       0.923  -8.486  -1.416  0.00  0.00    +0.142 HD
ENDBRANCH   9  21
BRANCH  10  24
ATOM     24  C   UNL     1      -0.614  -6.729  -1.099  0.00  0.00    +0.101 C 
ATOM     25  N   UNL     1      -1.552  -7.313  -0.838  0.00  0.00    -0.191 NA
ENDBRANCH  10  24
BRANCH   8  26
ATOM     26  C   UNL     1       3.164  -6.007  -3.554  0.00  0.00    +0.091 C 
ATOM     27  N   UNL     1       3.292  -6.056  -4.681  0.00  0.00    -0.194 NA
ENDBRANCH   8  26
BRANCH   8  28
ATOM     28  C   UNL     1       4.131  -6.631  -1.453  0.00  0.00    +0.091 C 
ATOM     29  N   UNL     1       5.005  -7.162  -0.959  0.00  0.00    -0.194 NA
ENDBRANCH   8  28
BRANCH   1  30
ATOM     30  C   UNL     1       1.043  -0.454  -0.570  0.00  0.00    +0.084 C 
BRANCH  30  32
ATOM     31  C   UNL     1       0.547   1.426   1.000  0.00  0.00    +0.005 C 
ATOM     32  C   UNL     1       0.458  -0.088   0.796  0.00  0.00    +0.012 C 
ENDBRANCH  30  32
ENDBRANCH   1  30
TORSDOF 9
