REMARK  Name = ZINC09120365
REMARK  5 active torsions:
REMARK  status: ('A' for Active; 'I' for Inactive)
REMARK    1  A    between atoms: C_5  and  C_7
REMARK    2  A    between atoms: C_10  and  S_12
REMARK    3  A    between atoms: S_12  and  C_13
REMARK    4  A    between atoms: C_13  and  C_14
REMARK    5  A    between atoms: N_19  and  C_20
REMARK                            x       y       z     vdW  Elec       q    Type
REMARK                         _______ _______ _______ _____ _____    ______ ____
ROOT
ATOM      1  C   UNL     1      -7.192   1.201   2.099  0.00  0.00    +0.231 C 
ATOM      2  O   UNL     1      -6.796   1.898   3.008  0.00  0.00    -0.274 OA
ATOM      3  N   UNL     1      -6.368   0.892   1.079  0.00  0.00    -0.239 N 
ATOM      4  C   UNL     1      -5.103   1.358   1.069  0.00  0.00    +0.306 C 
ATOM      5  O   UNL     1      -4.707   2.057   1.980  0.00  0.00    -0.252 OA
ATOM      6  N   UNL     1      -4.279   1.049   0.049  0.00  0.00    -0.294 N 
ATOM      7  H   UNL     1      -6.684   0.334   0.351  0.00  0.00    +0.159 HD
ATOM      8  H   UNL     1      -4.595   0.491  -0.679  0.00  0.00    +0.151 HD
ENDROOT
BRANCH   6   9
ATOM      9  C   UNL     1      -2.904   1.556   0.038  0.00  0.00    +0.037 C 
ATOM     10  C   UNL     1      -2.188   1.063  -1.221  0.00  0.00    +0.029 C 
ATOM     11  C   UNL     1      -0.753   1.593  -1.232  0.00  0.00    -0.008 C 
ATOM     12  C   UNL     1      -0.013   1.086   0.008  0.00  0.00    +0.007 C 
ATOM     13  C   UNL     1      -0.729   1.579   1.267  0.00  0.00    -0.008 C 
ATOM     14  C   UNL     1      -2.164   1.050   1.278  0.00  0.00    +0.029 C 
ATOM     15  C   UNL     1      -0.750   3.109   1.275  0.00  0.00    +0.007 C 
ATOM     16  C   UNL     1      -1.490   3.616   0.036  0.00  0.00    -0.008 C 
ATOM     17  C   UNL     1      -0.773   3.123  -1.223  0.00  0.00    +0.007 C 
ATOM     18  C   UNL     1      -2.925   3.086   0.047  0.00  0.00    +0.029 C 
ENDBRANCH   6   9
BRANCH   1  19
ATOM     19  C   UNL     1      -8.606   0.679   2.110  0.00  0.00    +0.175 C 
BRANCH  19  20
ATOM     20  S   UNL     1      -9.453   1.263   3.599  0.00  0.00    -0.056 S 
BRANCH  20  24
ATOM     21  C   UNL     1     -13.090  -0.087   3.614  0.00  0.00    +0.250 A 
ATOM     22  N   UNL     1     -12.623  -0.588   2.496  0.00  0.00    -0.106 NA
ATOM     23  N   UNL     1     -11.400  -0.218   2.341  0.00  0.00    -0.101 NA
ATOM     24  C   UNL     1     -11.036   0.526   3.359  0.00  0.00    +0.278 A 
ATOM     25  O   UNL     1     -12.096   0.629   4.183  0.00  0.00    -0.411 OA
BRANCH  21  30
ATOM     26  C   UNL     1     -16.092   0.146   5.858  0.00  0.00    +0.001 A 
ATOM     27  C   UNL     1     -17.010  -0.618   5.160  0.00  0.00    +0.001 A 
ATOM     28  C   UNL     1     -16.658  -1.211   3.961  0.00  0.00    +0.016 A 
ATOM     29  C   UNL     1     -15.386  -1.042   3.452  0.00  0.00    +0.030 A 
ATOM     30  C   UNL     1     -14.454  -0.272   4.151  0.00  0.00    +0.052 A 
ATOM     31  C   UNL     1     -14.815   0.319   5.364  0.00  0.00    +0.014 A 
ATOM     32 BR   UNL     1     -14.905  -1.854   1.813  0.00  0.00    -0.050 Br
ENDBRANCH  21  30
ENDBRANCH  20  24
ENDBRANCH  19  20
ENDBRANCH   1  19
TORSDOF 5
