REMARK  Name = ZINC63354680
REMARK  7 active torsions:
REMARK  status: ('A' for Active; 'I' for Inactive)
REMARK    1  A    between atoms: C_1  and  O_2
REMARK    2  A    between atoms: O_2  and  C_3
REMARK    3  A    between atoms: C_6  and  C_23
REMARK    4  A    between atoms: C_8  and  C_9
REMARK    5  A    between atoms: C_9  and  O_10
REMARK    6  A    between atoms: O_10  and  C_11
REMARK    7  A    between atoms: C_16  and  C_17
REMARK                            x       y       z     vdW  Elec       q    Type
REMARK                         _______ _______ _______ _____ _____    ______ ____
ROOT
ATOM      1  C   UNL     1       0.606  -0.607  -1.056  0.00  0.00    +0.126 A 
ATOM      2  C   UNL     1       1.177   0.161  -2.060  0.00  0.00    +0.046 A 
ATOM      3  C   UNL     1       1.790  -0.455  -3.134  0.00  0.00    +0.009 A 
ATOM      4  C   UNL     1       1.836  -1.835  -3.208  0.00  0.00    -0.028 A 
ATOM      5  C   UNL     1       1.267  -2.602  -2.209  0.00  0.00    +0.015 A 
ATOM      6  C   UNL     1       0.657  -1.991  -1.130  0.00  0.00    +0.032 A 
ENDROOT
BRANCH   4   7
ATOM      7  C   UNL     1       2.506  -2.503  -4.381  0.00  0.00    +0.111 C 
ATOM      8  C   UNL     1       3.930  -1.966  -4.537  0.00  0.00    +0.128 C 
ATOM      9  C   UNL     1       3.791  -0.497  -4.923  0.00  0.00    -0.035 C 
ATOM     10  C   UNL     1       4.511   0.190  -4.047  0.00  0.00    -0.001 A 
ATOM     11  C   UNL     1       4.832   1.623  -3.950  0.00  0.00    +0.010 A 
ATOM     12  C   UNL     1       5.601   1.996  -2.893  0.00  0.00    +0.001 A 
ATOM     13  C   UNL     1       6.076   1.097  -1.933  0.00  0.00    +0.002 A 
ATOM     14  C   UNL     1       5.835  -0.238  -1.947  0.00  0.00    +0.026 A 
ATOM     15  C   UNL     1       5.042  -0.751  -3.014  0.00  0.00    +0.043 A 
ATOM     16  N   UNL     1       4.681  -1.991  -3.283  0.00  0.00    -0.376 N 
ATOM     17  C   UNL     1       2.888  -0.057  -6.049  0.00  0.00    +0.048 C 
ATOM     18  C   UNL     1       1.542  -0.770  -5.825  0.00  0.00    +0.086 C 
ATOM     19  N   UNL     1       1.760  -2.205  -5.614  0.00  0.00    -0.307 NA
ATOM     20  H   UNL     1       2.205  -2.625  -6.416  0.00  0.00    +0.123 HD
ATOM     21  H   UNL     1       4.871  -2.780  -2.751  0.00  0.00    +0.160 HD
ENDBRANCH   4   7
BRANCH   1  23
ATOM     22  C   UNL     1      -0.013   1.425   0.012  0.00  0.00    +0.277 C 
ATOM     23  O   UNL     1       0.002  -0.004   0.002  0.00  0.00    -0.495 OA
ENDBRANCH   1  23
BRANCH   6  24
ATOM     24  C   UNL     1       0.043  -2.828  -0.037  0.00  0.00    +0.268 C 
BRANCH  24  25
ATOM     25  O   UNL     1       0.224  -4.213  -0.340  0.00  0.00    -0.487 OA
BRANCH  25  26
ATOM     26  C   UNL     1      -0.276  -5.110   0.551  0.00  0.00    +0.124 A 
ATOM     27  C   UNL     1      -0.931  -4.665   1.690  0.00  0.00    +0.046 A 
ATOM     28  C   UNL     1      -1.439  -5.578   2.594  0.00  0.00    +0.004 A 
ATOM     29  C   UNL     1      -1.293  -6.934   2.365  0.00  0.00    +0.001 A 
ATOM     30  C   UNL     1      -0.639  -7.380   1.231  0.00  0.00    +0.007 A 
ATOM     31  C   UNL     1      -0.135  -6.470   0.321  0.00  0.00    -0.003 A 
BRANCH  31  32
ATOM     32  C   UNL     1       0.571  -6.956  -0.918  0.00  0.00    +0.023 C 
ATOM     33  C   UNL     1      -0.387  -7.811  -1.750  0.00  0.00    +0.008 C 
ATOM     34  C   UNL     1       0.331  -8.304  -3.008  0.00  0.00    +0.001 C 
ATOM     35  C   UNL     1       1.545  -9.144  -2.607  0.00  0.00    +0.000 C 
ATOM     36  C   UNL     1       2.503  -8.290  -1.775  0.00  0.00    +0.001 C 
ATOM     37  C   UNL     1       1.786  -7.796  -0.517  0.00  0.00    +0.008 C 
ENDBRANCH  31  32
ENDBRANCH  25  26
ENDBRANCH  24  25
ENDBRANCH   6  24
TORSDOF 6
