REMARK  Name = ZINC59187207
REMARK  13 active torsions:
REMARK  status: ('A' for Active; 'I' for Inactive)
REMARK    1  A    between atoms: C_1  and  C_2
REMARK    2  A    between atoms: C_2  and  C_31
REMARK    3  A    between atoms: C_4  and  N_10
REMARK    4  A    between atoms: C_6  and  C_8
REMARK    5  A    between atoms: C_6  and  C_9
REMARK    6  A    between atoms: N_10  and  C_11
REMARK    7  A    between atoms: N_10  and  C_18
REMARK    8  A    between atoms: C_11  and  C_12
REMARK    9  A    between atoms: C_18  and  N_20
REMARK   10  A    between atoms: N_20  and  C_21
REMARK   11  A    between atoms: C_26  and  C_27
REMARK   12  A    between atoms: C_27  and  O_29
REMARK   13  A    between atoms: O_29  and  C_30
REMARK                            x       y       z     vdW  Elec       q    Type
REMARK                         _______ _______ _______ _____ _____    ______ ____
ROOT
ATOM      1  N   UNL     1      -3.033  -2.271   0.053  0.00  0.00    -0.305 N 
ENDROOT
BRANCH   1   5
ATOM      2  C   UNL     1       0.287   1.333   0.361  0.00  0.00    -0.010 C 
ATOM      3  C   UNL     1       0.142  -0.197   0.189  0.00  0.00    -0.072 C 
ATOM      4  C   UNL     1      -1.347  -0.502   0.061  0.00  0.00    +0.009 C 
ATOM      5  C   UNL     1      -1.592  -2.008   0.147  0.00  0.00    +0.073 C 
ATOM      6  C   UNL     1      -1.078  -2.498   1.501  0.00  0.00    +0.009 C 
ATOM      7  C   UNL     1       0.413  -2.209   1.640  0.00  0.00    -0.072 C 
ATOM      8  N   UNL     1       0.762  -0.831   1.339  0.00  0.00    +0.386 N 
ATOM      9  C   UNL     1       1.213  -3.188   0.775  0.00  0.00    -0.010 C 
ATOM     10  C   UNL     1       0.801  -2.482   3.111  0.00  0.00    -0.010 C 
ATOM     11  C   UNL     1       0.862  -0.573  -1.110  0.00  0.00    -0.010 C 
ATOM     12  H   UNL     1       1.779  -0.775   1.227  0.00  0.00    -0.084 HD
ATOM     13  H   UNL     1       0.559  -0.262   2.167  0.00  0.00    -0.084 HD
ENDBRANCH   1   5
BRANCH   1  14
ATOM     14  C   UNL     1      -3.864  -1.826   1.016  0.00  0.00    +0.138 C 
ATOM     15  S   UNL     1      -5.524  -2.240   0.973  0.00  0.00    -0.018 S 
BRANCH  14  16
ATOM     16  N   UNL     1      -3.387  -1.056   2.014  0.00  0.00    -0.296 N 
ATOM     17  H   UNL     1      -2.460  -0.771   2.006  0.00  0.00    +0.154 HD
BRANCH  16  18
ATOM     18  C   UNL     1      -4.224  -0.670   3.057  0.00  0.00    +0.047 A 
ATOM     19  C   UNL     1      -4.694   0.635   3.128  0.00  0.00    +0.024 A 
ATOM     20  C   UNL     1      -5.524   1.016   4.162  0.00  0.00    +0.002 A 
ATOM     21  C   UNL     1      -5.897   0.102   5.136  0.00  0.00    +0.001 A 
ATOM     22  C   UNL     1      -5.441  -1.197   5.082  0.00  0.00    +0.017 A 
ATOM     23  C   UNL     1      -4.604  -1.599   4.038  0.00  0.00    +0.080 A 
BRANCH  23  24
ATOM     24  C   UNL     1      -4.117  -2.988   3.971  0.00  0.00    +0.341 C 
ATOM     25  O   UNL     1      -3.307  -3.308   3.123  0.00  0.00    -0.245 OA
BRANCH  24  26
ATOM     26  O   UNL     1      -4.570  -3.904   4.850  0.00  0.00    -0.464 OA
ATOM     27  C   UNL     1      -4.056  -5.231   4.726  0.00  0.00    +0.280 C 
ENDBRANCH  24  26
ENDBRANCH  23  24
ENDBRANCH  16  18
ENDBRANCH  14  16
ENDBRANCH   1  14
BRANCH   1  28
ATOM     28  C   UNL     1      -3.569  -3.016  -1.089  0.00  0.00    +0.142 C 
BRANCH  28  29
ATOM     29  C   UNL     1      -3.578  -4.488  -0.769  0.00  0.00    -0.030 A 
ATOM     30  C   UNL     1      -2.475  -5.267  -1.067  0.00  0.00    +0.005 A 
ATOM     31  C   UNL     1      -2.483  -6.618  -0.773  0.00  0.00    +0.000 A 
ATOM     32  C   UNL     1      -3.594  -7.190  -0.181  0.00  0.00    +0.000 A 
ATOM     33  C   UNL     1      -4.696  -6.411   0.118  0.00  0.00    +0.000 A 
ATOM     34  C   UNL     1      -4.686  -5.059  -0.172  0.00  0.00    +0.005 A 
ENDBRANCH  28  29
ENDBRANCH   1  28
TORSDOF 8
