REMARK  Name = ZINC09236942
REMARK  4 active torsions:
REMARK  status: ('A' for Active; 'I' for Inactive)
REMARK    1  A    between atoms: C_4  and  C_7
REMARK    2  A    between atoms: C_13  and  C_28
REMARK    3  A    between atoms: C_15  and  C_18
REMARK    4  A    between atoms: N_20  and  C_21
REMARK                            x       y       z     vdW  Elec       q    Type
REMARK                         _______ _______ _______ _____ _____    ______ ____
ROOT
ATOM      1  C   UNL     1      -2.583   3.980   2.607  0.00  0.00    +0.182 A 
ATOM      2  N   UNL     1      -3.733   4.566   2.357  0.00  0.00    -0.127 NA
ATOM      3  N   UNL     1      -4.063   4.382   1.125  0.00  0.00    -0.121 NA
ATOM      4  C   UNL     1      -3.147   3.669   0.526  0.00  0.00    +0.210 A 
ATOM      5  N   UNL     1      -2.168   3.391   1.438  0.00  0.00    -0.221 N 
ATOM      6  N   UNL     1      -1.027   2.686   1.226  0.00  0.00    -0.272 N 
ATOM      7  C   UNL     1      -1.096   1.787   0.072  0.00  0.00    +0.140 C 
ATOM      8  C   UNL     1      -1.383   2.580  -1.209  0.00  0.00    +0.166 C 
ATOM      9  S   UNL     1      -3.118   3.122  -1.152  0.00  0.00    -0.069 S 
ATOM     10  H   UNL     1      -0.750   2.186   2.057  0.00  0.00    +0.167 HD
ENDROOT
BRANCH   1  14
ATOM     11  C   UNL     1      -0.540   3.919   6.330  0.00  0.00    +0.000 A 
ATOM     12  C   UNL     1       0.142   3.613   5.166  0.00  0.00    +0.001 A 
ATOM     13  C   UNL     1      -0.516   3.631   3.953  0.00  0.00    +0.011 A 
ATOM     14  C   UNL     1      -1.872   3.959   3.903  0.00  0.00    +0.021 A 
ATOM     15  C   UNL     1      -2.552   4.272   5.081  0.00  0.00    +0.011 A 
ATOM     16  C   UNL     1      -1.883   4.245   6.288  0.00  0.00    +0.001 A 
ENDBRANCH   1  14
BRANCH   7  17
ATOM     17  C   UNL     1       0.217   1.062  -0.074  0.00  0.00    -0.024 A 
ATOM     18  C   UNL     1       1.405   1.736   0.133  0.00  0.00    +0.005 A 
ATOM     19  C   UNL     1       2.610   1.073  -0.008  0.00  0.00    +0.000 A 
ATOM     20  C   UNL     1       2.626  -0.265  -0.354  0.00  0.00    +0.000 A 
ATOM     21  C   UNL     1       1.437  -0.940  -0.560  0.00  0.00    +0.000 A 
ATOM     22  C   UNL     1       0.232  -0.276  -0.420  0.00  0.00    +0.005 A 
ENDBRANCH   7  17
BRANCH   8  23
ATOM     23  C   UNL     1      -0.476   3.781  -1.280  0.00  0.00    +0.233 C 
ATOM     24  O   UNL     1      -0.090   4.311  -0.259  0.00  0.00    -0.274 OA
ATOM     25  N   UNL     1      -0.092   4.266  -2.477  0.00  0.00    -0.285 N 
ATOM     26  H   UNL     1      -0.338   3.799  -3.291  0.00  0.00    +0.155 HD
BRANCH  25  27
ATOM     27  C   UNL     1       0.662   5.444  -2.546  0.00  0.00    +0.033 A 
ATOM     28  C   UNL     1       0.460   6.454  -1.616  0.00  0.00    +0.024 A 
ATOM     29  C   UNL     1       1.209   7.612  -1.683  0.00  0.00    +0.017 A 
ATOM     30  C   UNL     1       2.152   7.771  -2.683  0.00  0.00    +0.018 A 
ATOM     31  C   UNL     1       2.351   6.768  -3.615  0.00  0.00    +0.017 A 
ATOM     32  C   UNL     1       1.609   5.605  -3.549  0.00  0.00    +0.024 A 
ATOM     33 BR   UNL     1       3.171   9.361  -2.776  0.00  0.00    -0.050 Br
ENDBRANCH  25  27
ENDBRANCH   8  23
TORSDOF 4
