REMARK  Name = ZINC57310317
REMARK  8 active torsions:
REMARK  status: ('A' for Active; 'I' for Inactive)
REMARK    1  A    between atoms: C_1  and  C_2
REMARK    2  A    between atoms: C_4  and  C_26
REMARK    3  A    between atoms: C_6  and  C_19
REMARK    4  A    between atoms: N_9  and  C_11
REMARK    5  A    between atoms: N_28  and  C_29
REMARK    6  A    between atoms: C_32  and  C_35
REMARK    7  A    between atoms: C_35  and  C_36
REMARK    8  A    between atoms: C_35  and  C_37
REMARK                            x       y       z     vdW  Elec       q    Type
REMARK                         _______ _______ _______ _____ _____    ______ ____
ROOT
ATOM      1  C   UNL     1      -0.875   1.553   0.095  0.00  0.00    +0.068 C 
ATOM      2  C   UNL     1      -0.735   0.053   0.110  0.00  0.00    +0.070 A 
ATOM      3  C   UNL     1      -0.517  -0.764  -1.020  0.00  0.00    +0.054 A 
ATOM      4  C   UNL     1      -0.372  -0.504  -2.402  0.00  0.00    +0.051 A 
ATOM      5  C   UNL     1      -0.165  -1.585  -3.251  0.00  0.00    +0.042 A 
ATOM      6  C   UNL     1      -0.108  -2.875  -2.714  0.00  0.00    +0.074 A 
ATOM      7  N   UNL     1      -0.248  -3.088  -1.416  0.00  0.00    -0.228 NA
ATOM      8  C   UNL     1      -0.447  -2.096  -0.561  0.00  0.00    +0.160 A 
ATOM      9  N   UNL     1      -0.619  -2.045   0.798  0.00  0.00    -0.241 N 
ATOM     10  N   UNL     1      -0.787  -0.705   1.167  0.00  0.00    -0.174 NA
ENDROOT
BRANCH   9  11
ATOM     11  C   UNL     1      -0.622  -3.194   1.707  0.00  0.00    +0.132 C 
ATOM     12  C   UNL     1       0.499  -3.025   2.746  0.00  0.00    +0.051 C 
ATOM     13  C   UNL     1       0.280  -4.077   3.871  0.00  0.00    +0.168 C 
ATOM     14  S   UNL     1      -1.552  -3.993   4.058  0.00  0.00    -0.029 S 
ATOM     15  O   UNL     1      -2.068  -5.314   4.143  0.00  0.00    -0.174 OA
ATOM     16  O   UNL     1      -1.870  -3.051   5.072  0.00  0.00    -0.174 OA
ATOM     17  C   UNL     1      -1.992  -3.282   2.421  0.00  0.00    +0.192 C 
ENDBRANCH   9  11
BRANCH   6  18
ATOM     18  C   UNL     1       0.113  -4.029  -3.618  0.00  0.00    +0.001 A 
ATOM     19  C   UNL     1       0.267  -3.823  -4.989  0.00  0.00    +0.013 A 
ATOM     20  C   UNL     1       0.473  -4.899  -5.826  0.00  0.00    +0.039 A 
ATOM     21  C   UNL     1       0.526  -6.183  -5.308  0.00  0.00    +0.123 A 
ATOM     22  C   UNL     1       0.372  -6.393  -3.947  0.00  0.00    +0.039 A 
ATOM     23  C   UNL     1       0.172  -5.322  -3.101  0.00  0.00    +0.013 A 
ATOM     24  F   UNL     1       0.727  -7.235  -6.132  0.00  0.00    -0.205 F 
ENDBRANCH   6  18
BRANCH   4  25
ATOM     25  C   UNL     1      -0.440   0.876  -2.929  0.00  0.00    +0.249 C 
ATOM     26  O   UNL     1       0.070   1.789  -2.308  0.00  0.00    -0.270 OA
ATOM     27  N   UNL     1      -1.066   1.122  -4.096  0.00  0.00    -0.281 N 
ATOM     28  H   UNL     1      -1.528   0.406  -4.559  0.00  0.00    +0.155 HD
BRANCH  27  29
ATOM     29  C   UNL     1      -1.050   2.410  -4.641  0.00  0.00    +0.034 A 
ATOM     30  C   UNL     1       0.068   3.219  -4.482  0.00  0.00    +0.023 A 
ATOM     31  C   UNL     1       0.081   4.490  -5.021  0.00  0.00    +0.006 A 
ATOM     32  C   UNL     1      -1.018   4.958  -5.718  0.00  0.00    -0.045 A 
ATOM     33  C   UNL     1      -2.133   4.156  -5.878  0.00  0.00    +0.006 A 
ATOM     34  C   UNL     1      -2.150   2.881  -5.347  0.00  0.00    +0.023 A 
BRANCH  32  35
ATOM     35  C   UNL     1      -1.000   6.346  -6.305  0.00  0.00    +0.013 C 
ATOM     36  C   UNL     1      -1.181   6.261  -7.822  0.00  0.00    +0.012 C 
ATOM     37  C   UNL     1      -2.140   7.170  -5.701  0.00  0.00    +0.012 C 
ENDBRANCH  32  35
ENDBRANCH  27  29
ENDBRANCH   4  25
TORSDOF 5
