REMARK  Name = ZINC14118978
REMARK  10 active torsions:
REMARK  status: ('A' for Active; 'I' for Inactive)
REMARK    1  A    between atoms: C_1  and  C_2
REMARK    2  A    between atoms: C_4  and  C_8
REMARK    3  A    between atoms: C_5  and  C_7
REMARK    4  A    between atoms: C_10  and  C_20
REMARK    5  A    between atoms: N_14  and  C_17
REMARK    6  A    between atoms: C_17  and  C_18
REMARK    7  A    between atoms: C_17  and  C_19
REMARK    8  A    between atoms: N_22  and  C_23
REMARK    9  A    between atoms: C_26  and  C_29
REMARK   10  A    between atoms: N_31  and  C_32
REMARK                            x       y       z     vdW  Elec       q    Type
REMARK                         _______ _______ _______ _____ _____    ______ ____
ROOT
ATOM      1  C   UNL     1      -1.890  -1.040   3.394  0.00  0.00    +0.075 A 
ATOM      2  C   UNL     1      -2.464  -0.256   4.401  0.00  0.00    +0.042 A 
ATOM      3  C   UNL     1      -2.577   1.116   4.212  0.00  0.00    +0.051 A 
ATOM      4  C   UNL     1      -2.101   1.660   2.995  0.00  0.00    +0.051 A 
ATOM      5  C   UNL     1      -2.049   2.966   2.465  0.00  0.00    +0.145 A 
ATOM      6  N   UNL     1      -1.497   2.914   1.286  0.00  0.00    -0.177 NA
ATOM      7  N   UNL     1      -1.168   1.589   0.976  0.00  0.00    -0.244 N 
ATOM      8  C   UNL     1      -1.536   0.799   2.034  0.00  0.00    +0.160 A 
ATOM      9  N   UNL     1      -1.453  -0.503   2.267  0.00  0.00    -0.227 NA
ENDROOT
BRANCH   1  13
ATOM     10  C   UNL     1      -2.467  -5.337   6.035  0.00  0.00    +0.051 C 
ATOM     11  C   UNL     1      -2.075  -4.441   4.888  0.00  0.00    -0.012 A 
ATOM     12  C   UNL     1      -2.212  -3.101   4.774  0.00  0.00    +0.021 A 
ATOM     13  C   UNL     1      -1.768  -2.503   3.596  0.00  0.00    +0.011 A 
ATOM     14  C   UNL     1      -1.213  -3.298   2.634  0.00  0.00    -0.004 A 
ATOM     15  S   UNL     1      -1.304  -4.878   3.341  0.00  0.00    -0.098 S 
ATOM     16  C   UNL     1      -0.658  -2.900   1.291  0.00  0.00    +0.052 C 
ENDBRANCH   1  13
BRANCH   3  17
ATOM     17  C   UNL     1      -3.178   1.981   5.249  0.00  0.00    +0.249 C 
ATOM     18  O   UNL     1      -3.268   3.179   5.064  0.00  0.00    -0.270 OA
ATOM     19  N   UNL     1      -3.626   1.442   6.400  0.00  0.00    -0.281 N 
ATOM     20  H   UNL     1      -3.624   0.479   6.517  0.00  0.00    +0.155 HD
BRANCH  19  21
ATOM     21  C   UNL     1      -4.090   2.267   7.422  0.00  0.00    +0.034 A 
ATOM     22  C   UNL     1      -3.512   3.517   7.622  0.00  0.00    +0.024 A 
ATOM     23  C   UNL     1      -3.972   4.337   8.628  0.00  0.00    +0.015 A 
ATOM     24  C   UNL     1      -5.014   3.908   9.455  0.00  0.00    +0.037 A 
ATOM     25  C   UNL     1      -5.589   2.651   9.255  0.00  0.00    +0.015 A 
ATOM     26  C   UNL     1      -5.128   1.838   8.244  0.00  0.00    +0.024 A 
BRANCH  24  27
ATOM     27  C   UNL     1      -5.505   4.782  10.538  0.00  0.00    +0.244 C 
ATOM     28  O   UNL     1      -6.411   4.408  11.257  0.00  0.00    -0.270 OA
ATOM     29  N   UNL     1      -4.949   5.995  10.730  0.00  0.00    -0.308 N 
ATOM     30  H   UNL     1      -4.227   6.293  10.156  0.00  0.00    +0.149 HD
BRANCH  29  31
ATOM     31  C   UNL     1      -5.437   6.862  11.805  0.00  0.00    +0.073 C 
ATOM     32  C   UNL     1      -5.639   8.344  11.481  0.00  0.00    +0.024 C 
ATOM     33  C   UNL     1      -4.469   7.906  12.365  0.00  0.00    +0.024 C 
ENDBRANCH  29  31
ENDBRANCH  24  27
ENDBRANCH  19  21
ENDBRANCH   3  17
BRANCH   7  34
ATOM     34  C   UNL     1      -0.534   1.129  -0.262  0.00  0.00    +0.103 C 
ATOM     35  C   UNL     1       0.826   1.811  -0.424  0.00  0.00    +0.032 C 
ATOM     36  C   UNL     1      -1.427   1.481  -1.454  0.00  0.00    +0.032 C 
ENDBRANCH   7  34
TORSDOF 6
