REMARK  Name = ZINC40844483
REMARK  8 active torsions:
REMARK  status: ('A' for Active; 'I' for Inactive)
REMARK    1  A    between atoms: C_1  and  O_2
REMARK    2  A    between atoms: O_2  and  C_3
REMARK    3  A    between atoms: C_6  and  C_10
REMARK    4  A    between atoms: N_11  and  N_12
REMARK    5  A    between atoms: N_15  and  C_16
REMARK    6  A    between atoms: C_17  and  C_25
REMARK    7  A    between atoms: C_25  and  O_27
REMARK    8  A    between atoms: O_27  and  C_28
REMARK                            x       y       z     vdW  Elec       q    Type
REMARK                         _______ _______ _______ _____ _____    ______ ____
ROOT
ATOM      1  N   UNL     1       2.056  -4.562  -3.369  0.00  0.00    -0.191 N 
ATOM      2  C   UNL     1       2.278  -5.891  -3.336  0.00  0.00    +0.324 C 
ATOM      3  O   UNL     1       1.783  -6.568  -2.456  0.00  0.00    -0.251 OA
ATOM      4  N   UNL     1       3.049  -6.468  -4.279  0.00  0.00    -0.262 N 
ATOM      5  H   UNL     1       1.501  -4.146  -2.691  0.00  0.00    +0.179 HD
ATOM      6  H   UNL     1       3.444  -5.928  -4.981  0.00  0.00    +0.157 HD
ENDROOT
BRANCH   4   7
ATOM      7  C   UNL     1       3.277  -7.835  -4.245  0.00  0.00    +0.088 A 
ATOM      8  C   UNL     1       4.041  -8.594  -5.120  0.00  0.00    +0.091 A 
ATOM      9  C   UNL     1       4.122 -10.021  -4.862  0.00  0.00    -0.021 A 
ATOM     10  C   UNL     1       3.425 -10.428  -3.780  0.00  0.00    -0.004 A 
ATOM     11  S   UNL     1       2.700  -8.951  -3.132  0.00  0.00    -0.077 S 
ATOM     12  C   UNL     1       3.310 -11.827  -3.257  0.00  0.00    +0.043 C 
ATOM     13  C   UNL     1       3.793 -12.791  -4.351  0.00  0.00    +0.005 C 
ATOM     14  C   UNL     1       5.131 -12.287  -4.901  0.00  0.00    +0.005 C 
ATOM     15  C   UNL     1       4.911 -11.007  -5.711  0.00  0.00    +0.037 C 
BRANCH   8  16
ATOM     16  C   UNL     1       4.736  -7.982  -6.254  0.00  0.00    +0.342 C 
ATOM     17  O   UNL     1       5.873  -7.571  -6.121  0.00  0.00    -0.245 OA
BRANCH  16  18
ATOM     18  O   UNL     1       4.115  -7.874  -7.447  0.00  0.00    -0.464 OA
ATOM     19  C   UNL     1       4.852  -7.267  -8.510  0.00  0.00    +0.280 C 
ENDBRANCH  16  18
ENDBRANCH   8  16
ENDBRANCH   4   7
BRANCH   1  21
ATOM     20  C   UNL     1       2.518  -2.488  -4.344  0.00  0.00    +0.138 C 
ATOM     21  N   UNL     1       2.626  -3.781  -4.383  0.00  0.00    -0.186 NA
BRANCH  20  25
ATOM     22  C   UNL     1       1.982  -0.513  -0.624  0.00  0.00    +0.134 A 
ATOM     23  C   UNL     1       2.401  -1.837  -0.651  0.00  0.00    +0.047 A 
ATOM     24  C   UNL     1       2.576  -2.482  -1.857  0.00  0.00    +0.013 A 
ATOM     25  C   UNL     1       2.332  -1.802  -3.053  0.00  0.00    -0.004 A 
ATOM     26  C   UNL     1       1.911  -0.470  -3.021  0.00  0.00    +0.028 A 
ATOM     27  C   UNL     1       1.733   0.166  -1.811  0.00  0.00    +0.060 A 
ATOM     28 BR   UNL     1       1.156   1.966  -1.766  0.00  0.00    -0.046 Br
BRANCH  22  30
ATOM     29  C   UNL     1       2.084  -0.637   1.748  0.00  0.00    +0.277 C 
ATOM     30  O   UNL     1       1.810   0.119   0.566  0.00  0.00    -0.494 OA
ENDBRANCH  22  30
ENDBRANCH  20  25
ENDBRANCH   1  21
TORSDOF 6
