REMARK  Name = ZINC10316680
REMARK  5 active torsions:
REMARK  status: ('A' for Active; 'I' for Inactive)
REMARK    1  A    between atoms: N_9  and  C_26
REMARK    2  A    between atoms: C_10  and  S_12
REMARK    3  A    between atoms: S_12  and  C_13
REMARK    4  A    between atoms: C_13  and  C_14
REMARK    5  A    between atoms: N_19  and  C_20
REMARK                            x       y       z     vdW  Elec       q    Type
REMARK                         _______ _______ _______ _____ _____    ______ ____
ROOT
ATOM      1  C   UNL     1       2.381   1.422  -0.011  0.00  0.00    +0.001 A 
ATOM      2  C   UNL     1       1.161   2.086   0.002  0.00  0.00    +0.002 A 
ATOM      3  C   UNL     1      -0.017   1.394   0.010  0.00  0.00    +0.028 A 
ATOM      4  C   UNL     1       0.002  -0.004   0.002  0.00  0.00    +0.079 A 
ATOM      5  C   UNL     1       1.245  -0.677  -0.013  0.00  0.00    +0.065 A 
ATOM      6  C   UNL     1       2.432   0.055  -0.020  0.00  0.00    +0.015 A 
ATOM      7  C   UNL     1       1.240  -2.146  -0.021  0.00  0.00    +0.267 A 
ATOM      8  O   UNL     1       2.278  -2.781  -0.035  0.00  0.00    -0.267 OA
ATOM      9  N   UNL     1       0.037  -2.766  -0.013  0.00  0.00    -0.253 N 
ATOM     10  C   UNL     1      -1.119  -2.036   0.002  0.00  0.00    +0.177 A 
ATOM     11  N   UNL     1      -1.137  -0.726   0.009  0.00  0.00    -0.223 NA
ENDROOT
BRANCH   9  12
ATOM     12  C   UNL     1      -0.024  -4.167  -0.020  0.00  0.00    +0.087 A 
ATOM     13  C   UNL     1      -0.037  -4.868   1.178  0.00  0.00    +0.029 A 
ATOM     14  C   UNL     1      -0.102  -6.248   1.169  0.00  0.00    +0.002 A 
ATOM     15  C   UNL     1      -0.143  -6.932  -0.032  0.00  0.00    +0.003 A 
ATOM     16  C   UNL     1      -0.125  -6.239  -1.228  0.00  0.00    +0.040 A 
ATOM     17  C   UNL     1      -0.066  -4.857  -1.226  0.00  0.00    +0.147 A 
ATOM     18  F   UNL     1      -0.047  -4.179  -2.394  0.00  0.00    -0.203 F 
ENDBRANCH   9  12
BRANCH  10  19
ATOM     19  S   UNL     1      -2.657  -2.897   0.013  0.00  0.00    -0.078 S 
BRANCH  19  20
ATOM     20  C   UNL     1      -3.801  -1.495   0.031  0.00  0.00    +0.173 C 
BRANCH  20  21
ATOM     21  C   UNL     1      -5.220  -2.005   0.042  0.00  0.00    +0.231 C 
ATOM     22  O   UNL     1      -5.435  -3.198   0.038  0.00  0.00    -0.274 OA
ATOM     23  N   UNL     1      -6.248  -1.134   0.056  0.00  0.00    -0.239 N 
ATOM     24  C   UNL     1      -7.517  -1.590   0.067  0.00  0.00    +0.306 C 
ATOM     25  O   UNL     1      -7.733  -2.786   0.063  0.00  0.00    -0.252 OA
ATOM     26  N   UNL     1      -8.546  -0.720   0.081  0.00  0.00    -0.296 N 
ATOM     27  H   UNL     1      -6.076  -0.180   0.059  0.00  0.00    +0.159 HD
ATOM     28  H   UNL     1      -8.373   0.235   0.084  0.00  0.00    +0.151 HD
BRANCH  26  29
ATOM     29  C   UNL     1      -9.924  -1.216   0.092  0.00  0.00    +0.074 C 
ATOM     30  C   UNL     1     -10.376  -1.499  -1.342  0.00  0.00    +0.022 C 
ATOM     31  C   UNL     1     -11.815  -2.017  -1.331  0.00  0.00    +0.002 C 
ATOM     32  C   UNL     1     -12.732  -0.962  -0.707  0.00  0.00    +0.000 C 
ATOM     33  C   UNL     1     -12.280  -0.678   0.727  0.00  0.00    +0.002 C 
ATOM     34  C   UNL     1     -10.840  -0.161   0.716  0.00  0.00    +0.022 C 
ENDBRANCH  26  29
ENDBRANCH  20  21
ENDBRANCH  19  20
ENDBRANCH  10  19
TORSDOF 5
