REMARK  Name = ZINC52012312
REMARK  5 active torsions:
REMARK  status: ('A' for Active; 'I' for Inactive)
REMARK    1  A    between atoms: C_4  and  O_24
REMARK    2  A    between atoms: C_6  and  N_9
REMARK    3  A    between atoms: C_16  and  C_19
REMARK    4  A    between atoms: C_19  and  C_20
REMARK    5  A    between atoms: C_20  and  C_21
REMARK                            x       y       z     vdW  Elec       q    Type
REMARK                         _______ _______ _______ _____ _____    ______ ____
ROOT
ATOM      1  N   UNL     1       0.760  -1.975   1.229  0.00  0.00    -0.294 N 
ATOM      2  C   UNL     1      -0.282  -2.667   1.733  0.00  0.00    +0.303 C 
ATOM      3  O   UNL     1      -1.197  -2.078   2.276  0.00  0.00    -0.253 OA
ATOM      4  N   UNL     1      -0.310  -4.011   1.635  0.00  0.00    -0.285 N 
ATOM      5  C   UNL     1       0.841  -4.745   1.091  0.00  0.00    +0.109 C 
ATOM      6  C   UNL     1       1.259  -5.822   2.097  0.00  0.00    +0.019 C 
ATOM      7  C   UNL     1       0.051  -6.701   2.429  0.00  0.00    +0.006 C 
ATOM      8  C   UNL     1      -1.046  -5.845   3.065  0.00  0.00    +0.007 C 
ATOM      9  C   UNL     1      -1.488  -4.769   2.075  0.00  0.00    +0.112 C 
ATOM     10  H   UNL     1       1.523  -2.448   0.861  0.00  0.00    +0.151 HD
ENDROOT
BRANCH   1  15
ATOM     11  C   UNL     1      -0.027   1.526   0.011  0.00  0.00    +0.002 C 
ATOM     12  C   UNL     1       1.408   2.056  -0.006  0.00  0.00    +0.003 C 
ATOM     13  C   UNL     1       2.154   1.549   1.230  0.00  0.00    +0.033 C 
ATOM     14  C   UNL     1       2.175   0.019   1.221  0.00  0.00    +0.135 C 
ATOM     15  C   UNL     1       0.740  -0.511   1.238  0.00  0.00    +0.103 C 
ATOM     16  C   UNL     1      -0.006  -0.004   0.002  0.00  0.00    +0.025 C 
BRANCH  14  17
ATOM     17  O   UNL     1       2.871  -0.454   2.376  0.00  0.00    -0.390 OA
ATOM     18  H   UNL     1       3.789  -0.157   2.431  0.00  0.00    +0.210 HD
ENDBRANCH  14  17
ENDBRANCH   1  15
BRANCH   8  19
ATOM     19  C   UNL     1      -2.240  -6.731   3.427  0.00  0.00    +0.016 C 
BRANCH  19  20
ATOM     20  C   UNL     1      -3.284  -5.900   4.175  0.00  0.00    +0.125 C 
BRANCH  20  21
ATOM     21  C   UNL     1      -4.460  -6.772   4.531  0.00  0.00    +0.356 C 
ATOM     22  O   UNL     1      -4.463  -7.950   4.216  0.00  0.00    -0.246 OA
ATOM     23  O   UNL     1      -5.409  -6.301   5.134  0.00  0.00    -0.246 OA
ENDBRANCH  20  21
ENDBRANCH  19  20
ENDBRANCH   8  19
TORSDOF 5
