REMARK  Name = ZINC60369342
REMARK  6 active torsions:
REMARK  status: ('A' for Active; 'I' for Inactive)
REMARK    1  A    between atoms: C_3  and  C_8
REMARK    2  A    between atoms: C_8  and  N_9
REMARK    3  A    between atoms: C_13  and  C_16
REMARK    4  A    between atoms: C_22  and  C_25
REMARK    5  A    between atoms: C_25  and  N_26
REMARK    6  A    between atoms: N_29  and  C_30
REMARK                            x       y       z     vdW  Elec       q    Type
REMARK                         _______ _______ _______ _____ _____    ______ ____
ROOT
ATOM      1  C   UNL     1       7.218   4.246   2.407  0.00  0.00    +0.217 C 
ATOM      2  O   UNL     1       7.865   4.359   1.388  0.00  0.00    -0.275 OA
ATOM      3  N   UNL     1       7.627   4.858   3.536  0.00  0.00    -0.301 N 
ATOM      4  C   UNL     1       6.923   4.635   4.806  0.00  0.00    +0.108 C 
ATOM      5  C   UNL     1       7.939   4.190   5.862  0.00  0.00    +0.019 C 
ATOM      6  C   UNL     1       9.069   5.220   5.943  0.00  0.00    +0.008 C 
ATOM      7  C   UNL     1       9.782   5.304   4.591  0.00  0.00    +0.024 C 
ATOM      8  C   UNL     1       8.790   5.756   3.522  0.00  0.00    +0.112 C 
ENDROOT
BRANCH   1  13
ATOM      9  N   UNL     1       4.054   2.708   1.043  0.00  0.00    +0.383 N 
ATOM     10  C   UNL     1       4.385   1.294   1.256  0.00  0.00    -0.078 C 
ATOM     11  C   UNL     1       5.026   1.118   2.635  0.00  0.00    -0.018 C 
ATOM     12  C   UNL     1       6.303   1.960   2.709  0.00  0.00    +0.009 C 
ATOM     13  C   UNL     1       5.957   3.422   2.412  0.00  0.00    +0.059 C 
ATOM     14  C   UNL     1       5.282   3.512   1.042  0.00  0.00    -0.066 C 
ATOM     15  H   UNL     1       3.447   3.024   1.784  0.00  0.00    -0.081 HD
BRANCH   9  16
ATOM     16  C   UNL     1       3.369   2.860  -0.247  0.00  0.00    -0.043 C 
BRANCH  16  19
ATOM     17  C   UNL     1      -0.302   2.132   0.257  0.00  0.00    +0.003 A 
ATOM     18  C   UNL     1       0.910   2.796   0.216  0.00  0.00    +0.002 A 
ATOM     19  C   UNL     1       2.048   2.134  -0.204  0.00  0.00    -0.061 A 
ATOM     20  C   UNL     1       1.976   0.807  -0.584  0.00  0.00    +0.040 A 
ATOM     21  C   UNL     1       0.763   0.141  -0.544  0.00  0.00    +0.124 A 
ATOM     22  C   UNL     1      -0.377   0.805  -0.122  0.00  0.00    +0.038 A 
ATOM     23  F   UNL     1       0.692  -1.155  -0.916  0.00  0.00    -0.205 F 
ENDBRANCH  16  19
ENDBRANCH   9  16
ENDBRANCH   1  13
BRANCH   7  24
ATOM     24  C   UNL     1      10.932   6.309   4.682  0.00  0.00    +0.110 C 
BRANCH  24  25
ATOM     25  N   UNL     1      11.941   5.813   5.622  0.00  0.00    -0.299 N 
ATOM     26  C   UNL     1      13.051   6.538   5.864  0.00  0.00    +0.304 C 
ATOM     27  O   UNL     1      13.216   7.603   5.301  0.00  0.00    -0.253 OA
ATOM     28  N   UNL     1      13.979   6.082   6.728  0.00  0.00    -0.269 N 
ATOM     29  H   UNL     1      11.809   4.963   6.071  0.00  0.00    +0.150 HD
ATOM     30  H   UNL     1      13.884   5.199   7.120  0.00  0.00    +0.156 HD
BRANCH  28  31
ATOM     31  C   UNL     1      15.078   6.881   7.061  0.00  0.00    +0.037 A 
ATOM     32  C   UNL     1      16.311   6.296   7.320  0.00  0.00    +0.023 A 
ATOM     33  C   UNL     1      17.395   7.087   7.649  0.00  0.00    +0.005 A 
ATOM     34  C   UNL     1      17.254   8.460   7.721  0.00  0.00    +0.038 A 
ATOM     35  C   UNL     1      16.027   9.048   7.463  0.00  0.00    +0.125 A 
ATOM     36  C   UNL     1      14.940   8.261   7.127  0.00  0.00    +0.061 A 
ATOM     37  F   UNL     1      15.893  10.390   7.534  0.00  0.00    -0.205 F 
ENDBRANCH  28  31
ENDBRANCH  24  25
ENDBRANCH   7  24
TORSDOF 6
