REMARK  Name = ZINC04190243
REMARK  9 active torsions:
REMARK  status: ('A' for Active; 'I' for Inactive)
REMARK    1  A    between atoms: C_1  and  C_2
REMARK    2  A    between atoms: C_2  and  C_3
REMARK    3  A    between atoms: C_3  and  C_5
REMARK    4  A    between atoms: C_3  and  N_6
REMARK    5  A    between atoms: C_7  and  C_9
REMARK    6  A    between atoms: C_11  and  N_25
REMARK    7  A    between atoms: C_14  and  N_15
REMARK    8  A    between atoms: N_28  and  C_29
REMARK    9  A    between atoms: C_34  and  C_35
REMARK                            x       y       z     vdW  Elec       q    Type
REMARK                         _______ _______ _______ _____ _____    ______ ____
ROOT
ATOM      1  C   UNL     1      -8.394  -0.774   0.157  0.00  0.00    +0.059 A 
ATOM      2  C   UNL     1      -7.204  -0.042   0.154  0.00  0.00    +0.038 A 
ATOM      3  C   UNL     1      -5.990  -0.699   0.239  0.00  0.00    +0.036 A 
ATOM      4  C   UNL     1      -5.951  -2.086   0.340  0.00  0.00    +0.025 A 
ATOM      5  C   UNL     1      -7.120  -2.818   0.351  0.00  0.00    +0.026 A 
ATOM      6  C   UNL     1      -8.347  -2.173   0.260  0.00  0.00    +0.042 A 
ENDROOT
BRANCH   6   7
ATOM      7  N   UNL     1      -9.526  -2.911   0.270  0.00  0.00    -0.325 N 
ATOM      8  C   UNL     1      -9.708  -3.597   1.559  0.00  0.00    +0.110 C 
ATOM      9  C   UNL     1     -11.156  -4.077   1.653  0.00  0.00    +0.054 C 
ATOM     10  C   UNL     1     -11.528  -4.836   0.405  0.00  0.00    -0.041 A 
ATOM     11  C   UNL     1     -12.655  -5.645   0.433  0.00  0.00    +0.004 A 
ATOM     12  C   UNL     1     -13.034  -6.353  -0.689  0.00  0.00    +0.000 A 
ATOM     13  C   UNL     1     -12.285  -6.257  -1.848  0.00  0.00    +0.000 A 
ATOM     14  C   UNL     1     -11.163  -5.455  -1.877  0.00  0.00    +0.005 A 
ATOM     15  C   UNL     1     -10.781  -4.742  -0.749  0.00  0.00    -0.027 A 
ATOM     16  C   UNL     1      -9.546  -3.883  -0.829  0.00  0.00    +0.140 C 
ENDBRANCH   6   7
BRANCH   3  17
ATOM     17  N   UNL     1      -4.796   0.035   0.229  0.00  0.00    -0.269 N 
ATOM     18  C   UNL     1      -4.695   1.149  -0.523  0.00  0.00    +0.308 C 
ATOM     19  O   UNL     1      -5.666   1.565  -1.126  0.00  0.00    -0.252 OA
ATOM     20  N   UNL     1      -3.519   1.801  -0.608  0.00  0.00    -0.269 N 
ATOM     21  H   UNL     1      -4.042  -0.259   0.764  0.00  0.00    +0.156 HD
ATOM     22  H   UNL     1      -2.728   1.432  -0.184  0.00  0.00    +0.156 HD
BRANCH  20  23
ATOM     23  C   UNL     1      -3.438   3.010  -1.308  0.00  0.00    +0.046 A 
ATOM     24  C   UNL     1      -4.219   3.213  -2.438  0.00  0.00    +0.024 A 
ATOM     25  C   UNL     1      -4.137   4.407  -3.127  0.00  0.00    +0.002 A 
ATOM     26  C   UNL     1      -3.278   5.400  -2.692  0.00  0.00    +0.001 A 
ATOM     27  C   UNL     1      -2.503   5.203  -1.565  0.00  0.00    +0.014 A 
ATOM     28  C   UNL     1      -2.576   4.008  -0.875  0.00  0.00    +0.076 A 
BRANCH  28  29
ATOM     29  C   UNL     1      -1.727   3.792   0.351  0.00  0.00    +0.419 C 
ATOM     30  F   UNL     1      -0.949   4.931   0.586  0.00  0.00    -0.166 F 
ATOM     31  F   UNL     1      -2.553   3.556   1.455  0.00  0.00    -0.166 F 
ATOM     32  F   UNL     1      -0.891   2.689   0.151  0.00  0.00    -0.166 F 
ENDBRANCH  28  29
ENDBRANCH  20  23
ENDBRANCH   3  17
BRANCH   1  34
ATOM     33  N   UNL     1      -9.731   1.251  -0.141  0.00  0.00    -0.309 N 
ATOM     34  C   UNL     1      -9.691  -0.081   0.060  0.00  0.00    +0.246 C 
ATOM     35  O   UNL     1     -10.726  -0.712   0.162  0.00  0.00    -0.270 OA
ATOM     36  H   UNL     1      -8.905   1.753  -0.222  0.00  0.00    +0.149 HD
BRANCH  33  37
ATOM     37  C   UNL     1     -11.020   1.939  -0.238  0.00  0.00    +0.070 C 
ATOM     38  C   UNL     1     -11.537   1.855  -1.675  0.00  0.00    +0.028 C 
BRANCH  37  40
ATOM     39  C   UNL     1     -10.448   3.496   1.630  0.00  0.00    +0.005 C 
ATOM     40  C   UNL     1     -10.845   3.408   0.155  0.00  0.00    +0.018 C 
ENDBRANCH  37  40
ENDBRANCH  33  37
ENDBRANCH   1  34
TORSDOF 7
