REMARK  Name = ZINC35271286
REMARK  18 active torsions:
REMARK  status: ('A' for Active; 'I' for Inactive)
REMARK    1  A    between atoms: C_1  and  C_2
REMARK    2  A    between atoms: C_3  and  C_4
REMARK    3  A    between atoms: C_3  and  C_5
REMARK    4  A    between atoms: C_5  and  O_7
REMARK    5  A    between atoms: O_7  and  C_8
REMARK    6  A    between atoms: C_10  and  O_43
REMARK    7  A    between atoms: C_12  and  C_42
REMARK    8  A    between atoms: C_15  and  O_23
REMARK    9  A    between atoms: C_17  and  O_19
REMARK   10  A    between atoms: O_19  and  C_20
REMARK   11  A    between atoms: C_20  and  C_22
REMARK   12  A    between atoms: O_23  and  C_24
REMARK   13  A    between atoms: C_24  and  C_41
REMARK   14  A    between atoms: C_27  and  O_40
REMARK   15  A    between atoms: C_29  and  C_39
REMARK   16  A    between atoms: C_33  and  C_36
REMARK   17  A    between atoms: C_36  and  C_37
REMARK   18  A    between atoms: C_36  and  C_38
REMARK                            x       y       z     vdW  Elec       q    Type
REMARK                         _______ _______ _______ _____ _____    ______ ____
ROOT
ATOM      1  C   UNL     1       3.173  -0.287   3.295  0.00  0.00    +0.253 C 
ATOM      2  C   UNL     1       1.920  -0.042   4.142  0.00  0.00    +0.187 C 
ATOM      3  C   UNL     1       1.460  -1.368   4.754  0.00  0.00    +0.151 C 
ATOM      4  O   UNL     1       2.521  -1.925   5.533  0.00  0.00    -0.342 OA
ATOM      5  C   UNL     1       3.702  -2.219   4.785  0.00  0.00    +0.296 C 
ATOM      6  C   UNL     1       4.254  -0.926   4.173  0.00  0.00    +0.275 C 
ATOM      7  C   UNL     1       0.244  -1.122   5.650  0.00  0.00    +0.041 C 
ENDROOT
BRANCH   2   8
ATOM      8  O   UNL     1       2.222   0.887   5.185  0.00  0.00    -0.385 OA
ATOM      9  H   UNL     1       1.473   1.089   5.761  0.00  0.00    +0.210 HD
ENDBRANCH   2   8
BRANCH   1  10
ATOM     10  O   UNL     1       2.855  -1.165   2.213  0.00  0.00    -0.451 OA
BRANCH  10  11
ATOM     11  C   UNL     1       2.443  -0.594   1.063  0.00  0.00    +0.335 C 
ATOM     12  O   UNL     1       2.358   0.616   0.982  0.00  0.00    -0.245 OA
BRANCH  11  15
ATOM     13  C   UNL     1       1.587   0.629  -1.328  0.00  0.00    +0.036 C 
ATOM     14  C   UNL     1       1.693  -0.871  -1.227  0.00  0.00    -0.020 C 
ATOM     15  C   UNL     1       2.099  -1.435  -0.092  0.00  0.00    +0.029 C 
ATOM     16  C   UNL     1       2.205  -2.934   0.009  0.00  0.00    +0.051 C 
ENDBRANCH  11  15
ENDBRANCH  10  11
ENDBRANCH   1  10
BRANCH   6  17
ATOM     17  O   UNL     1       4.618  -0.021   5.217  0.00  0.00    -0.453 OA
BRANCH  17  18
ATOM     18  C   UNL     1       5.879  -0.092   5.672  0.00  0.00    +0.304 C 
ATOM     19  O   UNL     1       6.648  -0.895   5.199  0.00  0.00    -0.251 OA
ATOM     20  C   UNL     1       6.336   0.831   6.772  0.00  0.00    +0.136 C 
ENDBRANCH  17  18
ENDBRANCH   6  17
BRANCH   5  21
ATOM     21  O   UNL     1       4.684  -2.793   5.650  0.00  0.00    -0.341 OA
BRANCH  21  22
ATOM     22  C   UNL     1       4.365  -4.112   6.097  0.00  0.00    +0.074 C 
ATOM     23  C   UNL     1       3.038  -4.082   6.856  0.00  0.00    +0.037 C 
ATOM     24  C   UNL     1       3.170  -3.138   8.053  0.00  0.00    +0.035 C 
ATOM     25  C   UNL     1       4.265  -3.661   8.982  0.00  0.00    +0.121 C 
ATOM     26  C   UNL     1       5.604  -3.711   8.240  0.00  0.00    +0.003 C 
ATOM     27  C   UNL     1       5.482  -4.622   7.012  0.00  0.00    +0.033 C 
ATOM     28  C   UNL     1       6.801  -4.566   6.232  0.00  0.00    +0.037 C 
ATOM     29  C   UNL     1       7.966  -4.775   7.151  0.00  0.00    -0.070 C 
ATOM     30  C   UNL     1       7.902  -4.657   8.438  0.00  0.00    -0.027 C 
ATOM     31  C   UNL     1       6.652  -4.309   9.187  0.00  0.00    +0.036 C 
ATOM     32  C   UNL     1       6.022  -2.301   7.821  0.00  0.00    +0.014 C 
ATOM     33  C   UNL     1       4.235  -5.040   4.888  0.00  0.00    +0.042 C 
BRANCH  29  34
ATOM     34  C   UNL     1       9.293  -5.145   6.540  0.00  0.00    +0.008 C 
ATOM     35  C   UNL     1       9.151  -6.461   5.773  0.00  0.00    +0.012 C 
ATOM     36  C   UNL     1       9.737  -4.040   5.579  0.00  0.00    +0.012 C 
ENDBRANCH  29  34
BRANCH  25  37
ATOM     37  O   UNL     1       4.384  -2.792  10.111  0.00  0.00    -0.391 OA
ATOM     38  H   UNL     1       3.575  -2.717  10.636  0.00  0.00    +0.210 HD
ENDBRANCH  25  37
ENDBRANCH  21  22
ENDBRANCH   5  21
TORSDOF 10
