REMARK  Name = ZINC12274462
REMARK  6 active torsions:
REMARK  status: ('A' for Active; 'I' for Inactive)
REMARK    1  A    between atoms: C_1  and  C_2
REMARK    2  A    between atoms: C_3  and  C_22
REMARK    3  A    between atoms: N_6  and  C_7
REMARK    4  A    between atoms: C_13  and  C_16
REMARK    5  A    between atoms: N_24  and  N_25
REMARK    6  A    between atoms: C_26  and  C_28
REMARK                            x       y       z     vdW  Elec       q    Type
REMARK                         _______ _______ _______ _____ _____    ______ ____
ROOT
ATOM      1  C   UNL     1       4.084   3.167  -0.665  0.00  0.00    +0.068 C 
ATOM      2  C   UNL     1       3.451   1.813  -0.471  0.00  0.00    +0.074 A 
ATOM      3  C   UNL     1       2.125   1.556  -0.262  0.00  0.00    +0.172 A 
ATOM      4  N   UNL     1       1.963   0.227  -0.142  0.00  0.00    -0.124 NA
ATOM      5  N   UNL     1       3.104  -0.359  -0.257  0.00  0.00    -0.060 NA
ATOM      6  N   UNL     1       4.085   0.621  -0.466  0.00  0.00    -0.216 N 
ENDROOT
BRANCH   6   7
ATOM      7  C   UNL     1       5.460   0.404  -0.641  0.00  0.00    +0.068 A 
ATOM      8  C   UNL     1       6.374   1.255  -0.003  0.00  0.00    +0.030 A 
ATOM      9  C   UNL     1       7.714   1.094  -0.134  0.00  0.00    +0.034 A 
ATOM     10  C   UNL     1       8.215   0.045  -0.934  0.00  0.00    +0.114 A 
ATOM     11  C   UNL     1       7.248  -0.849  -1.605  0.00  0.00    +0.051 A 
ATOM     12  C   UNL     1       5.877  -0.634  -1.424  0.00  0.00    +0.041 A 
ATOM     13  C   UNL     1       8.069  -1.743  -2.290  0.00  0.00    +0.175 A 
ATOM     14  O   UNL     1       9.329  -1.367  -2.014  0.00  0.00    -0.353 OA
ATOM     15  N   UNL     1       9.398  -0.404  -1.284  0.00  0.00    -0.078 NA
BRANCH  13  16
ATOM     16  C   UNL     1       7.643  -2.868  -3.140  0.00  0.00    +0.021 A 
ATOM     17  C   UNL     1       8.249  -4.121  -3.004  0.00  0.00    +0.011 A 
ATOM     18  C   UNL     1       7.840  -5.170  -3.799  0.00  0.00    +0.001 A 
ATOM     19  C   UNL     1       6.841  -4.983  -4.739  0.00  0.00    +0.000 A 
ATOM     20  C   UNL     1       6.241  -3.745  -4.883  0.00  0.00    +0.001 A 
ATOM     21  C   UNL     1       6.634  -2.687  -4.091  0.00  0.00    +0.011 A 
ENDBRANCH  13  16
ENDBRANCH   6   7
BRANCH   3  22
ATOM     22  C   UNL     1       1.052   2.565  -0.188  0.00  0.00    +0.282 C 
ATOM     23  O   UNL     1       1.318   3.745  -0.313  0.00  0.00    -0.267 OA
ATOM     24  N   UNL     1      -0.223   2.179   0.017  0.00  0.00    -0.229 N 
ATOM     25  H   UNL     1      -0.435   1.238   0.116  0.00  0.00    +0.173 HD
BRANCH  24  26
ATOM     26  N   UNL     1      -1.243   3.138   0.081  0.00  0.00    -0.230 N 
ATOM     27  C   UNL     1      -2.519   2.752   0.281  0.00  0.00    +0.261 C 
ATOM     28  O   UNL     1      -2.784   1.571   0.405  0.00  0.00    -0.269 OA
ATOM     29  H   UNL     1      -1.031   4.079  -0.018  0.00  0.00    +0.173 HD
BRANCH  27  30
ATOM     30  C   UNL     1      -3.590   3.758   0.349  0.00  0.00    +0.049 A 
ATOM     31  C   UNL     1      -3.314   5.101   0.210  0.00  0.00    +0.058 A 
ATOM     32  S   UNL     1      -4.873   5.843   0.362  0.00  0.00    -0.101 S 
ATOM     33  C   UNL     1      -5.856   4.391   0.603  0.00  0.00    -0.006 A 
ATOM     34  C   UNL     1      -4.972   3.369   0.557  0.00  0.00    -0.025 A 
ATOM     35  C   UNL     1      -5.431   1.927   0.735  0.00  0.00    +0.037 C 
ATOM     36  C   UNL     1      -6.817   1.927   1.382  0.00  0.00    +0.005 C 
ATOM     37  C   UNL     1      -7.762   2.837   0.592  0.00  0.00    +0.005 C 
ATOM     38  C   UNL     1      -7.336   4.297   0.807  0.00  0.00    +0.043 C 
ENDBRANCH  27  30
ENDBRANCH  24  26
ENDBRANCH   3  22
TORSDOF 5
