REMARK  Name = ZINC39974389
REMARK  13 active torsions:
REMARK  status: ('A' for Active; 'I' for Inactive)
REMARK    1  A    between atoms: C_1  and  C_2
REMARK    2  A    between atoms: C_6  and  C_8
REMARK    3  A    between atoms: C_8  and  N_9
REMARK    4  A    between atoms: C_10  and  C_38
REMARK    5  A    between atoms: C_11  and  N_15
REMARK    6  A    between atoms: C_12  and  C_14
REMARK    7  A    between atoms: N_15  and  C_16
REMARK    8  A    between atoms: C_16  and  N_18
REMARK    9  A    between atoms: N_18  and  C_19
REMARK   10  A    between atoms: C_22  and  S_25
REMARK   11  A    between atoms: S_25  and  N_28
REMARK   12  A    between atoms: C_29  and  C_37
REMARK   13  A    between atoms: C_34  and  C_36
REMARK                            x       y       z     vdW  Elec       q    Type
REMARK                         _______ _______ _______ _____ _____    ______ ____
ROOT
ATOM      1  C   UNL     1       6.196  -3.803   1.809  0.00  0.00    +0.139 C 
ATOM      2  S   UNL     1       6.623  -2.273   2.447  0.00  0.00    -0.018 S 
ENDROOT
BRANCH   1   3
ATOM      3  N   UNL     1       4.991  -3.980   1.232  0.00  0.00    -0.294 N 
ATOM      4  H   UNL     1       4.714  -4.865   0.947  0.00  0.00    +0.154 HD
BRANCH   3   7
ATOM      5  N   UNL     1       2.817  -1.395   0.112  0.00  0.00    -0.262 N 
ATOM      6  C   UNL     1       3.574  -2.495  -0.134  0.00  0.00    +0.058 A 
ATOM      7  C   UNL     1       4.133  -2.880   1.042  0.00  0.00    +0.076 A 
ATOM      8  C   UNL     1       3.703  -1.987   2.034  0.00  0.00    +0.081 A 
ATOM      9  N   UNL     1       2.922  -1.097   1.477  0.00  0.00    -0.174 NA
ATOM     10  C   UNL     1       4.081  -2.039   3.492  0.00  0.00    +0.069 C 
ATOM     11  C   UNL     1       3.760  -3.168  -1.470  0.00  0.00    +0.067 C 
BRANCH   5  12
ATOM     12  C   UNL     1       2.034  -0.648  -0.876  0.00  0.00    +0.179 C 
BRANCH  12  18
ATOM     13  C   UNL     1       3.753   4.052  -0.829  0.00  0.00    +0.044 C 
ATOM     14  C   UNL     1       3.713   2.684  -1.458  0.00  0.00    -0.050 A 
ATOM     15  C   UNL     1       4.462   2.421  -2.590  0.00  0.00    +0.003 A 
ATOM     16  C   UNL     1       4.425   1.166  -3.168  0.00  0.00    +0.001 A 
ATOM     17  C   UNL     1       3.639   0.173  -2.613  0.00  0.00    +0.005 A 
ATOM     18  C   UNL     1       2.891   0.435  -1.480  0.00  0.00    -0.026 A 
ATOM     19  C   UNL     1       2.931   1.689  -0.900  0.00  0.00    +0.008 A 
ENDBRANCH  12  18
ENDBRANCH   5  12
ENDBRANCH   3   7
ENDBRANCH   1   3
BRANCH   1  20
ATOM     20  N   UNL     1       7.064  -4.830   1.883  0.00  0.00    -0.297 N 
ATOM     21  H   UNL     1       6.794  -5.716   1.595  0.00  0.00    +0.154 HD
BRANCH  20  22
ATOM     22  C   UNL     1       8.357  -4.619   2.376  0.00  0.00    +0.033 A 
ATOM     23  C   UNL     1       8.959  -5.577   3.182  0.00  0.00    +0.025 A 
ATOM     24  C   UNL     1      10.235  -5.366   3.666  0.00  0.00    +0.030 A 
ATOM     25  C   UNL     1      10.913  -4.202   3.350  0.00  0.00    +0.106 A 
ATOM     26  C   UNL     1      10.316  -3.247   2.548  0.00  0.00    +0.030 A 
ATOM     27  C   UNL     1       9.042  -3.455   2.056  0.00  0.00    +0.025 A 
BRANCH  25  28
ATOM     28  S   UNL     1      12.541  -3.937   3.970  0.00  0.00    +0.061 S 
ATOM     29  O   UNL     1      12.792  -2.542   3.866  0.00  0.00    -0.153 OA
ATOM     30  O   UNL     1      12.624  -4.636   5.204  0.00  0.00    -0.153 OA
BRANCH  28  31
ATOM     31  N   UNL     1      13.589  -4.686   2.929  0.00  0.00    -0.171 NA
ATOM     32  C   UNL     1      14.020  -4.020   1.692  0.00  0.00    +0.077 C 
ATOM     33  C   UNL     1      15.551  -4.007   1.647  0.00  0.00    +0.020 C 
ATOM     34  C   UNL     1      16.075  -5.436   1.807  0.00  0.00    +0.003 C 
ATOM     35  C   UNL     1      15.636  -5.993   3.163  0.00  0.00    +0.020 C 
ATOM     36  C   UNL     1      14.111  -6.027   3.229  0.00  0.00    +0.077 C 
ATOM     37  C   UNL     1      13.579  -7.026   2.199  0.00  0.00    +0.026 C 
ATOM     38  C   UNL     1      13.490  -2.585   1.671  0.00  0.00    +0.026 C 
ENDBRANCH  28  31
ENDBRANCH  25  28
ENDBRANCH  20  22
ENDBRANCH   1  20
TORSDOF 8
