REMARK  Name = ZINC41629223
REMARK  3 active torsions:
REMARK  status: ('A' for Active; 'I' for Inactive)
REMARK    1  A    between atoms: C_1  and  C_2
REMARK    2  A    between atoms: C_4  and  C_13
REMARK    3  A    between atoms: C_14  and  C_19
REMARK                            x       y       z     vdW  Elec       q    Type
REMARK                         _______ _______ _______ _____ _____    ______ ____
ROOT
ATOM      1  C   UNL     1      -0.018   1.503   0.010  0.00  0.00    +0.046 C 
ATOM      2  C   UNL     1       0.002  -0.004   0.002  0.00  0.00    -0.028 A 
ATOM      3  C   UNL     1       0.006  -0.686  -1.196  0.00  0.00    +0.015 A 
ATOM      4  C   UNL     1       0.025  -2.080  -1.204  0.00  0.00    +0.002 A 
ATOM      5  C   UNL     1       0.040  -2.781   0.002  0.00  0.00    +0.015 A 
ATOM      6  C   UNL     1       0.036  -2.095   1.197  0.00  0.00    -0.025 A 
ATOM      7  C   UNL     1       0.023  -0.705   1.202  0.00  0.00    +0.040 A 
ATOM      8  N   UNL     1       0.025  -0.012   2.417  0.00  0.00    -0.285 N 
ATOM      9  C   UNL     1       0.414  -0.624   3.550  0.00  0.00    +0.218 C 
ATOM     10  O   UNL     1       0.397  -0.013   4.598  0.00  0.00    -0.275 OA
ATOM     11  C   UNL     1       0.870  -2.058   3.534  0.00  0.00    +0.101 C 
ATOM     12  C   UNL     1       0.052  -2.849   2.501  0.00  0.00    +0.046 C 
ATOM     13  H   UNL     1      -0.255   0.916   2.443  0.00  0.00    +0.155 HD
ENDROOT
BRANCH   4  14
ATOM     14  C   UNL     1       0.028  -2.816  -2.491  0.00  0.00    +0.083 A 
ATOM     15  C   UNL     1      -0.656  -2.327  -3.568  0.00  0.00    +0.016 A 
ATOM     16  S   UNL     1      -0.303  -3.586  -4.788  0.00  0.00    -0.057 S 
ATOM     17  C   UNL     1       0.712  -4.628  -3.749  0.00  0.00    +0.156 A 
ATOM     18  N   UNL     1       0.702  -3.958  -2.612  0.00  0.00    -0.225 NA
ATOM     19  N   UNL     1       1.345  -5.821  -4.058  0.00  0.00    -0.338 N 
ATOM     20  C   UNL     1      -1.481  -1.073  -3.693  0.00  0.00    +0.054 C 
ATOM     21  H   UNL     1       1.264  -6.197  -4.949  0.00  0.00    +0.144 HD
ATOM     22  H   UNL     1       1.869  -6.281  -3.383  0.00  0.00    +0.144 HD
ENDBRANCH   4  14
TORSDOF 1
