REMARK  Name = ZINC09576567
REMARK  7 active torsions:
REMARK  status: ('A' for Active; 'I' for Inactive)
REMARK    1  A    between atoms: C_1  and  C_2
REMARK    2  A    between atoms: C_5  and  N_9
REMARK    3  A    between atoms: C_10  and  C_12
REMARK    4  A    between atoms: C_13  and  C_25
REMARK    5  A    between atoms: C_18  and  C_23
REMARK    6  A    between atoms: C_18  and  C_24
REMARK    7  A    between atoms: C_20  and  O_22
REMARK                            x       y       z     vdW  Elec       q    Type
REMARK                         _______ _______ _______ _____ _____    ______ ____
ROOT
ATOM      1  C   UNL     1      -0.407  -3.004   0.660  0.00  0.00    +0.193 A 
ATOM      2  C   UNL     1      -1.216  -1.943   0.357  0.00  0.00    +0.006 A 
ATOM      3  C   UNL     1      -0.387  -0.949  -0.166  0.00  0.00    +0.025 A 
ATOM      4  C   UNL     1       0.879  -1.433  -0.166  0.00  0.00    +0.112 A 
ATOM      5  O   UNL     1       0.861  -2.671   0.334  0.00  0.00    -0.454 OA
ATOM      6  C   UNL     1       2.075  -0.658  -0.663  0.00  0.00    +0.081 C 
ATOM      7  C   UNL     1       1.573   0.514  -1.515  0.00  0.00    -0.025 C 
ATOM      8  C   UNL     1       0.494   1.281  -0.745  0.00  0.00    +0.043 C 
ATOM      9  C   UNL     1      -0.775   0.423  -0.655  0.00  0.00    +0.149 C 
ATOM     10  C   UNL     1       2.740   1.453  -1.828  0.00  0.00    +0.011 C 
ATOM     11  C   UNL     1       0.984  -0.021  -2.821  0.00  0.00    +0.011 C 
ATOM     12  C   UNL     1      -2.708  -1.863   0.551  0.00  0.00    +0.048 C 
ENDROOT
BRANCH   1  14
ATOM     13  N   UNL     1       0.063  -5.249   1.487  0.00  0.00    -0.278 N 
ATOM     14  C   UNL     1      -0.841  -4.281   1.236  0.00  0.00    +0.284 C 
ATOM     15  O   UNL     1      -2.017  -4.466   1.489  0.00  0.00    -0.266 OA
ATOM     16  H   UNL     1       1.009  -5.073   1.364  0.00  0.00    +0.155 HD
BRANCH  13  21
ATOM     17  C   UNL     1      -1.667 -10.353   3.259  0.00  0.00    +0.044 C 
ATOM     18  C   UNL     1      -1.207  -8.997   2.789  0.00  0.00    -0.049 A 
ATOM     19  C   UNL     1      -2.104  -8.137   2.182  0.00  0.00    +0.005 A 
ATOM     20  C   UNL     1      -1.686  -6.894   1.749  0.00  0.00    +0.025 A 
ATOM     21  C   UNL     1      -0.364  -6.507   1.924  0.00  0.00    +0.048 A 
ATOM     22  C   UNL     1       0.536  -7.375   2.530  0.00  0.00    +0.039 A 
ATOM     23  C   UNL     1       0.110  -8.616   2.966  0.00  0.00    +0.020 A 
ATOM     24 BR   UNL     1       2.340  -6.858   2.764  0.00  0.00    -0.048 Br
ENDBRANCH  13  21
ENDBRANCH   1  14
BRANCH   9  25
ATOM     25  O   UNL     1      -1.694   1.019   0.263  0.00  0.00    -0.387 OA
ATOM     26  H   UNL     1      -2.574   0.618   0.255  0.00  0.00    +0.210 HD
ENDBRANCH   9  25
TORSDOF 3
