REMARK  Name = ZINC33008275
REMARK  7 active torsions:
REMARK  status: ('A' for Active; 'I' for Inactive)
REMARK    1  A    between atoms: C_1  and  C_2
REMARK    2  A    between atoms: C_2  and  C_3
REMARK    3  A    between atoms: C_9  and  C_27
REMARK    4  A    between atoms: C_11  and  N_15
REMARK    5  A    between atoms: N_18  and  C_19
REMARK    6  A    between atoms: C_21  and  C_26
REMARK    7  A    between atoms: C_23  and  C_25
REMARK                            x       y       z     vdW  Elec       q    Type
REMARK                         _______ _______ _______ _____ _____    ______ ____
ROOT
ATOM      1  C   UNL     1       1.157   1.684  -0.065  0.00  0.00    +0.218 C 
ATOM      2  O   UNL     1       1.135   2.897  -0.063  0.00  0.00    -0.275 OA
ATOM      3  N   UNL     1       0.002   0.990  -0.042  0.00  0.00    -0.265 N 
ATOM      4  C   UNL     1      -1.210   1.662  -0.023  0.00  0.00    +0.165 A 
ATOM      5  N   UNL     1      -2.425   1.167  -0.010  0.00  0.00    -0.224 NA
ATOM      6  C   UNL     1      -3.528   1.948   0.012  0.00  0.00    +0.083 A 
ATOM      7  C   UNL     1      -4.883   1.544   0.031  0.00  0.00    -0.022 A 
ATOM      8  C   UNL     1      -5.886   2.461   0.046  0.00  0.00    +0.028 A 
ATOM      9  C   UNL     1      -5.624   3.829   0.043  0.00  0.00    +0.036 A 
ATOM     10  C   UNL     1      -4.305   4.265   0.025  0.00  0.00    +0.040 A 
ATOM     11  C   UNL     1      -3.291   3.341   0.009  0.00  0.00    +0.043 A 
ATOM     12  S   UNL     1      -1.516   3.423  -0.017  0.00  0.00    -0.052 S 
ATOM     13  C   UNL     1      -5.220   0.075   0.035  0.00  0.00    +0.046 C 
ATOM     14  H   UNL     1       0.021  -0.110  -0.039  0.00  0.00    +0.157 HD
ENDROOT
BRANCH   9  15
ATOM     15  N   UNL     1      -6.676   4.754   0.060  0.00  0.00    -0.269 N 
ATOM     16  C   UNL     1      -6.542   5.916   0.729  0.00  0.00    +0.308 C 
ATOM     17  O   UNL     1      -5.479   6.200   1.246  0.00  0.00    -0.252 OA
ATOM     18  N   UNL     1      -7.586   6.763   0.824  0.00  0.00    -0.269 N 
ATOM     19  H   UNL     1      -7.612   4.531  -0.473  0.00  0.00    +0.156 HD
ATOM     20  H   UNL     1      -8.568   6.474   0.421  0.00  0.00    +0.156 HD
BRANCH  18  21
ATOM     21  C   UNL     1      -7.421   8.012   1.433  0.00  0.00    +0.035 A 
ATOM     22  C   UNL     1      -8.112   9.117   0.955  0.00  0.00    +0.026 A 
ATOM     23  C   UNL     1      -7.951  10.347   1.563  0.00  0.00    -0.048 A 
ATOM     24  C   UNL     1      -7.094  10.480   2.640  0.00  0.00    +0.006 A 
ATOM     25  C   UNL     1      -6.399   9.383   3.115  0.00  0.00    -0.048 A 
ATOM     26  C   UNL     1      -6.560   8.149   2.515  0.00  0.00    +0.026 A 
ATOM     27  C   UNL     1      -5.466   9.533   4.288  0.00  0.00    +0.044 C 
ATOM     28  C   UNL     1      -8.706  11.545   1.049  0.00  0.00    +0.044 C 
ENDBRANCH  18  21
ENDBRANCH   9  15
BRANCH   1  30
ATOM     29  C   UNL     1       3.619   1.969  -0.114  0.00  0.00    +0.013 C 
ATOM     30  C   UNL     1       2.474   0.954  -0.092  0.00  0.00    +0.093 C 
ENDBRANCH   1  30
TORSDOF 3
