REMARK  Name = ZINC40177531
REMARK  6 active torsions:
REMARK  status: ('A' for Active; 'I' for Inactive)
REMARK    1  A    between atoms: C_3  and  O_16
REMARK    2  A    between atoms: C_6  and  N_7
REMARK    3  A    between atoms: N_7  and  C_8
REMARK    4  A    between atoms: O_16  and  C_17
REMARK    5  A    between atoms: C_20  and  N_23
REMARK    6  A    between atoms: N_23  and  C_24
REMARK                            x       y       z     vdW  Elec       q    Type
REMARK                         _______ _______ _______ _____ _____    ______ ____
ROOT
ATOM      1  O   UNL     1       3.549   2.110  -0.021  0.00  0.00    -0.456 OA
ENDROOT
BRANCH   1   4
ATOM      2  C   UNL     1       1.244  -0.510   1.008  0.00  0.00    +0.026 A 
ATOM      3  C   UNL     1       2.419   0.141   0.692  0.00  0.00    +0.048 A 
ATOM      4  C   UNL     1       2.390   1.469   0.290  0.00  0.00    +0.129 A 
ATOM      5  C   UNL     1       1.181   2.142   0.205  0.00  0.00    +0.048 A 
ATOM      6  C   UNL     1       0.004   1.492   0.521  0.00  0.00    +0.026 A 
ATOM      7  C   UNL     1       0.032   0.163   0.923  0.00  0.00    +0.028 A 
BRANCH   7   8
ATOM      8  N   UNL     1      -1.159  -0.496   1.244  0.00  0.00    -0.339 N 
ATOM      9  H   UNL     1      -1.140  -1.425   1.525  0.00  0.00    +0.146 HD
BRANCH   8  10
ATOM     10  C   UNL     1      -2.437   0.214   1.154  0.00  0.00    +0.093 C 
ATOM     11  C   UNL     1      -2.965   0.136  -0.288  0.00  0.00    +0.046 C 
ATOM     12  C   UNL     1      -4.445   0.614  -0.289  0.00  0.00    +0.168 C 
ATOM     13  S   UNL     1      -5.057  -0.180   1.257  0.00  0.00    -0.029 S 
ATOM     14  O   UNL     1      -5.614  -1.448   0.936  0.00  0.00    -0.174 OA
ATOM     15  O   UNL     1      -5.834   0.761   1.984  0.00  0.00    -0.174 OA
ATOM     16  C   UNL     1      -3.455  -0.434   2.123  0.00  0.00    +0.188 C 
ENDBRANCH   8  10
ENDBRANCH   7   8
ENDBRANCH   1   4
BRANCH   1  17
ATOM     17  C   UNL     1       4.710   1.409   0.068  0.00  0.00    +0.129 A 
ATOM     18  C   UNL     1       5.184   0.710  -1.032  0.00  0.00    +0.048 A 
ATOM     19  C   UNL     1       6.364  -0.002  -0.943  0.00  0.00    +0.026 A 
ATOM     20  C   UNL     1       7.076  -0.018   0.250  0.00  0.00    +0.028 A 
ATOM     21  C   UNL     1       6.601   0.682   1.351  0.00  0.00    +0.026 A 
ATOM     22  C   UNL     1       5.423   1.397   1.258  0.00  0.00    +0.048 A 
BRANCH  20  23
ATOM     23  N   UNL     1       8.272  -0.740   0.342  0.00  0.00    -0.339 N 
ATOM     24  H   UNL     1       8.603  -1.229  -0.428  0.00  0.00    +0.146 HD
BRANCH  23  25
ATOM     25  C   UNL     1       9.022  -0.756   1.599  0.00  0.00    +0.093 C 
ATOM     26  C   UNL     1       8.467  -1.864   2.511  0.00  0.00    +0.046 C 
ATOM     27  C   UNL     1       9.465  -2.069   3.686  0.00  0.00    +0.168 C 
ATOM     28  S   UNL     1      11.071  -1.944   2.792  0.00  0.00    -0.029 S 
ATOM     29  O   UNL     1      11.484  -3.246   2.400  0.00  0.00    -0.174 OA
ATOM     30  O   UNL     1      11.956  -1.126   3.544  0.00  0.00    -0.174 OA
ATOM     31  C   UNL     1      10.518  -1.020   1.302  0.00  0.00    +0.188 C 
ENDBRANCH  23  25
ENDBRANCH  20  23
ENDBRANCH   1  17
TORSDOF 6
