REMARK  Name = ZINC35399281
REMARK  6 active torsions:
REMARK  status: ('A' for Active; 'I' for Inactive)
REMARK    1  A    between atoms: C_1  and  C_2
REMARK    2  A    between atoms: C_2  and  C_3
REMARK    3  A    between atoms: N_5  and  C_6
REMARK    4  A    between atoms: C_9  and  S_12
REMARK    5  A    between atoms: S_12  and  N_15
REMARK    6  A    between atoms: C_29  and  C_33
REMARK                            x       y       z     vdW  Elec       q    Type
REMARK                         _______ _______ _______ _____ _____    ______ ____
ROOT
ATOM      1  N   UNL     1       5.555  -3.662  -5.713  0.00  0.00    -0.176 NA
ATOM      2  C   UNL     1       6.482  -2.524  -5.774  0.00  0.00    +0.112 C 
ATOM      3  C   UNL     1       7.725  -2.942  -6.566  0.00  0.00    +0.049 C 
ATOM      4  C   UNL     1       8.317  -4.209  -5.951  0.00  0.00    +0.075 C 
ATOM      5  C   UNL     1       7.297  -5.345  -6.012  0.00  0.00    +0.049 C 
ATOM      6  C   UNL     1       6.049  -4.950  -5.207  0.00  0.00    +0.112 C 
ATOM      7  C   UNL     1       9.566  -4.605  -6.698  0.00  0.00    +0.047 A 
ATOM      8  C   UNL     1       9.697  -5.324  -7.818  0.00  0.00    +0.025 A 
ATOM      9  C   UNL     1      11.075  -5.390  -8.118  0.00  0.00    +0.020 A 
ATOM     10  C   UNL     1      11.735  -4.708  -7.155  0.00  0.00    +0.092 A 
ATOM     11  N   UNL     1      10.823  -4.236  -6.272  0.00  0.00    -0.316 N 
ATOM     12  C   UNL     1      11.007  -3.507  -5.087  0.00  0.00    +0.067 A 
ATOM     13  C   UNL     1      12.231  -2.961  -4.753  0.00  0.00    +0.028 A 
ATOM     14  C   UNL     1      12.361  -2.231  -3.584  0.00  0.00    +0.005 A 
ATOM     15  C   UNL     1      11.270  -2.048  -2.755  0.00  0.00    -0.049 A 
ATOM     16  C   UNL     1      10.045  -2.600  -3.078  0.00  0.00    +0.028 A 
ATOM     17  C   UNL     1       9.906  -3.342  -4.241  0.00  0.00    +0.052 A 
ATOM     18  N   UNL     1       8.684  -3.952  -4.551  0.00  0.00    -0.331 N 
ATOM     19  C   UNL     1      11.418  -1.243  -1.490  0.00  0.00    +0.044 C 
ATOM     20  H   UNL     1       8.077  -4.207  -3.838  0.00  0.00    +0.147 HD
ENDROOT
BRANCH   1  21
ATOM     21  S   UNL     1       3.981  -3.495  -6.201  0.00  0.00    +0.061 S 
ATOM     22  O   UNL     1       3.524  -4.795  -6.550  0.00  0.00    -0.153 OA
ATOM     23  O   UNL     1       3.953  -2.407  -7.114  0.00  0.00    -0.153 OA
BRANCH  21  27
ATOM     24  C   UNL     1       1.587  -2.209  -2.579  0.00  0.00    +0.033 A 
ATOM     25  C   UNL     1       2.161  -1.255  -3.408  0.00  0.00    +0.025 A 
ATOM     26  C   UNL     1       2.891  -1.650  -4.511  0.00  0.00    +0.030 A 
ATOM     27  C   UNL     1       3.050  -2.995  -4.792  0.00  0.00    +0.106 A 
ATOM     28  C   UNL     1       2.478  -3.948  -3.969  0.00  0.00    +0.030 A 
ATOM     29  C   UNL     1       1.753  -3.559  -2.860  0.00  0.00    +0.025 A 
BRANCH  24  32
ATOM     30  C   UNL     1       0.888  -2.545  -0.330  0.00  0.00    +0.217 C 
ATOM     31  O   UNL     1       1.498  -3.593  -0.308  0.00  0.00    -0.275 OA
ATOM     32  N   UNL     1       0.847  -1.812  -1.460  0.00  0.00    -0.286 N 
ATOM     33  H   UNL     1       0.304  -1.009  -1.497  0.00  0.00    +0.155 HD
BRANCH  30  35
ATOM     34  C   UNL     1       0.379  -3.073   2.039  0.00  0.00    +0.013 C 
ATOM     35  C   UNL     1       0.175  -2.063   0.908  0.00  0.00    +0.093 C 
ENDBRANCH  30  35
ENDBRANCH  24  32
ENDBRANCH  21  27
ENDBRANCH   1  21
TORSDOF 4
