REMARK  Name = ZINC64948721
REMARK  5 active torsions:
REMARK  status: ('A' for Active; 'I' for Inactive)
REMARK    1  A    between atoms: C_6  and  C_7
REMARK    2  A    between atoms: C_10  and  C_12
REMARK    3  A    between atoms: C_13  and  N_28
REMARK    4  A    between atoms: N_14  and  C_17
REMARK    5  A    between atoms: C_19  and  C_24
REMARK                            x       y       z     vdW  Elec       q    Type
REMARK                         _______ _______ _______ _____ _____    ______ ____
ROOT
ATOM      1  C   UNL     1      -2.586  -4.242   0.184  0.00  0.00    +0.159 A 
ATOM      2  C   UNL     1      -3.799  -4.908   0.174  0.00  0.00    +0.150 A 
ATOM      3  N   UNL     1      -3.511  -6.231   0.334  0.00  0.00    -0.197 N 
ATOM      4  N   UNL     1      -2.116  -6.329   0.437  0.00  0.00    -0.058 NA
ATOM      5  N   UNL     1      -1.609  -5.150   0.340  0.00  0.00    -0.125 NA
ENDROOT
BRANCH   3   6
ATOM      6  C   UNL     1      -4.431  -7.289   0.385  0.00  0.00    +0.088 A 
ATOM      7  C   UNL     1      -5.430  -7.389  -0.574  0.00  0.00    +0.041 A 
ATOM      8  C   UNL     1      -6.334  -8.431  -0.521  0.00  0.00    +0.057 A 
ATOM      9  C   UNL     1      -6.246  -9.375   0.486  0.00  0.00    +0.014 A 
ATOM     10  C   UNL     1      -5.253  -9.279   1.443  0.00  0.00    +0.022 A 
ATOM     11  C   UNL     1      -4.340  -8.242   1.391  0.00  0.00    +0.066 A 
ATOM     12 CL   UNL     1      -3.088  -8.126   2.589  0.00  0.00    -0.081 Cl
BRANCH   8  13
ATOM     13  C   UNL     1      -7.419  -8.540  -1.561  0.00  0.00    +0.417 C 
ATOM     14  F   UNL     1      -6.957  -9.304  -2.639  0.00  0.00    -0.166 F 
ATOM     15  F   UNL     1      -8.543  -9.156  -1.001  0.00  0.00    -0.166 F 
ATOM     16  F   UNL     1      -7.764  -7.261  -2.011  0.00  0.00    -0.166 F 
ENDBRANCH   8  13
ENDBRANCH   3   6
BRANCH   1  20
ATOM     17  C   UNL     1      -1.291  -0.767  -0.102  0.00  0.00    +0.079 A 
ATOM     18  C   UNL     1      -2.489  -0.120  -0.244  0.00  0.00    +0.075 A 
ATOM     19  S   UNL     1      -3.623  -1.501  -0.168  0.00  0.00    -0.073 S 
ATOM     20  C   UNL     1      -2.397  -2.785   0.043  0.00  0.00    +0.132 A 
ATOM     21  N   UNL     1      -1.274  -2.082   0.032  0.00  0.00    -0.237 NA
BRANCH  17  27
ATOM     22  C   UNL     1      -0.048   1.394  -0.142  0.00  0.00    +0.014 A 
ATOM     23  C   UNL     1       1.133   2.107  -0.145  0.00  0.00    +0.050 A 
ATOM     24  C   UNL     1       2.349   1.443  -0.111  0.00  0.00    +0.166 A 
ATOM     25  C   UNL     1       2.382   0.049  -0.074  0.00  0.00    +0.167 A 
ATOM     26  C   UNL     1       1.200  -0.669  -0.071  0.00  0.00    +0.059 A 
ATOM     27  C   UNL     1      -0.022   0.001  -0.105  0.00  0.00    +0.005 A 
ATOM     28  O   UNL     1       3.685  -0.356  -0.045  0.00  0.00    -0.453 OA
ATOM     29  C   UNL     1       4.451   0.784  -0.478  0.00  0.00    +0.466 C 
ATOM     30  O   UNL     1       3.633   1.908  -0.106  0.00  0.00    -0.453 OA
ENDBRANCH  17  27
ENDBRANCH   1  20
BRANCH   2  31
ATOM     31  N   UNL     1      -5.057  -4.342   0.030  0.00  0.00    -0.341 N 
ATOM     32  H   UNL     1      -5.155  -3.377   0.003  0.00  0.00    +0.144 HD
ATOM     33  H   UNL     1      -5.839  -4.911  -0.042  0.00  0.00    +0.144 HD
ENDBRANCH   2  31
TORSDOF 5
