REMARK  Name = ZINC05353953
REMARK  3 active torsions:
REMARK  status: ('A' for Active; 'I' for Inactive)
REMARK    1  A    between atoms: C_10  and  C_11
REMARK    2  A    between atoms: C_12  and  N_14
REMARK    3  A    between atoms: N_14  and  C_15
REMARK                            x       y       z     vdW  Elec       q    Type
REMARK                         _______ _______ _______ _____ _____    ______ ____
ROOT
ATOM      1  C   UNL     1       0.335   1.243   1.440  0.00  0.00    +0.054 A 
ATOM      2  C   UNL     1       1.297   1.917   0.721  0.00  0.00    -0.033 A 
ATOM      3  C   UNL     1       2.616   1.454   0.718  0.00  0.00    +0.005 A 
ATOM      4  C   UNL     1       2.959   0.310   1.440  0.00  0.00    +0.059 A 
ATOM      5  C   UNL     1       1.988  -0.362   2.158  0.00  0.00    +0.167 A 
ATOM      6  C   UNL     1       0.673   0.105   2.160  0.00  0.00    +0.167 A 
ATOM      7  O   UNL     1      -0.081  -0.725   2.937  0.00  0.00    -0.453 OA
ATOM      8  C   UNL     1       0.694  -1.931   3.078  0.00  0.00    +0.466 C 
ATOM      9  O   UNL     1       2.054  -1.483   2.933  0.00  0.00    -0.453 OA
ATOM     10  C   UNL     1       3.630   2.196  -0.057  0.00  0.00    +0.045 C 
ATOM     11  N   UNL     1       3.356   3.493  -0.439  0.00  0.00    -0.384 N 
ATOM     12  C   UNL     1       2.108   4.140  -0.040  0.00  0.00    +0.117 C 
ATOM     13  C   UNL     1       0.946   3.151  -0.067  0.00  0.00    +0.057 C 
ATOM     14  H   UNL     1       3.998   3.980  -0.978  0.00  0.00    +0.160 HD
ENDROOT
BRANCH  10  15
ATOM     15  C   UNL     1       4.816   1.610  -0.390  0.00  0.00    +0.056 C 
ATOM     16  C   UNL     1       5.982   2.390  -0.491  0.00  0.00    +0.074 C 
ATOM     17  S   UNL     1       5.954   3.986  -0.036  0.00  0.00    -0.036 SA
BRANCH  16  18
ATOM     18  N   UNL     1       7.146   1.830  -0.967  0.00  0.00    -0.335 N 
ATOM     19  H   UNL     1       7.162   0.897  -1.233  0.00  0.00    +0.147 HD
BRANCH  18  20
ATOM     20  C   UNL     1       8.360   2.643  -1.071  0.00  0.00    +0.071 C 
ATOM     21  C   UNL     1       8.354   3.400  -2.401  0.00  0.00    +0.022 C 
ATOM     22  C   UNL     1       9.622   4.249  -2.510  0.00  0.00    +0.002 C 
ATOM     23  C   UNL     1      10.851   3.340  -2.447  0.00  0.00    +0.000 C 
ATOM     24  C   UNL     1      10.857   2.583  -1.117  0.00  0.00    +0.002 C 
ATOM     25  C   UNL     1       9.589   1.734  -1.008  0.00  0.00    +0.022 C 
ENDBRANCH  18  20
ENDBRANCH  16  18
ENDBRANCH  10  15
TORSDOF 3
