REMARK  Name = ZINC64953654
REMARK  8 active torsions:
REMARK  status: ('A' for Active; 'I' for Inactive)
REMARK    1  A    between atoms: C_1  and  C_2
REMARK    2  A    between atoms: C_2  and  C_3
REMARK    3  A    between atoms: C_3  and  N_4
REMARK    4  A    between atoms: C_8  and  C_23
REMARK    5  A    between atoms: C_13  and  C_14
REMARK    6  A    between atoms: C_13  and  C_15
REMARK    7  A    between atoms: N_17  and  C_18
REMARK    8  A    between atoms: N_25  and  C_26
REMARK                            x       y       z     vdW  Elec       q    Type
REMARK                         _______ _______ _______ _____ _____    ______ ____
ROOT
ATOM      1  N   UNL     1      -5.860  -4.495  -1.181  0.00  0.00    -0.281 N 
ATOM      2  C   UNL     1      -4.980  -4.826  -2.158  0.00  0.00    +0.266 C 
ATOM      3  O   UNL     1      -5.180  -4.546  -3.324  0.00  0.00    -0.268 OA
ATOM      4  C   UNL     1      -3.770  -5.543  -1.727  0.00  0.00    +0.137 A 
ATOM      5  C   UNL     1      -2.615  -5.877  -2.385  0.00  0.00    +0.156 A 
ATOM      6  N   UNL     1      -1.830  -6.521  -1.497  0.00  0.00    -0.230 NA
ATOM      7  C   UNL     1      -2.445  -6.600  -0.343  0.00  0.00    +0.200 A 
ATOM      8  N   UNL     1      -3.644  -6.023  -0.437  0.00  0.00    -0.323 N 
ATOM      9  C   UNL     1      -4.718  -5.872   0.546  0.00  0.00    +0.158 C 
ATOM     10  C   UNL     1      -5.514  -4.602   0.232  0.00  0.00    +0.128 C 
ATOM     11  C   UNL     1      -6.803  -4.610   1.056  0.00  0.00    +0.043 C 
ENDROOT
BRANCH  10  12
ATOM     12  C   UNL     1      -4.696  -3.399   0.625  0.00  0.00    +0.238 C 
ATOM     13  O   UNL     1      -4.816  -2.921   1.733  0.00  0.00    -0.273 OA
ATOM     14  N   UNL     1      -3.832  -2.855  -0.254  0.00  0.00    -0.311 N 
ATOM     15  H   UNL     1      -3.737  -3.237  -1.140  0.00  0.00    +0.149 HD
BRANCH  14  16
ATOM     16  C   UNL     1      -3.037  -1.685   0.128  0.00  0.00    +0.073 C 
ATOM     17  C   UNL     1      -3.821  -0.392  -0.173  0.00  0.00    +0.022 C 
ATOM     18  C   UNL     1      -2.738   0.604  -0.660  0.00  0.00    +0.002 C 
ATOM     19  C   UNL     1      -1.796  -0.297  -1.496  0.00  0.00    +0.002 C 
ATOM     20  C   UNL     1      -1.749  -1.626  -0.712  0.00  0.00    +0.022 C 
ENDBRANCH  14  16
ENDBRANCH  10  12
BRANCH   5  21
ATOM     21  C   UNL     1      -2.292  -5.587  -3.799  0.00  0.00    +0.269 C 
ATOM     22  O   UNL     1      -3.093  -4.996  -4.496  0.00  0.00    -0.268 OA
ATOM     23  N   UNL     1      -1.109  -5.978  -4.314  0.00  0.00    -0.275 N 
ATOM     24  H   UNL     1      -0.441  -6.383  -3.740  0.00  0.00    +0.155 HD
BRANCH  23  25
ATOM     25  C   UNL     1      -0.846  -5.799  -5.678  0.00  0.00    +0.111 A 
ATOM     26  C   UNL     1      -0.237  -4.631  -6.122  0.00  0.00    +0.185 A 
ATOM     27  C   UNL     1       0.022  -4.456  -7.471  0.00  0.00    +0.198 A 
ATOM     28  C   UNL     1      -0.325  -5.444  -8.379  0.00  0.00    +0.199 A 
ATOM     29  C   UNL     1      -0.932  -6.610  -7.938  0.00  0.00    +0.198 A 
ATOM     30  C   UNL     1      -1.188  -6.791  -6.589  0.00  0.00    +0.185 A 
ATOM     31  F   UNL     1      -1.774  -7.930  -6.160  0.00  0.00    -0.200 F 
ATOM     32  F   UNL     1      -1.269  -7.572  -8.825  0.00  0.00    -0.199 F 
ATOM     33  F   UNL     1      -0.071  -5.272  -9.694  0.00  0.00    -0.199 F 
ATOM     34  F   UNL     1       0.614  -3.320  -7.903  0.00  0.00    -0.199 F 
ATOM     35  F   UNL     1       0.101  -3.667  -5.238  0.00  0.00    -0.200 F 
ENDBRANCH  23  25
ENDBRANCH   5  21
BRANCH   1  36
ATOM     36  C   UNL     1      -7.191  -4.010  -1.555  0.00  0.00    +0.109 C 
BRANCH  36  38
ATOM     37  C   UNL     1      -8.546  -1.981  -2.095  0.00  0.00    +0.005 C 
ATOM     38  C   UNL     1      -7.156  -2.487  -1.704  0.00  0.00    +0.016 C 
ENDBRANCH  36  38
ENDBRANCH   1  36
TORSDOF 6
