REMARK  Name = ZINC58161401
REMARK  8 active torsions:
REMARK  status: ('A' for Active; 'I' for Inactive)
REMARK    1  A    between atoms: C_1  and  C_2
REMARK    2  A    between atoms: C_2  and  C_4
REMARK    3  A    between atoms: C_2  and  N_18
REMARK    4  A    between atoms: C_9  and  N_10
REMARK    5  A    between atoms: N_13  and  C_16
REMARK    6  A    between atoms: C_19  and  C_21
REMARK    7  A    between atoms: C_24  and  N_27
REMARK    8  A    between atoms: C_28  and  C_30
REMARK                            x       y       z     vdW  Elec       q    Type
REMARK                         _______ _______ _______ _____ _____    ______ ____
ROOT
ATOM      1  N   UNL     1       0.730  -0.301   1.258  0.00  0.00    -0.305 N 
ATOM      2  C   UNL     1       2.046  -0.580   1.186  0.00  0.00    +0.245 C 
ATOM      3  O   UNL     1       2.644  -0.425   0.139  0.00  0.00    -0.270 OA
ATOM      4  H   UNL     1       0.253  -0.425   2.094  0.00  0.00    +0.150 HD
ENDROOT
BRANCH   2   5
ATOM      5  C   UNL     1       2.762  -1.074   2.379  0.00  0.00    +0.037 A 
ATOM      6  C   UNL     1       2.075  -1.258   3.582  0.00  0.00    +0.015 A 
ATOM      7  C   UNL     1       2.745  -1.720   4.692  0.00  0.00    +0.024 A 
ATOM      8  C   UNL     1       4.106  -2.003   4.617  0.00  0.00    +0.034 A 
ATOM      9  C   UNL     1       4.793  -1.820   3.421  0.00  0.00    +0.024 A 
ATOM     10  C   UNL     1       4.127  -1.364   2.306  0.00  0.00    +0.015 A 
BRANCH   8  11
ATOM     11  N   UNL     1       4.782  -2.470   5.743  0.00  0.00    -0.282 N 
ATOM     12  C   UNL     1       4.147  -3.263   6.629  0.00  0.00    +0.248 C 
ATOM     13  O   UNL     1       3.018  -3.649   6.399  0.00  0.00    -0.270 OA
ATOM     14  H   UNL     1       5.709  -2.224   5.889  0.00  0.00    +0.155 HD
BRANCH  12  15
ATOM     15  C   UNL     1       4.825  -3.663   7.880  0.00  0.00    +0.037 A 
ATOM     16  C   UNL     1       6.120  -3.216   8.150  0.00  0.00    +0.013 A 
ATOM     17  C   UNL     1       6.746  -3.593   9.320  0.00  0.00    +0.001 A 
ATOM     18  C   UNL     1       6.094  -4.412  10.225  0.00  0.00    +0.000 A 
ATOM     19  C   UNL     1       4.811  -4.859   9.963  0.00  0.00    +0.001 A 
ATOM     20  C   UNL     1       4.170  -4.484   8.800  0.00  0.00    +0.013 A 
ENDBRANCH  12  15
ENDBRANCH   8  11
ENDBRANCH   2   5
BRANCH   1  22
ATOM     21  C   UNL     1       0.186   1.707  -0.028  0.00  0.00    +0.033 C 
ATOM     22  C   UNL     1       0.019   0.190   0.075  0.00  0.00    +0.102 C 
BRANCH  22  23
ATOM     23  C   UNL     1      -1.445  -0.148   0.192  0.00  0.00    -0.004 A 
ATOM     24  C   UNL     1      -2.015  -0.328   1.437  0.00  0.00    +0.045 A 
ATOM     25  C   UNL     1      -3.360  -0.637   1.545  0.00  0.00    +0.124 A 
ATOM     26  C   UNL     1      -4.136  -0.769   0.406  0.00  0.00    +0.040 A 
ATOM     27  C   UNL     1      -3.570  -0.591  -0.841  0.00  0.00    +0.026 A 
ATOM     28  C   UNL     1      -2.222  -0.274  -0.952  0.00  0.00    +0.035 A 
ATOM     29  F   UNL     1      -3.916  -0.812   2.764  0.00  0.00    -0.205 F 
BRANCH  28  30
ATOM     30  N   UNL     1      -1.648  -0.087  -2.213  0.00  0.00    -0.333 N 
ATOM     31  C   UNL     1      -1.064  -1.216  -2.953  0.00  0.00    +0.086 C 
ATOM     32  C   UNL     1      -1.640  -1.218  -4.372  0.00  0.00    -0.060 C 
ATOM     33  N   UNL     1      -1.415   0.094  -4.992  0.00  0.00    +0.380 N 
ATOM     34  C   UNL     1      -2.163   1.127  -4.263  0.00  0.00    -0.060 C 
ATOM     35  C   UNL     1      -1.617   1.243  -2.840  0.00  0.00    +0.086 C 
ATOM     36  C   UNL     1      -1.869   0.058  -6.389  0.00  0.00    -0.096 C 
ATOM     37  H   UNL     1      -0.430   0.312  -4.966  0.00  0.00    -0.082 HD
ENDBRANCH  28  30
ENDBRANCH  22  23
ENDBRANCH   1  22
TORSDOF 6
