REMARK  Name = ZINC62353534
REMARK  2 active torsions:
REMARK  status: ('A' for Active; 'I' for Inactive)
REMARK    1  A    between atoms: C_6  and  N_7
REMARK    2  A    between atoms: C_12  and  C_14
REMARK                            x       y       z     vdW  Elec       q    Type
REMARK                         _______ _______ _______ _____ _____    ______ ____
ROOT
ATOM      1  C   UNL     1       0.123   1.538   0.139  0.00  0.00    +0.024 A 
ATOM      2  C   UNL     1       1.247   2.140   0.671  0.00  0.00    +0.018 A 
ATOM      3  C   UNL     1       2.438   1.433   0.776  0.00  0.00    +0.029 A 
ATOM      4  C   UNL     1       2.506   0.110   0.348  0.00  0.00    +0.052 A 
ATOM      5  C   UNL     1       1.372  -0.489  -0.193  0.00  0.00    +0.047 A 
ATOM      6  C   UNL     1       0.186   0.221  -0.297  0.00  0.00    +0.026 A 
ATOM      7  N   UNL     1       3.668  -0.657   0.450  0.00  0.00    -0.264 N 
ATOM      8  C   UNL     1       4.996  -0.073   0.612  0.00  0.00    +0.125 C 
ATOM      9  C   UNL     1       4.978   0.862   1.831  0.00  0.00    +0.094 C 
ATOM     10  S   UNL     1       3.854   2.240   1.452  0.00  0.00    -0.122 S 
ATOM     11  C   UNL     1       3.559  -1.999   0.396  0.00  0.00    +0.270 C 
ATOM     12  O   UNL     1       2.460  -2.521   0.412  0.00  0.00    -0.268 OA
ENDROOT
BRANCH  11  13
ATOM     13  C   UNL     1       4.769  -2.834   0.316  0.00  0.00    +0.133 A 
ATOM     14  C   UNL     1       4.747  -4.172   0.605  0.00  0.00    +0.079 A 
ATOM     15  S   UNL     1       6.348  -4.621   0.361  0.00  0.00    -0.083 S 
ATOM     16  C   UNL     1       6.982  -3.134  -0.089  0.00  0.00    +0.156 A 
ATOM     17  N   UNL     1       5.953  -2.331  -0.048  0.00  0.00    -0.243 NA
ENDBRANCH  11  13
BRANCH   6  18
ATOM     18  N   UNL     1      -0.950  -0.391  -0.841  0.00  0.00    -0.358 N 
ATOM     19  H   UNL     1      -1.780   0.106  -0.913  0.00  0.00    +0.142 HD
ATOM     20  H   UNL     1      -0.907  -1.311  -1.145  0.00  0.00    +0.142 HD
ENDBRANCH   6  18
TORSDOF 2
