REMARK  Name = ZINC31776101
REMARK  6 active torsions:
REMARK  status: ('A' for Active; 'I' for Inactive)
REMARK    1  A    between atoms: C_1  and  C_2
REMARK    2  A    between atoms: C_2  and  O_3
REMARK    3  A    between atoms: O_3  and  C_4
REMARK    4  A    between atoms: C_4  and  C_6
REMARK    5  A    between atoms: C_9  and  N_12
REMARK    6  A    between atoms: C_21  and  C_22
REMARK                            x       y       z     vdW  Elec       q    Type
REMARK                         _______ _______ _______ _____ _____    ______ ____
ROOT
ATOM      1  N   UNL     1       3.363  -4.390  -6.513  0.00  0.00    -0.282 N 
ATOM      2  C   UNL     1       3.658  -5.739  -7.004  0.00  0.00    +0.148 C 
ATOM      3  C   UNL     1       5.087  -5.853  -7.460  0.00  0.00    -0.022 A 
ATOM      4  C   UNL     1       5.648  -7.112  -7.593  0.00  0.00    +0.006 A 
ATOM      5  C   UNL     1       6.954  -7.254  -8.022  0.00  0.00    +0.000 A 
ATOM      6  C   UNL     1       7.717  -6.141  -8.327  0.00  0.00    +0.001 A 
ATOM      7  C   UNL     1       7.174  -4.879  -8.197  0.00  0.00    +0.009 A 
ATOM      8  C   UNL     1       5.860  -4.733  -7.756  0.00  0.00    -0.010 A 
ATOM      9  C   UNL     1       5.289  -3.370  -7.581  0.00  0.00    +0.021 C 
ATOM     10  C   UNL     1       6.048  -2.250  -7.703  0.00  0.00    +0.019 C 
ATOM     11  C   UNL     1       3.829  -3.310  -7.268  0.00  0.00    +0.105 C 
ATOM     12  N   UNL     1       3.054  -2.337  -7.663  0.00  0.00    -0.386 N 
ATOM     13  H   UNL     1       2.112  -2.343  -7.433  0.00  0.00    +0.157 HD
ATOM     14  H   UNL     1       3.422  -1.607  -8.185  0.00  0.00    +0.157 HD
ENDROOT
BRANCH  10  15
ATOM     15  C   UNL     1       7.505  -2.328  -7.534  0.00  0.00    -0.024 A 
ATOM     16  C   UNL     1       8.351  -1.606  -8.384  0.00  0.00    +0.009 A 
ATOM     17  C   UNL     1       9.717  -1.684  -8.220  0.00  0.00    +0.016 A 
ATOM     18  C   UNL     1      10.254  -2.474  -7.216  0.00  0.00    +0.018 A 
ATOM     19  C   UNL     1       9.423  -3.191  -6.371  0.00  0.00    +0.016 A 
ATOM     20  C   UNL     1       8.055  -3.119  -6.519  0.00  0.00    +0.009 A 
ATOM     21 BR   UNL     1      12.130  -2.574  -6.999  0.00  0.00    -0.050 Br
ENDBRANCH  10  15
BRANCH   1  25
ATOM     22  C   UNL     1       1.203  -3.795  -3.004  0.00  0.00    +0.059 A 
ATOM     23  C   UNL     1       1.761  -2.704  -3.676  0.00  0.00    +0.017 A 
ATOM     24  C   UNL     1       2.475  -2.904  -4.836  0.00  0.00    +0.024 A 
ATOM     25  C   UNL     1       2.641  -4.191  -5.340  0.00  0.00    +0.035 A 
ATOM     26  C   UNL     1       2.086  -5.280  -4.673  0.00  0.00    +0.024 A 
ATOM     27  C   UNL     1       1.376  -5.087  -3.510  0.00  0.00    +0.017 A 
BRANCH  22  28
ATOM     28  C   UNL     1       0.438  -3.585  -1.761  0.00  0.00    +0.339 C 
ATOM     29  O   UNL     1      -0.042  -4.535  -1.175  0.00  0.00    -0.245 OA
BRANCH  28  30
ATOM     30  O   UNL     1       0.272  -2.339  -1.275  0.00  0.00    -0.461 OA
BRANCH  30  32
ATOM     31  C   UNL     1      -0.561  -0.733   0.327  0.00  0.00    +0.048 C 
ATOM     32  C   UNL     1      -0.480  -2.209  -0.067  0.00  0.00    +0.229 C 
ENDBRANCH  30  32
ENDBRANCH  28  30
ENDBRANCH  22  28
ENDBRANCH   1  25
TORSDOF 5
