REMARK  Name = ZINC35166836
REMARK  8 active torsions:
REMARK  status: ('A' for Active; 'I' for Inactive)
REMARK    1  A    between atoms: C_1  and  C_2
REMARK    2  A    between atoms: C_4  and  C_35
REMARK    3  A    between atoms: C_5  and  N_9
REMARK    4  A    between atoms: C_6  and  C_8
REMARK    5  A    between atoms: C_10  and  C_12
REMARK    6  A    between atoms: C_17  and  N_18
REMARK    7  A    between atoms: C_19  and  C_21
REMARK    8  A    between atoms: N_26  and  C_28
REMARK                            x       y       z     vdW  Elec       q    Type
REMARK                         _______ _______ _______ _____ _____    ______ ____
ROOT
ATOM      1  C   UNL     1       0.642  -5.940   0.301  0.00  0.00    +0.058 A 
ATOM      2  C   UNL     1       0.368  -6.356  -1.004  0.00  0.00    +0.015 A 
ATOM      3  C   UNL     1       0.651  -7.649  -1.386  0.00  0.00    +0.001 A 
ATOM      4  C   UNL     1       1.205  -8.541  -0.482  0.00  0.00    +0.002 A 
ATOM      5  C   UNL     1       1.481  -8.144   0.811  0.00  0.00    +0.024 A 
ATOM      6  C   UNL     1       1.209  -6.843   1.212  0.00  0.00    +0.046 A 
ENDROOT
BRANCH   1   8
ATOM      7  N   UNL     1      -0.084  -3.657  -0.192  0.00  0.00    -0.281 N 
ATOM      8  C   UNL     1       0.342  -4.557   0.717  0.00  0.00    +0.250 C 
ATOM      9  O   UNL     1       0.479  -4.228   1.879  0.00  0.00    -0.270 OA
ATOM     10  H   UNL     1      -0.271  -3.938  -1.101  0.00  0.00    +0.155 HD
BRANCH   7  15
ATOM     11  C   UNL     1      -0.785   1.770   1.301  0.00  0.00    +0.044 C 
ATOM     12  C   UNL     1      -0.599   0.328   0.904  0.00  0.00    -0.050 A 
ATOM     13  C   UNL     1       0.246   0.004  -0.141  0.00  0.00    +0.008 A 
ATOM     14  C   UNL     1       0.419  -1.317  -0.507  0.00  0.00    -0.029 A 
ATOM     15  C   UNL     1      -0.257  -2.319   0.176  0.00  0.00    +0.040 A 
ATOM     16  C   UNL     1      -1.104  -1.990   1.226  0.00  0.00    -0.029 A 
ATOM     17  C   UNL     1      -1.269  -0.668   1.590  0.00  0.00    +0.008 A 
ATOM     18  C   UNL     1      -1.839  -3.075   1.971  0.00  0.00    +0.045 C 
ATOM     19  C   UNL     1       1.339  -1.669  -1.648  0.00  0.00    +0.045 C 
ENDBRANCH   7  15
ENDBRANCH   1   8
BRANCH   6  20
ATOM     20  N   UNL     1       1.492  -6.439   2.514  0.00  0.00    -0.285 N 
ATOM     21  C   UNL     1       1.447  -7.332   3.522  0.00  0.00    +0.222 C 
ATOM     22  O   UNL     1       1.236  -8.503   3.286  0.00  0.00    -0.275 OA
ATOM     23  H   UNL     1       1.722  -5.514   2.696  0.00  0.00    +0.155 HD
BRANCH  21  24
ATOM     24  C   UNL     1       1.658  -6.877   4.943  0.00  0.00    +0.102 C 
ATOM     25  C   UNL     1       3.091  -6.330   5.142  0.00  0.00    +0.110 C 
ATOM     26  C   UNL     1       3.473  -6.789   6.532  0.00  0.00    +0.221 C 
ATOM     27  O   UNL     1       4.395  -6.343   7.182  0.00  0.00    -0.275 OA
ATOM     28  N   UNL     1       2.642  -7.762   6.943  0.00  0.00    -0.271 N 
ATOM     29  C   UNL     1       1.639  -8.076   5.917  0.00  0.00    +0.127 C 
BRANCH  28  30
ATOM     30  C   UNL     1       2.721  -8.395   8.189  0.00  0.00    +0.036 A 
ATOM     31  C   UNL     1       3.624  -7.943   9.142  0.00  0.00    +0.024 A 
ATOM     32  C   UNL     1       3.700  -8.569  10.371  0.00  0.00    +0.017 A 
ATOM     33  C   UNL     1       2.877  -9.646  10.652  0.00  0.00    +0.018 A 
ATOM     34  C   UNL     1       1.977 -10.098   9.704  0.00  0.00    +0.017 A 
ATOM     35  C   UNL     1       1.893  -9.472   8.476  0.00  0.00    +0.024 A 
ATOM     36 BR   UNL     1       2.985 -10.501  12.335  0.00  0.00    -0.050 Br
ENDBRANCH  28  30
ENDBRANCH  21  24
ENDBRANCH   6  20
TORSDOF 5
