REMARK  Name = ZINC02841702
REMARK  9 active torsions:
REMARK  status: ('A' for Active; 'I' for Inactive)
REMARK    1  A    between atoms: C_1  and  C_2
REMARK    2  A    between atoms: C_2  and  C_3
REMARK    3  A    between atoms: C_2  and  C_4
REMARK    4  A    between atoms: C_9  and  N_10
REMARK    5  A    between atoms: C_11  and  C_13
REMARK    6  A    between atoms: C_13  and  S_14
REMARK    7  A    between atoms: S_14  and  C_15
REMARK    8  A    between atoms: C_18  and  C_21
REMARK    9  A    between atoms: N_19  and  N_20
REMARK                            x       y       z     vdW  Elec       q    Type
REMARK                         _______ _______ _______ _____ _____    ______ ____
ROOT
ATOM      1  S   UNL     1       2.004   6.451   4.827  0.00  0.00    -0.075 S 
ENDROOT
BRANCH   1   2
ATOM      2  C   UNL     1       1.776   8.178   4.563  0.00  0.00    +0.209 A 
ATOM      3  N   UNL     1       0.988   8.733   3.670  0.00  0.00    -0.121 NA
ATOM      4  N   UNL     1       1.060  10.014   3.752  0.00  0.00    -0.127 NA
ATOM      5  C   UNL     1       1.906  10.355   4.697  0.00  0.00    +0.182 A 
ATOM      6  N   UNL     1       2.390   9.190   5.245  0.00  0.00    -0.224 N 
BRANCH   5   7
ATOM      7  C   UNL     1       2.269  11.731   5.096  0.00  0.00    +0.021 A 
ATOM      8  C   UNL     1       1.446  12.803   4.745  0.00  0.00    +0.013 A 
ATOM      9  C   UNL     1       1.788  14.084   5.125  0.00  0.00    +0.021 A 
ATOM     10  C   UNL     1       2.950  14.310   5.843  0.00  0.00    +0.041 A 
ATOM     11  C   UNL     1       3.773  13.251   6.189  0.00  0.00    +0.021 A 
ATOM     12  C   UNL     1       3.440  11.965   5.819  0.00  0.00    +0.013 A 
ATOM     13 CL   UNL     1       3.377  15.926   6.311  0.00  0.00    -0.084 Cl
ENDBRANCH   5   7
BRANCH   6  14
ATOM     14  N   UNL     1       3.297   9.069   6.260  0.00  0.00    -0.295 N 
ATOM     15  H   UNL     1       4.233   8.965   5.898  0.00  0.00    +0.163 HD
ATOM     16  H   UNL     1       3.239   9.855   6.891  0.00  0.00    +0.163 HD
ENDBRANCH   6  14
ENDBRANCH   1   2
BRANCH   1  17
ATOM     17  C   UNL     1       0.879   5.790   3.572  0.00  0.00    +0.173 C 
BRANCH  17  19
ATOM     18  N   UNL     1       0.144   3.571   2.763  0.00  0.00    -0.285 N 
ATOM     19  C   UNL     1       0.909   4.284   3.614  0.00  0.00    +0.227 C 
ATOM     20  O   UNL     1       1.621   3.713   4.413  0.00  0.00    -0.275 OA
ATOM     21  H   UNL     1      -0.360   4.024   2.069  0.00  0.00    +0.155 HD
BRANCH  18  27
ATOM     22  C   UNL     1      -0.057   1.390   1.745  0.00  0.00    -0.023 A 
ATOM     23  C   UNL     1      -0.126   0.016   1.865  0.00  0.00    +0.021 A 
ATOM     24  C   UNL     1      -0.050  -0.576   3.113  0.00  0.00    +0.018 A 
ATOM     25  C   UNL     1       0.086   0.207   4.245  0.00  0.00    +0.017 A 
ATOM     26  C   UNL     1       0.150   1.582   4.132  0.00  0.00    +0.024 A 
ATOM     27  C   UNL     1       0.079   2.178   2.880  0.00  0.00    +0.037 A 
ATOM     28 BR   UNL     1      -0.137  -2.458   3.271  0.00  0.00    -0.050 Br
BRANCH  22  30
ATOM     29  C   UNL     1       1.086   1.628  -0.442  0.00  0.00    +0.012 C 
ATOM     30  C   UNL     1      -0.135   2.034   0.385  0.00  0.00    +0.015 C 
ATOM     31  C   UNL     1      -1.409   1.572  -0.326  0.00  0.00    +0.012 C 
ENDBRANCH  22  30
ENDBRANCH  18  27
ENDBRANCH  17  19
ENDBRANCH   1  17
TORSDOF 7
