REMARK  Name = ZINC09018874
REMARK  9 active torsions:
REMARK  status: ('A' for Active; 'I' for Inactive)
REMARK    1  A    between atoms: C_1  and  C_2
REMARK    2  A    between atoms: C_2  and  O_3
REMARK    3  A    between atoms: O_3  and  C_4
REMARK    4  A    between atoms: C_4  and  C_6
REMARK    5  A    between atoms: C_10  and  N_11
REMARK    6  A    between atoms: C_12  and  C_14
REMARK    7  A    between atoms: C_14  and  C_16
REMARK    8  A    between atoms: C_14  and  S_17
REMARK    9  A    between atoms: S_17  and  C_18
REMARK                            x       y       z     vdW  Elec       q    Type
REMARK                         _______ _______ _______ _____ _____    ______ ____
ROOT
ATOM      1  N   UNL     1      -5.866   4.294   0.595  0.00  0.00    -0.278 N 
ATOM      2  C   UNL     1      -5.085   3.284   0.165  0.00  0.00    +0.231 C 
ATOM      3  O   UNL     1      -5.580   2.213  -0.118  0.00  0.00    -0.274 OA
ATOM      4  H   UNL     1      -5.470   5.151   0.821  0.00  0.00    +0.155 HD
ENDROOT
BRANCH   1   9
ATOM      5  C   UNL     1      -8.194   5.020   1.139  0.00  0.00    +0.091 A 
ATOM      6  C   UNL     1      -9.576   4.573   1.168  0.00  0.00    -0.021 A 
ATOM      7  C   UNL     1      -9.776   3.295   0.780  0.00  0.00    -0.004 A 
ATOM      8  S   UNL     1      -8.163   2.688   0.373  0.00  0.00    -0.077 S 
ATOM      9  C   UNL     1      -7.235   4.111   0.713  0.00  0.00    +0.086 A 
ATOM     10  C   UNL     1     -11.082   2.564   0.714  0.00  0.00    +0.043 C 
ATOM     11  C   UNL     1     -12.124   3.363   1.510  0.00  0.00    +0.005 C 
ATOM     12  C   UNL     1     -12.044   4.834   1.090  0.00  0.00    +0.005 C 
ATOM     13  C   UNL     1     -10.742   5.452   1.604  0.00  0.00    +0.037 C 
BRANCH   5  14
ATOM     14  C   UNL     1      -7.826   6.379   1.541  0.00  0.00    +0.342 C 
ATOM     15  O   UNL     1      -7.804   7.272   0.715  0.00  0.00    -0.245 OA
BRANCH  14  16
ATOM     16  O   UNL     1      -7.513   6.642   2.826  0.00  0.00    -0.461 OA
BRANCH  16  18
ATOM     17  C   UNL     1      -6.837   8.114   4.644  0.00  0.00    +0.048 C 
ATOM     18  C   UNL     1      -7.158   8.012   3.152  0.00  0.00    +0.229 C 
ENDBRANCH  16  18
ENDBRANCH  14  16
ENDBRANCH   5  14
ENDBRANCH   1   9
BRANCH   2  19
ATOM     19  C   UNL     1      -3.597   3.483   0.036  0.00  0.00    +0.137 C 
ATOM     20  C   UNL     1      -3.293   4.223  -1.269  0.00  0.00    +0.029 C 
BRANCH  19  21
ATOM     21  S   UNL     1      -2.769   1.869   0.024  0.00  0.00    -0.073 S 
BRANCH  21  22
ATOM     22  C   UNL     1      -1.053   2.271   0.019  0.00  0.00    +0.198 A 
ATOM     23  N   UNL     1      -0.544   3.479   0.026  0.00  0.00    -0.120 NA
ATOM     24  N   UNL     1       0.852   3.363   0.012  0.00  0.00    -0.109 NA
ATOM     25  C   UNL     1       1.154   2.087   0.002  0.00  0.00    +0.237 A 
ATOM     26  N   UNL     1      -0.017   1.376   0.010  0.00  0.00    -0.260 N 
ATOM     27  C   UNL     1       0.002  -0.004   0.002  0.00  0.00    +0.037 A 
ATOM     28  C   UNL     1       1.176  -0.658  -0.014  0.00  0.00    +0.037 A 
ATOM     29  C   UNL     1       2.393   0.076  -0.022  0.00  0.00    +0.256 A 
ATOM     30  O   UNL     1       3.459  -0.513  -0.036  0.00  0.00    -0.267 OA
ATOM     31  N   UNL     1       2.368   1.422  -0.015  0.00  0.00    -0.291 N 
ATOM     32  H   UNL     1       3.198   1.924  -0.021  0.00  0.00    +0.172 HD
ATOM     33  C   UNL     1       0.945  -2.155  -0.020  0.00  0.00    +0.043 C 
ATOM     34  C   UNL     1      -0.521  -2.335   0.430  0.00  0.00    +0.011 C 
ATOM     35  C   UNL     1      -1.149  -0.989   0.009  0.00  0.00    +0.055 C 
ENDBRANCH  21  22
ENDBRANCH  19  21
ENDBRANCH   2  19
TORSDOF 7
