REMARK  Name = ZINC46761431
REMARK  6 active torsions:
REMARK  status: ('A' for Active; 'I' for Inactive)
REMARK    1  A    between atoms: C_1  and  C_2
REMARK    2  A    between atoms: N_4  and  C_7
REMARK    3  A    between atoms: C_10  and  C_13
REMARK    4  A    between atoms: C_18  and  C_21
REMARK    5  A    between atoms: C_24  and  N_27
REMARK    6  A    between atoms: C_28  and  C_30
REMARK                            x       y       z     vdW  Elec       q    Type
REMARK                         _______ _______ _______ _____ _____    ______ ____
ROOT
ATOM      1  C   UNL     1      -0.202  -6.190  -4.705  0.00  0.00    +0.250 C 
ATOM      2  O   UNL     1      -0.019  -7.345  -4.372  0.00  0.00    -0.270 OA
ATOM      3  N   UNL     1      -0.240  -5.864  -6.012  0.00  0.00    -0.261 N 
ATOM      4  C   UNL     1      -0.072  -6.847  -6.978  0.00  0.00    +0.165 A 
ATOM      5  N   UNL     1      -0.070  -6.735  -8.293  0.00  0.00    -0.225 NA
ATOM      6  C   UNL     1       0.107  -7.790  -9.074  0.00  0.00    +0.080 A 
ATOM      7  C   UNL     1       0.292  -9.020  -8.507  0.00  0.00    +0.076 A 
ATOM      8  S   UNL     1       0.209  -8.600  -6.770  0.00  0.00    -0.060 S 
ATOM      9  H   UNL     1      -0.386  -4.943  -6.279  0.00  0.00    +0.157 HD
ENDROOT
BRANCH   1  13
ATOM     10  C   UNL     1      -0.716  -3.186  -1.755  0.00  0.00    +0.052 A 
ATOM     11  C   UNL     1      -0.508  -4.509  -1.371  0.00  0.00    +0.025 A 
ATOM     12  C   UNL     1      -0.342  -5.482  -2.323  0.00  0.00    +0.015 A 
ATOM     13  C   UNL     1      -0.381  -5.146  -3.679  0.00  0.00    +0.037 A 
ATOM     14  C   UNL     1      -0.591  -3.817  -4.061  0.00  0.00    +0.015 A 
ATOM     15  C   UNL     1      -0.761  -2.849  -3.106  0.00  0.00    +0.025 A 
BRANCH  10  19
ATOM     16  C   UNL     1      -1.473   1.352   0.016  0.00  0.00    +0.062 C 
ATOM     17  C   UNL     1      -1.229  -0.136   0.006  0.00  0.00    +0.036 C 
ATOM     18  N   UNL     1      -1.105  -0.849  -1.037  0.00  0.00    -0.189 NA
ATOM     19  N   UNL     1      -0.884  -2.202  -0.788  0.00  0.00    -0.224 N 
ATOM     20  C   UNL     1      -0.860  -2.416   0.668  0.00  0.00    +0.138 C 
ATOM     21  C   UNL     1      -1.090  -1.002   1.238  0.00  0.00    +0.073 C 
ENDBRANCH  10  19
ENDBRANCH   1  13
BRANCH   6  22
ATOM     22  C   UNL     1       0.104  -7.639 -10.549  0.00  0.00    +0.001 A 
ATOM     23  C   UNL     1       0.285  -8.755 -11.366  0.00  0.00    +0.012 A 
ATOM     24  C   UNL     1       0.282  -8.612 -12.737  0.00  0.00    +0.024 A 
ATOM     25  C   UNL     1       0.098  -7.357 -13.306  0.00  0.00    +0.033 A 
ATOM     26  C   UNL     1      -0.082  -6.244 -12.494  0.00  0.00    +0.024 A 
ATOM     27  C   UNL     1      -0.085  -6.382 -11.122  0.00  0.00    +0.012 A 
BRANCH  25  28
ATOM     28  N   UNL     1       0.096  -7.215 -14.698  0.00  0.00    -0.286 N 
ATOM     29  C   UNL     1      -0.393  -8.201 -15.475  0.00  0.00    +0.214 C 
ATOM     30  O   UNL     1      -0.918  -9.170 -14.967  0.00  0.00    -0.276 OA
ATOM     31  C   UNL     1      -0.288  -8.101 -16.975  0.00  0.00    +0.109 C 
ATOM     32  H   UNL     1       0.446  -6.406 -15.103  0.00  0.00    +0.155 HD
ENDBRANCH  25  28
ENDBRANCH   6  22
TORSDOF 4
