REMARK  Name = ZINC13255828
REMARK  6 active torsions:
REMARK  status: ('A' for Active; 'I' for Inactive)
REMARK    1  A    between atoms: C_1  and  C_2
REMARK    2  A    between atoms: N_4  and  C_5
REMARK    3  A    between atoms: C_8  and  N_11
REMARK    4  A    between atoms: C_12  and  C_14
REMARK    5  A    between atoms: C_14  and  C_15
REMARK    6  A    between atoms: C_15  and  C_21
REMARK                            x       y       z     vdW  Elec       q    Type
REMARK                         _______ _______ _______ _____ _____    ______ ____
ROOT
ATOM      1  N   UNL     1      -4.582   3.548   0.589  0.00  0.00    -0.285 N 
ATOM      2  C   UNL     1      -4.594   4.888   0.444  0.00  0.00    +0.218 C 
ATOM      3  O   UNL     1      -3.550   5.494   0.320  0.00  0.00    -0.275 OA
ATOM      4  H   UNL     1      -5.410   3.071   0.754  0.00  0.00    +0.155 HD
ENDROOT
BRANCH   1   8
ATOM      5  C   UNL     1      -0.985   1.455   0.326  0.00  0.00    +0.033 A 
ATOM      6  C   UNL     1      -1.012   2.720   0.899  0.00  0.00    +0.025 A 
ATOM      7  C   UNL     1      -2.202   3.415   0.981  0.00  0.00    +0.025 A 
ATOM      8  C   UNL     1      -3.374   2.845   0.501  0.00  0.00    +0.033 A 
ATOM      9  C   UNL     1      -3.348   1.578  -0.067  0.00  0.00    +0.025 A 
ATOM     10  C   UNL     1      -2.157   0.885  -0.154  0.00  0.00    +0.025 A 
BRANCH   5  14
ATOM     11  C   UNL     1       1.800  -0.725  -0.966  0.00  0.00    +0.109 C 
ATOM     12  C   UNL     1       0.464  -0.043  -0.823  0.00  0.00    +0.214 C 
ATOM     13  O   UNL     1      -0.395  -0.210  -1.663  0.00  0.00    -0.276 OA
ATOM     14  N   UNL     1       0.223   0.752   0.238  0.00  0.00    -0.286 N 
ATOM     15  H   UNL     1       0.884   0.834   0.943  0.00  0.00    +0.155 HD
ENDBRANCH   5  14
ENDBRANCH   1   8
BRANCH   2  16
ATOM     16  C   UNL     1      -5.903   5.634   0.438  0.00  0.00    +0.114 C 
BRANCH  16  17
ATOM     17  C   UNL     1      -5.647   7.112   0.137  0.00  0.00    +0.080 C 
ATOM     18  C   UNL     1      -6.961   7.889   0.242  0.00  0.00    +0.019 C 
ATOM     19  C   UNL     1      -7.967   7.330  -0.767  0.00  0.00    +0.001 C 
ATOM     20  C   UNL     1      -7.402   7.471  -2.182  0.00  0.00    +0.000 C 
ATOM     21  C   UNL     1      -6.088   6.694  -2.287  0.00  0.00    +0.001 C 
ATOM     22  C   UNL     1      -5.083   7.254  -1.278  0.00  0.00    +0.019 C 
BRANCH  17  23
ATOM     23  C   UNL     1      -4.657   7.663   1.130  0.00  0.00    +0.362 C 
ATOM     24  O   UNL     1      -3.650   8.205   0.742  0.00  0.00    -0.246 OA
ATOM     25  O   UNL     1      -4.894   7.551   2.446  0.00  0.00    -0.246 OA
ENDBRANCH  17  23
ENDBRANCH  16  17
ENDBRANCH   2  16
TORSDOF 5
