REMARK  Name = ZINC04235469
REMARK  8 active torsions:
REMARK  status: ('A' for Active; 'I' for Inactive)
REMARK    1  A    between atoms: C_4  and  O_7
REMARK    2  A    between atoms: O_7  and  C_8
REMARK    3  A    between atoms: C_11  and  N_14
REMARK    4  A    between atoms: C_15  and  O_17
REMARK    5  A    between atoms: O_17  and  C_18
REMARK    6  A    between atoms: C_28  and  N_30
REMARK    7  A    between atoms: C_31  and  C_33
REMARK    8  A    between atoms: C_36  and  C_39
REMARK                            x       y       z     vdW  Elec       q    Type
REMARK                         _______ _______ _______ _____ _____    ______ ____
ROOT
ATOM      1  C   UNL     1      -8.478  -2.254   0.284  0.00  0.00    +0.235 C 
ATOM      2  C   UNL     1      -8.654  -2.941  -1.086  0.00  0.00    +0.207 C 
ATOM      3  O   UNL     1      -9.492  -4.085  -0.889  0.00  0.00    -0.368 OA
ATOM      4  C   UNL     1      -9.877  -4.194   0.488  0.00  0.00    +0.173 C 
ATOM      5  C   UNL     1      -9.712  -2.756   1.075  0.00  0.00    +0.192 C 
ATOM      6  O   UNL     1     -10.880  -2.060   0.605  0.00  0.00    -0.368 OA
ATOM      7  C   UNL     1     -11.984  -2.976   0.672  0.00  0.00    +0.185 C 
ATOM      8  C   UNL     1     -11.408  -4.400   0.560  0.00  0.00    +0.130 C 
ENDROOT
BRANCH   8   9
ATOM      9  N   UNL     1     -11.762  -5.192   1.740  0.00  0.00    -0.304 N 
ATOM     10  C   UNL     1     -12.905  -5.908   1.752  0.00  0.00    +0.244 C 
ATOM     11  O   UNL     1     -13.640  -5.895   0.785  0.00  0.00    -0.270 OA
ATOM     12  H   UNL     1     -11.175  -5.202   2.512  0.00  0.00    +0.149 HD
BRANCH  10  13
ATOM     13  C   UNL     1     -13.262  -6.707   2.943  0.00  0.00    +0.037 A 
ATOM     14  C   UNL     1     -12.417  -6.729   4.053  0.00  0.00    +0.013 A 
ATOM     15  C   UNL     1     -12.759  -7.473   5.163  0.00  0.00    +0.013 A 
ATOM     16  C   UNL     1     -13.933  -8.206   5.173  0.00  0.00    +0.055 A 
ATOM     17  C   UNL     1     -14.773  -8.194   4.074  0.00  0.00    +0.013 A 
ATOM     18  C   UNL     1     -14.445  -7.449   2.960  0.00  0.00    +0.013 A 
BRANCH  16  19
ATOM     19  C   UNL     1     -14.297  -9.021   6.387  0.00  0.00    +0.417 C 
ATOM     20  F   UNL     1     -13.767 -10.310   6.260  0.00  0.00    -0.166 F 
ATOM     21  F   UNL     1     -13.774  -8.413   7.533  0.00  0.00    -0.166 F 
ATOM     22  F   UNL     1     -15.690  -9.099   6.495  0.00  0.00    -0.166 F 
ENDBRANCH  16  19
ENDBRANCH  10  13
ENDBRANCH   8   9
BRANCH   1  23
ATOM     23  O   UNL     1      -8.508  -0.809   0.144  0.00  0.00    -0.442 OA
BRANCH  23  25
ATOM     24  N   UNL     1      -7.280   1.164  -0.061  0.00  0.00    -0.251 N 
ATOM     25  C   UNL     1      -7.322  -0.177   0.070  0.00  0.00    +0.405 C 
ATOM     26  O   UNL     1      -6.289  -0.815   0.120  0.00  0.00    -0.226 OA
ATOM     27  H   UNL     1      -8.101   1.665  -0.187  0.00  0.00    +0.158 HD
BRANCH  24  31
ATOM     28  C   UNL     1      -3.620   3.159   0.079  0.00  0.00    +0.129 A 
ATOM     29  C   UNL     1      -4.757   3.758   0.603  0.00  0.00    +0.048 A 
ATOM     30  C   UNL     1      -5.970   3.100   0.551  0.00  0.00    +0.027 A 
ATOM     31  C   UNL     1      -6.050   1.835  -0.014  0.00  0.00    +0.037 A 
ATOM     32  C   UNL     1      -4.911   1.233  -0.533  0.00  0.00    +0.027 A 
ATOM     33  C   UNL     1      -3.700   1.894  -0.486  0.00  0.00    +0.048 A 
BRANCH  28  34
ATOM     34  O   UNL     1      -2.427   3.809   0.125  0.00  0.00    -0.456 OA
BRANCH  34  38
ATOM     35  C   UNL     1      -1.315   6.050  -3.155  0.00  0.00    +0.000 A 
ATOM     36  C   UNL     1      -2.567   5.466  -3.110  0.00  0.00    +0.004 A 
ATOM     37  C   UNL     1      -2.945   4.720  -2.011  0.00  0.00    +0.046 A 
ATOM     38  C   UNL     1      -2.061   4.547  -0.955  0.00  0.00    +0.128 A 
ATOM     39  C   UNL     1      -0.804   5.134  -1.002  0.00  0.00    +0.046 A 
ATOM     40  C   UNL     1      -0.434   5.884  -2.102  0.00  0.00    +0.004 A 
ENDBRANCH  34  38
ENDBRANCH  28  34
ENDBRANCH  24  31
ENDBRANCH  23  25
ENDBRANCH   1  23
TORSDOF 8
