REMARK  Name = ZINC20570474
REMARK  7 active torsions:
REMARK  status: ('A' for Active; 'I' for Inactive)
REMARK    1  A    between atoms: C_1  and  C_2
REMARK    2  A    between atoms: C_9  and  N_13
REMARK    3  A    between atoms: C_10  and  C_11
REMARK    4  A    between atoms: C_14  and  C_16
REMARK    5  A    between atoms: C_20  and  N_22
REMARK    6  A    between atoms: N_22  and  S_23
REMARK    7  A    between atoms: S_23  and  C_26
REMARK                            x       y       z     vdW  Elec       q    Type
REMARK                         _______ _______ _______ _____ _____    ______ ____
ROOT
ATOM      1  C   UNL     1       6.013   6.561  -0.814  0.00  0.00    +0.039 A 
ATOM      2  C   UNL     1       7.372   6.320  -0.600  0.00  0.00    +0.013 A 
ATOM      3  C   UNL     1       8.286   7.343  -0.749  0.00  0.00    +0.003 A 
ATOM      4  C   UNL     1       7.860   8.611  -1.101  0.00  0.00    +0.024 A 
ATOM      5  C   UNL     1       6.510   8.862  -1.311  0.00  0.00    +0.049 A 
ATOM      6  C   UNL     1       5.584   7.839  -1.169  0.00  0.00    +0.037 A 
ENDROOT
BRANCH   1   8
ATOM      7  N   UNL     1       5.451   4.231  -0.317  0.00  0.00    -0.275 N 
ATOM      8  C   UNL     1       5.033   5.465  -0.660  0.00  0.00    +0.249 C 
ATOM      9  O   UNL     1       3.850   5.678  -0.842  0.00  0.00    -0.270 OA
ATOM     10  H   UNL     1       6.521   4.038  -0.152  0.00  0.00    +0.156 HD
BRANCH   7  18
ATOM     11  C   UNL     1      -0.039  -1.307   0.305  0.00  0.00    +0.008 C 
ATOM     12  C   UNL     1       1.286  -0.609  -0.009  0.00  0.00    -0.009 C 
ATOM     13  C   UNL     1       2.324  -0.968   1.058  0.00  0.00    +0.008 C 
ATOM     14  C   UNL     1       3.707  -0.482   0.623  0.00  0.00    +0.037 C 
ATOM     15  C   UNL     1       3.616   0.995   0.257  0.00  0.00    -0.018 A 
ATOM     16  C   UNL     1       2.424   1.571  -0.015  0.00  0.00    -0.004 A 
ATOM     17  S   UNL     1       2.811   3.260  -0.377  0.00  0.00    -0.077 S 
ATOM     18  C   UNL     1       4.531   3.203  -0.172  0.00  0.00    +0.090 A 
ATOM     19  C   UNL     1       4.764   1.879   0.172  0.00  0.00    +0.084 A 
ATOM     20  C   UNL     1       1.079   0.912  -0.007  0.00  0.00    +0.046 C 
BRANCH  19  21
ATOM     21  C   UNL     1       6.089   1.403   0.432  0.00  0.00    +0.102 C 
ATOM     22  N   UNL     1       7.140   1.025   0.639  0.00  0.00    -0.191 NA
ENDBRANCH  19  21
ENDBRANCH   7  18
ENDBRANCH   1   8
BRANCH   5  23
ATOM     23  N   UNL     1       6.085  10.145  -1.667  0.00  0.00    -0.216 N 
ATOM     24  H   UNL     1       6.255  10.517  -2.687  0.00  0.00    +0.174 HD
BRANCH  23  25
ATOM     25  S   UNL     1       5.324  11.104  -0.551  0.00  0.00    +0.072 S 
ATOM     26  O   UNL     1       5.071  12.347  -1.190  0.00  0.00    -0.150 OA
ATOM     27  O   UNL     1       4.289  10.317   0.022  0.00  0.00    -0.150 OA
BRANCH  25  28
ATOM     28  C   UNL     1       6.484  11.426   0.736  0.00  0.00    +0.109 A 
ATOM     29  C   UNL     1       6.598  10.548   1.798  0.00  0.00    +0.031 A 
ATOM     30  C   UNL     1       7.510  10.797   2.806  0.00  0.00    +0.040 A 
ATOM     31  C   UNL     1       8.303  11.931   2.757  0.00  0.00    +0.124 A 
ATOM     32  C   UNL     1       8.184  12.812   1.695  0.00  0.00    +0.040 A 
ATOM     33  C   UNL     1       7.274  12.559   0.686  0.00  0.00    +0.031 A 
ATOM     34  F   UNL     1       9.191  12.178   3.744  0.00  0.00    -0.205 F 
ENDBRANCH  25  28
ENDBRANCH  23  25
ENDBRANCH   5  23
TORSDOF 6
