REMARK  Name = ZINC49741062
REMARK  2 active torsions:
REMARK  status: ('A' for Active; 'I' for Inactive)
REMARK    1  A    between atoms: C_6  and  N_7
REMARK    2  A    between atoms: C_8  and  C_10
REMARK                            x       y       z     vdW  Elec       q    Type
REMARK                         _______ _______ _______ _____ _____    ______ ____
ROOT
ATOM      1  C   UNL     1      -0.005   1.371   0.175  0.00  0.00    +0.025 A 
ATOM      2  C   UNL     1       1.178   2.080   0.163  0.00  0.00    +0.025 A 
ATOM      3  C   UNL     1       2.390   1.421  -0.028  0.00  0.00    +0.038 A 
ATOM      4  C   UNL     1       2.389   0.041  -0.205  0.00  0.00    -0.009 A 
ATOM      5  C   UNL     1       1.210  -0.669  -0.193  0.00  0.00    +0.029 A 
ATOM      6  C   UNL     1       0.003  -0.006  -0.003  0.00  0.00    +0.034 A 
ATOM      7  C   UNL     1       3.830  -0.355  -0.379  0.00  0.00    +0.074 C 
ATOM      8  C   UNL     1       4.057  -1.034  -1.737  0.00  0.00    +0.021 C 
ATOM      9  C   UNL     1       5.138  -2.106  -1.445  0.00  0.00    +0.001 C 
ATOM     10  C   UNL     1       4.750  -2.612  -0.033  0.00  0.00    +0.001 C 
ATOM     11  C   UNL     1       4.269  -1.343   0.706  0.00  0.00    +0.021 C 
ATOM     12  C   UNL     1       4.600   0.935  -0.284  0.00  0.00    +0.228 C 
ATOM     13  O   UNL     1       5.803   1.068  -0.374  0.00  0.00    -0.274 OA
ATOM     14  N   UNL     1       3.698   1.913  -0.081  0.00  0.00    -0.284 N 
ATOM     15  H   UNL     1       3.928   2.850   0.017  0.00  0.00    +0.155 HD
ENDROOT
BRANCH   6  16
ATOM     16  N   UNL     1      -1.199  -0.724   0.009  0.00  0.00    -0.285 N 
ATOM     17  C   UNL     1      -1.229  -1.980   0.496  0.00  0.00    +0.220 C 
ATOM     18  O   UNL     1      -0.239  -2.455   1.010  0.00  0.00    -0.275 OA
ATOM     19  H   UNL     1      -2.011  -0.317  -0.333  0.00  0.00    +0.155 HD
BRANCH  17  20
ATOM     20  C   UNL     1      -2.493  -2.796   0.400  0.00  0.00    +0.075 C 
ATOM     21  C   UNL     1      -3.619  -2.123   1.213  0.00  0.00    +0.013 C 
ATOM     22  C   UNL     1      -4.398  -3.307   1.836  0.00  0.00    +0.001 C 
ATOM     23  C   UNL     1      -3.271  -4.308   2.192  0.00  0.00    +0.001 C 
ATOM     24  C   UNL     1      -2.272  -4.185   1.023  0.00  0.00    +0.013 C 
ENDBRANCH  17  20
ENDBRANCH   6  16
TORSDOF 2
