REMARK  Name = ZINC40399621
REMARK  5 active torsions:
REMARK  status: ('A' for Active; 'I' for Inactive)
REMARK    1  A    between atoms: C_1  and  C_2
REMARK    2  A    between atoms: C_4  and  C_33
REMARK    3  A    between atoms: C_6  and  N_8
REMARK    4  A    between atoms: C_9  and  C_11
REMARK    5  A    between atoms: N_25  and  C_26
REMARK                            x       y       z     vdW  Elec       q    Type
REMARK                         _______ _______ _______ _____ _____    ______ ____
ROOT
ATOM      1  C   UNL     1       0.252  -3.010   4.735  0.00  0.00    +0.122 C 
ATOM      2  C   UNL     1       1.434  -3.973   4.861  0.00  0.00    +0.114 C 
ATOM      3  C   UNL     1       1.417  -4.620   6.220  0.00  0.00    +0.219 C 
ATOM      4  O   UNL     1       1.742  -5.783   6.335  0.00  0.00    -0.275 OA
ATOM      5  N   UNL     1       1.046  -3.923   7.308  0.00  0.00    -0.270 N 
ATOM      6  C   UNL     1       0.570  -2.628   7.194  0.00  0.00    +0.138 A 
ATOM      7  C   UNL     1       0.182  -2.137   5.959  0.00  0.00    +0.069 A 
ATOM      8  C   UNL     1      -0.276  -0.820   5.865  0.00  0.00    +0.258 A 
ATOM      9  O   UNL     1      -0.615  -0.353   4.789  0.00  0.00    -0.267 OA
ATOM     10  N   UNL     1      -0.337  -0.073   6.989  0.00  0.00    -0.295 N 
ATOM     11  H   UNL     1      -0.637   0.848   6.943  0.00  0.00    +0.172 HD
ATOM     12  C   UNL     1       0.024  -0.613   8.185  0.00  0.00    +0.202 A 
ATOM     13  N   UNL     1       0.457  -1.852   8.277  0.00  0.00    -0.200 NA
ATOM     14  N   UNL     1      -0.068   0.151   9.319  0.00  0.00    -0.285 N 
ATOM     15  H   UNL     1       1.112  -4.333   8.184  0.00  0.00    +0.156 HD
ATOM     16  H   UNL     1      -0.461   1.037   9.277  0.00  0.00    +0.155 HD
ENDROOT
BRANCH  14  17
ATOM     17  C   UNL     1       0.406  -0.347  10.539  0.00  0.00    +0.034 A 
ATOM     18  C   UNL     1       1.518  -1.178  10.566  0.00  0.00    +0.026 A 
ATOM     19  C   UNL     1       1.984  -1.668  11.770  0.00  0.00    +0.040 A 
ATOM     20  C   UNL     1       1.343  -1.331  12.950  0.00  0.00    +0.124 A 
ATOM     21  C   UNL     1       0.234  -0.502  12.926  0.00  0.00    +0.040 A 
ATOM     22  C   UNL     1      -0.232  -0.006  11.724  0.00  0.00    +0.026 A 
ATOM     23  F   UNL     1       1.800  -1.812  14.127  0.00  0.00    -0.205 F 
ENDBRANCH  14  17
BRANCH   1  25
ATOM     24  N   UNL     1      -0.537  -2.083   2.582  0.00  0.00    -0.285 N 
ATOM     25  C   UNL     1       0.434  -2.147   3.513  0.00  0.00    +0.225 C 
ATOM     26  O   UNL     1       1.456  -1.509   3.369  0.00  0.00    -0.275 OA
ATOM     27  H   UNL     1      -1.383  -2.533   2.732  0.00  0.00    +0.155 HD
BRANCH  24  33
ATOM     28  C   UNL     1      -2.307   0.754  -1.023  0.00  0.00    +0.044 C 
ATOM     29  C   UNL     1      -1.166   0.016  -0.371  0.00  0.00    -0.048 A 
ATOM     30  C   UNL     1       0.092   0.045  -0.944  0.00  0.00    +0.006 A 
ATOM     31  C   UNL     1       1.142  -0.631  -0.349  0.00  0.00    -0.048 A 
ATOM     32  C   UNL     1       0.937  -1.337   0.820  0.00  0.00    +0.026 A 
ATOM     33  C   UNL     1      -0.326  -1.368   1.398  0.00  0.00    +0.034 A 
ATOM     34  C   UNL     1      -1.377  -0.684   0.801  0.00  0.00    +0.026 A 
ATOM     35  C   UNL     1       2.511  -0.597  -0.977  0.00  0.00    +0.044 C 
ENDBRANCH  24  33
ENDBRANCH   1  25
TORSDOF 3
