REMARK  Name = ZINC06147668
REMARK  3 active torsions:
REMARK  status: ('A' for Active; 'I' for Inactive)
REMARK    1  A    between atoms: N_9  and  S_10
REMARK    2  A    between atoms: S_10  and  C_13
REMARK    3  A    between atoms: C_17  and  C_19
REMARK                            x       y       z     vdW  Elec       q    Type
REMARK                         _______ _______ _______ _____ _____    ______ ____
ROOT
ATOM      1  C   UNL     1       8.963   0.463  -0.081  0.00  0.00    +0.109 A 
ATOM      2  C   UNL     1       9.597   1.693  -0.081  0.00  0.00    +0.029 A 
ATOM      3  C   UNL     1       8.855   2.861  -0.068  0.00  0.00    +0.003 A 
ATOM      4  C   UNL     1       7.477   2.806  -0.056  0.00  0.00    +0.013 A 
ATOM      5  C   UNL     1       6.831   1.568  -0.056  0.00  0.00    +0.039 A 
ATOM      6  C   UNL     1       7.585   0.394  -0.064  0.00  0.00    +0.042 A 
ENDROOT
BRANCH   5   7
ATOM      7  C   UNL     1       5.354   1.502  -0.042  0.00  0.00    +0.250 C 
ATOM      8  O   UNL     1       4.795   0.423  -0.042  0.00  0.00    -0.270 OA
ATOM      9  N   UNL     1       4.629   2.638  -0.028  0.00  0.00    -0.252 N 
ATOM     10  C   UNL     1       3.247   2.575  -0.015  0.00  0.00    +0.201 A 
ATOM     11  N   UNL     1       2.514   1.424  -0.014  0.00  0.00    -0.326 N 
ATOM     12  H   UNL     1       2.874   0.491  -0.022  0.00  0.00    +0.169 HD
ATOM     13  C   UNL     1       1.178   1.787   0.000  0.00  0.00    +0.067 A 
ATOM     14  C   UNL     1      -0.013   1.076   0.008  0.00  0.00    +0.028 A 
ATOM     15  C   UNL     1      -1.215   1.751   0.017  0.00  0.00    +0.002 A 
ATOM     16  C   UNL     1      -1.243   3.138   0.031  0.00  0.00    +0.002 A 
ATOM     17  C   UNL     1      -0.071   3.860   0.023  0.00  0.00    +0.030 A 
ATOM     18  C   UNL     1       1.156   3.192   0.008  0.00  0.00    +0.091 A 
ATOM     19  N   UNL     1       2.448   3.612  -0.002  0.00  0.00    -0.214 NA
ATOM     20  H   UNL     1       5.076   3.498  -0.028  0.00  0.00    +0.158 HD
ENDBRANCH   5   7
BRANCH   1  21
ATOM     21  S   UNL     1       9.917  -1.018  -0.097  0.00  0.00    +0.075 S 
ATOM     22  O   UNL     1       9.086  -2.032  -0.645  0.00  0.00    -0.150 OA
ATOM     23  O   UNL     1      11.179  -0.682  -0.657  0.00  0.00    -0.150 OA
BRANCH  21  32
ATOM     24  C   UNL     1      13.312  -0.433   4.053  0.00  0.00    +0.000 A 
ATOM     25  C   UNL     1      13.363   0.085   2.772  0.00  0.00    +0.002 A 
ATOM     26  C   UNL     1      12.366  -0.206   1.866  0.00  0.00    +0.025 A 
ATOM     27  C   UNL     1      11.296  -1.025   2.235  0.00  0.00    +0.054 A 
ATOM     28  C   UNL     1      11.253  -1.536   3.523  0.00  0.00    -0.023 A 
ATOM     29  C   UNL     1      12.253  -1.237   4.429  0.00  0.00    +0.005 A 
ATOM     30  C   UNL     1      10.010  -2.386   3.662  0.00  0.00    +0.058 C 
ATOM     31  C   UNL     1       9.329  -2.301   2.286  0.00  0.00    +0.136 C 
ATOM     32  N   UNL     1      10.197  -1.438   1.481  0.00  0.00    -0.202 N 
ENDBRANCH  21  32
ENDBRANCH   1  21
TORSDOF 3
