REMARK  Name = ZINC08965983
REMARK  6 active torsions:
REMARK  status: ('A' for Active; 'I' for Inactive)
REMARK    1  A    between atoms: C_4  and  N_28
REMARK    2  A    between atoms: C_5  and  N_7
REMARK    3  A    between atoms: C_8  and  C_10
REMARK    4  A    between atoms: C_14  and  N_16
REMARK    5  A    between atoms: N_16  and  S_17
REMARK    6  A    between atoms: S_17  and  C_20
REMARK                            x       y       z     vdW  Elec       q    Type
REMARK                         _______ _______ _______ _____ _____    ______ ____
ROOT
ATOM      1  C   UNL     1       0.289   1.446  -0.069  0.00  0.00    +0.039 A 
ATOM      2  C   UNL     1       1.547   2.048  -0.146  0.00  0.00    +0.013 A 
ATOM      3  C   UNL     1       2.682   1.267  -0.209  0.00  0.00    +0.003 A 
ATOM      4  C   UNL     1       2.581  -0.112  -0.196  0.00  0.00    +0.024 A 
ATOM      5  C   UNL     1       1.334  -0.721  -0.120  0.00  0.00    +0.049 A 
ATOM      6  C   UNL     1       0.186   0.055  -0.057  0.00  0.00    +0.037 A 
ENDROOT
BRANCH   1   8
ATOM      7  N   UNL     1      -0.828   3.624  -0.020  0.00  0.00    -0.280 N 
ATOM      8  C   UNL     1      -0.930   2.280  -0.007  0.00  0.00    +0.248 C 
ATOM      9  O   UNL     1      -2.024   1.754   0.054  0.00  0.00    -0.270 OA
ATOM     10  H   UNL     1       0.046   4.044   0.011  0.00  0.00    +0.155 HD
BRANCH   7  15
ATOM     11  C   UNL     1      -4.291   4.678  -0.673  0.00  0.00    +0.002 A 
ATOM     12  C   UNL     1      -4.270   5.974  -0.191  0.00  0.00    +0.002 A 
ATOM     13  C   UNL     1      -3.110   6.496   0.349  0.00  0.00    +0.025 A 
ATOM     14  C   UNL     1      -1.964   5.718   0.414  0.00  0.00    +0.057 A 
ATOM     15  C   UNL     1      -1.983   4.413  -0.077  0.00  0.00    +0.055 A 
ATOM     16  C   UNL     1      -3.152   3.897  -0.618  0.00  0.00    +0.025 A 
BRANCH  14  17
ATOM     17  N   UNL     1      -0.788   6.243   0.967  0.00  0.00    -0.270 N 
ATOM     18  C   UNL     1       0.241   6.955   0.200  0.00  0.00    +0.114 C 
ATOM     19  C   UNL     1       1.087   7.709   1.252  0.00  0.00    +0.029 C 
ATOM     20  C   UNL     1       0.871   6.838   2.512  0.00  0.00    +0.098 C 
ATOM     21  C   UNL     1      -0.456   6.155   2.266  0.00  0.00    +0.220 C 
ATOM     22  O   UNL     1      -1.124   5.608   3.119  0.00  0.00    -0.275 OA
ENDBRANCH  14  17
ENDBRANCH   7  15
ENDBRANCH   1   8
BRANCH   5  23
ATOM     23  N   UNL     1       1.237  -2.115  -0.109  0.00  0.00    -0.216 N 
ATOM     24  H   UNL     1       0.657  -2.555   0.533  0.00  0.00    +0.174 HD
BRANCH  23  25
ATOM     25  S   UNL     1       2.110  -3.015  -1.190  0.00  0.00    +0.072 S 
ATOM     26  O   UNL     1       3.462  -2.597  -1.068  0.00  0.00    -0.150 OA
ATOM     27  O   UNL     1       1.710  -4.366  -1.010  0.00  0.00    -0.150 OA
BRANCH  25  28
ATOM     28  C   UNL     1       1.582  -2.545  -2.805  0.00  0.00    +0.111 A 
ATOM     29  C   UNL     1       0.471  -3.144  -3.369  0.00  0.00    +0.032 A 
ATOM     30  C   UNL     1       0.052  -2.773  -4.633  0.00  0.00    +0.043 A 
ATOM     31  C   UNL     1       0.751  -1.810  -5.339  0.00  0.00    +0.159 A 
ATOM     32  C   UNL     1       1.868  -1.213  -4.775  0.00  0.00    +0.160 A 
ATOM     33  C   UNL     1       2.282  -1.583  -3.507  0.00  0.00    +0.070 A 
ATOM     34  F   UNL     1       2.552  -0.272  -5.462  0.00  0.00    -0.202 F 
ATOM     35  F   UNL     1       0.345  -1.450  -6.577  0.00  0.00    -0.202 F 
ENDBRANCH  25  28
ENDBRANCH  23  25
ENDBRANCH   5  23
TORSDOF 6
