REMARK  Name = ZINC03364813
REMARK  8 active torsions:
REMARK  status: ('A' for Active; 'I' for Inactive)
REMARK    1  A    between atoms: C_1  and  C_2
REMARK    2  A    between atoms: C_9  and  C_11
REMARK    3  A    between atoms: N_13  and  N_14
REMARK    4  A    between atoms: C_15  and  C_17
REMARK    5  A    between atoms: C_20  and  O_32
REMARK    6  A    between atoms: C_21  and  S_23
REMARK    7  A    between atoms: S_23  and  N_26
REMARK    8  A    between atoms: O_32  and  C_33
REMARK                            x       y       z     vdW  Elec       q    Type
REMARK                         _______ _______ _______ _____ _____    ______ ____
ROOT
ATOM      1  N   UNL     1       3.633   1.766  -0.022  0.00  0.00    -0.230 N 
ATOM      2  C   UNL     1       2.477   1.074  -0.015  0.00  0.00    +0.260 C 
ATOM      3  O   UNL     1       2.496  -0.141  -0.021  0.00  0.00    -0.269 OA
ATOM      4  H   UNL     1       3.618   2.736  -0.017  0.00  0.00    +0.173 HD
ENDROOT
BRANCH   2   5
ATOM      5  C   UNL     1       1.187   1.792   0.000  0.00  0.00    +0.040 A 
ATOM      6  C   UNL     1       1.163   3.189   0.008  0.00  0.00    +0.017 A 
ATOM      7  C   UNL     1      -0.042   3.855   0.022  0.00  0.00    +0.048 A 
ATOM      8  C   UNL     1      -1.234   3.139   0.029  0.00  0.00    +0.146 A 
ATOM      9  C   UNL     1      -1.214   1.749   0.017  0.00  0.00    +0.148 A 
ATOM     10  C   UNL     1      -0.013   1.076   0.008  0.00  0.00    +0.045 A 
BRANCH   9  11
ATOM     11  S   UNL     1      -2.728   0.847   0.020  0.00  0.00    +0.064 S 
ATOM     12  O   UNL     1      -3.540   1.415  -0.999  0.00  0.00    -0.153 OA
ATOM     13  O   UNL     1      -2.380  -0.530   0.037  0.00  0.00    -0.153 OA
BRANCH  11  14
ATOM     14  N   UNL     1      -3.484   1.163   1.459  0.00  0.00    -0.172 NA
ATOM     15  C   UNL     1      -3.247   0.319   2.640  0.00  0.00    +0.137 C 
ATOM     16  C   UNL     1      -2.896   1.237   3.822  0.00  0.00    +0.177 C 
ATOM     17  O   UNL     1      -3.905   2.241   3.952  0.00  0.00    -0.377 OA
ATOM     18  C   UNL     1      -4.013   3.112   2.823  0.00  0.00    +0.177 C 
ATOM     19  C   UNL     1      -4.417   2.293   1.592  0.00  0.00    +0.137 C 
ENDBRANCH  11  14
ENDBRANCH   9  11
BRANCH   8  20
ATOM     20  O   UNL     1      -2.420   3.798   0.043  0.00  0.00    -0.493 OA
ATOM     21  C   UNL     1      -2.368   5.226   0.050  0.00  0.00    +0.277 C 
ENDBRANCH   8  20
ENDBRANCH   2   5
BRANCH   1  24
ATOM     22  C   UNL     1       6.014   1.778  -0.044  0.00  0.00    +0.267 C 
ATOM     23  O   UNL     1       5.995   2.995  -0.038  0.00  0.00    -0.268 OA
ATOM     24  N   UNL     1       4.857   1.085  -0.036  0.00  0.00    -0.230 N 
ATOM     25  H   UNL     1       4.873   0.116  -0.041  0.00  0.00    +0.173 HD
BRANCH  22  33
ATOM     26  C   UNL     1      13.445   0.358  -0.421  0.00  0.00    +0.008 C 
ATOM     27  C   UNL     1      11.970  -0.021  -0.570  0.00  0.00    -0.009 C 
ATOM     28  C   UNL     1      11.678  -1.269   0.268  0.00  0.00    +0.009 C 
ATOM     29  C   UNL     1      10.283  -1.794  -0.098  0.00  0.00    +0.043 C 
ATOM     30  C   UNL     1       9.326  -0.641  -0.085  0.00  0.00    -0.006 A 
ATOM     31  C   UNL     1       9.639   0.688  -0.082  0.00  0.00    -0.036 A 
ATOM     32  C   UNL     1       8.578   1.579  -0.068  0.00  0.00    +0.024 A 
ATOM     33  C   UNL     1       7.295   1.065  -0.059  0.00  0.00    +0.076 A 
ATOM     34  S   UNL     1       7.605  -0.693  -0.062  0.00  0.00    -0.088 S 
ATOM     35  C   UNL     1      11.097   1.141  -0.094  0.00  0.00    +0.039 C 
ENDBRANCH  22  33
ENDBRANCH   1  24
TORSDOF 6
