REMARK  Name = ZINC39634418
REMARK  6 active torsions:
REMARK  status: ('A' for Active; 'I' for Inactive)
REMARK    1  A    between atoms: C_1  and  C_2
REMARK    2  A    between atoms: C_5  and  C_8
REMARK    3  A    between atoms: C_8  and  N_9
REMARK    4  A    between atoms: C_10  and  C_12
REMARK    5  A    between atoms: C_23  and  C_25
REMARK    6  A    between atoms: C_28  and  C_30
REMARK                            x       y       z     vdW  Elec       q    Type
REMARK                         _______ _______ _______ _____ _____    ______ ____
ROOT
ATOM      1  C   UNL     1       3.137  -6.551  -0.051  0.00  0.00    +0.100 C 
ATOM      2  C   UNL     1       3.900  -6.003   1.176  0.00  0.00    +0.121 C 
ATOM      3  N   UNL     1       3.805  -7.081   2.188  0.00  0.00    -0.294 N 
ATOM      4  C   UNL     1       3.966  -8.333   1.411  0.00  0.00    +0.115 C 
ATOM      5  C   UNL     1       3.185  -8.081   0.105  0.00  0.00    -0.004 C 
ATOM      6  C   UNL     1       1.772  -8.645   0.219  0.00  0.00    -0.010 C 
ATOM      7  C   UNL     1       1.844 -10.171   0.316  0.00  0.00    -0.082 C 
ATOM      8  N   UNL     1       2.512 -10.709  -0.875  0.00  0.00    +0.379 N 
ATOM      9  C   UNL     1       3.901 -10.234  -0.927  0.00  0.00    -0.082 C 
ATOM     10  C   UNL     1       3.916  -8.710  -1.077  0.00  0.00    -0.010 C 
ATOM     11  C   UNL     1       3.615  -6.952   3.517  0.00  0.00    +0.282 C 
ATOM     12  O   UNL     1       3.559  -7.942   4.222  0.00  0.00    -0.267 OA
ATOM     13  H   UNL     1       2.504 -11.717  -0.838  0.00  0.00    -0.086 HD
ATOM     14  H   UNL     1       2.022 -10.401  -1.702  0.00  0.00    -0.086 HD
ENDROOT
BRANCH  11  15
ATOM     15  C   UNL     1       3.476  -5.620   4.111  0.00  0.00    +0.190 A 
ATOM     16  C   UNL     1       3.285  -5.347   5.447  0.00  0.00    +0.055 A 
ATOM     17  C   UNL     1       3.207  -3.956   5.568  0.00  0.00    +0.050 A 
ATOM     18  C   UNL     1       3.352  -3.436   4.313  0.00  0.00    +0.136 A 
ATOM     19  O   UNL     1       3.519  -4.447   3.445  0.00  0.00    -0.450 OA
BRANCH  18  20
ATOM     20  C   UNL     1       3.333  -2.000   3.970  0.00  0.00    +0.017 A 
ATOM     21  C   UNL     1       3.162  -1.041   4.971  0.00  0.00    +0.014 A 
ATOM     22  C   UNL     1       3.146   0.298   4.644  0.00  0.00    +0.039 A 
ATOM     23  C   UNL     1       3.300   0.694   3.325  0.00  0.00    +0.123 A 
ATOM     24  C   UNL     1       3.470  -0.253   2.327  0.00  0.00    +0.039 A 
ATOM     25  C   UNL     1       3.494  -1.595   2.643  0.00  0.00    +0.014 A 
ATOM     26  F   UNL     1       3.284   2.008   3.011  0.00  0.00    -0.205 F 
ENDBRANCH  18  20
ENDBRANCH  11  15
BRANCH   1  28
ATOM     27  N   UNL     1       1.041  -5.918  -1.200  0.00  0.00    -0.311 N 
ATOM     28  C   UNL     1       1.710  -6.067  -0.040  0.00  0.00    +0.218 C 
ATOM     29  O   UNL     1       1.164  -5.812   1.012  0.00  0.00    -0.275 OA
ATOM     30  H   UNL     1       1.477  -6.122  -2.042  0.00  0.00    +0.149 HD
BRANCH  27  31
ATOM     31  C   UNL     1      -0.347  -5.448  -1.190  0.00  0.00    +0.139 C 
BRANCH  31  36
ATOM     32  C   UNL     1      -2.321  -5.142  -6.613  0.00  0.00    +0.044 C 
ATOM     33  C   UNL     1      -1.806  -5.222  -5.199  0.00  0.00    -0.050 A 
ATOM     34  C   UNL     1      -1.952  -6.391  -4.475  0.00  0.00    +0.003 A 
ATOM     35  C   UNL     1      -1.480  -6.464  -3.178  0.00  0.00    +0.005 A 
ATOM     36  C   UNL     1      -0.861  -5.369  -2.605  0.00  0.00    -0.030 A 
ATOM     37  C   UNL     1      -0.714  -4.200  -3.329  0.00  0.00    +0.005 A 
ATOM     38  C   UNL     1      -1.182  -4.129  -4.628  0.00  0.00    +0.003 A 
ENDBRANCH  31  36
ENDBRANCH  27  31
ENDBRANCH   1  28
TORSDOF 5
