REMARK  Name = ZINC35674641
REMARK  12 active torsions:
REMARK  status: ('A' for Active; 'I' for Inactive)
REMARK    1  A    between atoms: C_1  and  C_2
REMARK    2  A    between atoms: C_2  and  C_3
REMARK    3  A    between atoms: C_3  and  C_5
REMARK    4  A    between atoms: C_3  and  N_26
REMARK    5  A    between atoms: C_9  and  O_24
REMARK    6  A    between atoms: C_10  and  O_22
REMARK    7  A    between atoms: N_18  and  C_19
REMARK    8  A    between atoms: C_19  and  C_20
REMARK    9  A    between atoms: C_19  and  C_21
REMARK   10  A    between atoms: O_22  and  C_23
REMARK   11  A    between atoms: O_24  and  C_25
REMARK   12  A    between atoms: C_27  and  C_29
REMARK                            x       y       z     vdW  Elec       q    Type
REMARK                         _______ _______ _______ _____ _____    ______ ____
ROOT
ATOM      1  C   UNL     1       0.764  -2.045   1.231  0.00  0.00    +0.128 C 
ATOM      2  C   UNL     1       1.673  -2.531   0.130  0.00  0.00    -0.018 A 
ATOM      3  C   UNL     1       1.240  -2.377  -1.181  0.00  0.00    +0.055 A 
ATOM      4  C   UNL     1       2.031  -2.792  -2.236  0.00  0.00    +0.162 A 
ATOM      5  C   UNL     1       3.272  -3.367  -1.978  0.00  0.00    +0.162 A 
ATOM      6  C   UNL     1       3.697  -3.521  -0.672  0.00  0.00    +0.053 A 
ATOM      7  C   UNL     1       2.896  -3.108   0.386  0.00  0.00    -0.037 A 
ATOM      8  C   UNL     1       3.416  -3.335   1.782  0.00  0.00    +0.054 C 
ATOM      9  C   UNL     1       2.698  -2.432   2.783  0.00  0.00    +0.114 C 
ATOM     10  N   UNL     1       1.253  -2.531   2.526  0.00  0.00    -0.276 N 
ATOM     11  C   UNL     1       0.412  -3.047   3.444  0.00  0.00    +0.303 C 
ATOM     12  O   UNL     1       0.829  -3.360   4.542  0.00  0.00    -0.253 OA
ATOM     13  N   UNL     1      -0.891  -3.218   3.144  0.00  0.00    -0.297 N 
ATOM     14  H   UNL     1      -1.239  -2.901   2.296  0.00  0.00    +0.150 HD
ENDROOT
BRANCH  13  15
ATOM     15  C   UNL     1      -1.782  -3.881   4.100  0.00  0.00    +0.068 C 
ATOM     16  C   UNL     1      -3.221  -3.421   3.858  0.00  0.00    +0.027 C 
ATOM     17  C   UNL     1      -1.692  -5.397   3.913  0.00  0.00    +0.027 C 
ENDBRANCH  13  15
BRANCH   5  18
ATOM     18  O   UNL     1       4.062  -3.775  -3.007  0.00  0.00    -0.491 OA
ATOM     19  C   UNL     1       5.323  -4.356  -2.666  0.00  0.00    +0.277 C 
ENDBRANCH   5  18
BRANCH   4  20
ATOM     20  O   UNL     1       1.599  -2.640  -3.516  0.00  0.00    -0.491 OA
ATOM     21  C   UNL     1       0.314  -2.042  -3.701  0.00  0.00    +0.277 C 
ENDBRANCH   4  20
BRANCH   1  22
ATOM     22  C   UNL     1       0.743  -0.515   1.237  0.00  0.00    +0.098 C 
BRANCH  22  23
ATOM     23  N   UNL     1      -0.004  -0.041   2.404  0.00  0.00    -0.306 N 
ATOM     24  C   UNL     1       0.244   1.182   2.912  0.00  0.00    +0.244 C 
ATOM     25  O   UNL     1       1.087   1.893   2.401  0.00  0.00    -0.270 OA
ATOM     26  H   UNL     1      -0.677  -0.608   2.812  0.00  0.00    +0.149 HD
BRANCH  24  27
ATOM     27  C   UNL     1      -0.510   1.661   4.090  0.00  0.00    +0.037 A 
ATOM     28  C   UNL     1      -1.475   0.845   4.683  0.00  0.00    +0.014 A 
ATOM     29  C   UNL     1      -2.175   1.296   5.782  0.00  0.00    +0.021 A 
ATOM     30  C   UNL     1      -1.921   2.556   6.298  0.00  0.00    +0.041 A 
ATOM     31  C   UNL     1      -0.965   3.370   5.714  0.00  0.00    +0.021 A 
ATOM     32  C   UNL     1      -0.255   2.928   4.618  0.00  0.00    +0.014 A 
ATOM     33 CL   UNL     1      -2.807   3.118   7.681  0.00  0.00    -0.084 Cl
ENDBRANCH  24  27
ENDBRANCH  22  23
BRANCH  22  35
ATOM     34  C   UNL     1       0.057   1.520  -0.040  0.00  0.00    +0.006 C 
ATOM     35  C   UNL     1       0.068  -0.010  -0.040  0.00  0.00    +0.021 C 
ENDBRANCH  22  35
ENDBRANCH   1  22
TORSDOF 7
