REMARK  Name = ZINC39633759
REMARK  4 active torsions:
REMARK  status: ('A' for Active; 'I' for Inactive)
REMARK    1  A    between atoms: C_6  and  C_7
REMARK    2  A    between atoms: C_10  and  C_12
REMARK    3  A    between atoms: C_16  and  C_25
REMARK    4  A    between atoms: N_27  and  C_28
REMARK                            x       y       z     vdW  Elec       q    Type
REMARK                         _______ _______ _______ _____ _____    ______ ____
ROOT
ATOM      1  C   UNL     1      -5.015  -1.059   0.072  0.00  0.00    +0.282 C 
ATOM      2  O   UNL     1      -5.767  -2.016   0.026  0.00  0.00    -0.267 OA
ATOM      3  N   UNL     1      -5.515   0.192   0.045  0.00  0.00    -0.294 N 
ATOM      4  C   UNL     1      -4.765   1.470   0.084  0.00  0.00    +0.121 C 
ATOM      5  C   UNL     1      -5.514   2.392  -0.904  0.00  0.00    +0.100 C 
ATOM      6  C   UNL     1      -6.939   1.818  -0.974  0.00  0.00    -0.004 C 
ATOM      7  C   UNL     1      -6.937   0.601  -0.037  0.00  0.00    +0.115 C 
ATOM      8  C   UNL     1      -7.263   1.379  -2.399  0.00  0.00    -0.010 C 
ATOM      9  C   UNL     1      -8.704   0.865  -2.454  0.00  0.00    -0.082 C 
ATOM     10  N   UNL     1      -9.621   1.929  -2.028  0.00  0.00    +0.379 N 
ATOM     11  C   UNL     1      -9.364   2.281  -0.627  0.00  0.00    -0.082 C 
ATOM     12  C   UNL     1      -7.951   2.854  -0.494  0.00  0.00    -0.010 C 
ATOM     13  H   UNL     1      -9.484   2.742  -2.609  0.00  0.00    -0.086 HD
ATOM     14  H   UNL     1     -10.573   1.608  -2.124  0.00  0.00    -0.086 HD
ENDROOT
BRANCH   1  18
ATOM     15  C   UNL     1      -1.412  -0.865   0.282  0.00  0.00    +0.136 A 
ATOM     16  C   UNL     1      -1.557  -2.223   0.271  0.00  0.00    +0.050 A 
ATOM     17  C   UNL     1      -2.928  -2.488   0.191  0.00  0.00    +0.055 A 
ATOM     18  C   UNL     1      -3.568  -1.269   0.155  0.00  0.00    +0.190 A 
ATOM     19  O   UNL     1      -2.629  -0.301   0.217  0.00  0.00    -0.450 OA
BRANCH  15  25
ATOM     20  C   UNL     1      -0.115   1.259   0.367  0.00  0.00    +0.014 A 
ATOM     21  C   UNL     1       1.086   1.933   0.439  0.00  0.00    +0.039 A 
ATOM     22  C   UNL     1       2.277   1.228   0.502  0.00  0.00    +0.123 A 
ATOM     23  C   UNL     1       2.269  -0.159   0.493  0.00  0.00    +0.039 A 
ATOM     24  C   UNL     1       1.075  -0.843   0.421  0.00  0.00    +0.014 A 
ATOM     25  C   UNL     1      -0.129  -0.137   0.358  0.00  0.00    +0.017 A 
ATOM     26  F   UNL     1       3.451   1.893   0.573  0.00  0.00    -0.205 F 
ENDBRANCH  15  25
ENDBRANCH   1  18
BRANCH   5  27
ATOM     27  C   UNL     1      -5.540   3.807  -0.385  0.00  0.00    +0.218 C 
ATOM     28  O   UNL     1      -5.556   4.014   0.810  0.00  0.00    -0.275 OA
ATOM     29  N   UNL     1      -5.546   4.841  -1.248  0.00  0.00    -0.312 N 
ATOM     30  H   UNL     1      -5.534   4.676  -2.204  0.00  0.00    +0.149 HD
BRANCH  29  31
ATOM     31  C   UNL     1      -5.572   6.216  -0.744  0.00  0.00    +0.073 C 
ATOM     32  C   UNL     1      -7.027   6.595  -0.399  0.00  0.00    +0.022 C 
ATOM     33  C   UNL     1      -7.005   7.752   0.563  0.00  0.00    +0.002 C 
ATOM     34  C   UNL     1      -7.122   9.113  -0.150  0.00  0.00    +0.000 C 
ATOM     35  C   UNL     1      -6.276   9.189  -1.436  0.00  0.00    +0.000 C 
ATOM     36  C   UNL     1      -4.918   8.563  -1.269  0.00  0.00    +0.002 C 
ATOM     37  C   UNL     1      -4.992   7.098  -1.746  0.00  0.00    +0.022 C 
ENDBRANCH  29  31
ENDBRANCH   5  27
TORSDOF 4
