REMARK  Name = ZINC56813690
REMARK  3 active torsions:
REMARK  status: ('A' for Active; 'I' for Inactive)
REMARK    1  A    between atoms: C_2  and  N_7
REMARK    2  A    between atoms: N_10  and  C_11
REMARK    3  A    between atoms: N_20  and  C_22
REMARK                            x       y       z     vdW  Elec       q    Type
REMARK                         _______ _______ _______ _____ _____    ______ ____
ROOT
ATOM      1  C   UNL     1       4.857   5.004  -0.018  0.00  0.00    +0.077 C 
ATOM      2  C   UNL     1       5.381   5.040  -1.455  0.00  0.00    -0.007 C 
ATOM      3  C   UNL     1       6.891   5.251  -1.436  0.00  0.00    +0.003 C 
ATOM      4  C   UNL     1       7.300   6.501  -0.673  0.00  0.00    +0.001 C 
ATOM      5  C   UNL     1       6.608   6.637   0.674  0.00  0.00    +0.003 C 
ATOM      6  C   UNL     1       5.106   6.385   0.593  0.00  0.00    -0.007 C 
ATOM      7  C   UNL     1       4.399   7.457  -0.221  0.00  0.00    -0.073 C 
ATOM      8  N   UNL     1       4.764   7.446  -1.633  0.00  0.00    +0.382 N 
ATOM      9  C   UNL     1       4.672   6.126  -2.249  0.00  0.00    -0.073 C 
ATOM     10  H   UNL     1       5.689   7.827  -1.759  0.00  0.00    -0.081 HD
ENDROOT
BRANCH   1  14
ATOM     11  N   UNL     1       1.701   3.123   0.002  0.00  0.00    -0.267 N 
ATOM     12  C   UNL     1       3.018   3.409  -0.009  0.00  0.00    +0.304 C 
ATOM     13  O   UNL     1       3.836   2.509  -0.021  0.00  0.00    -0.252 OA
ATOM     14  N   UNL     1       3.428   4.693  -0.006  0.00  0.00    -0.296 N 
ATOM     15  H   UNL     1       1.049   3.841   0.012  0.00  0.00    +0.156 HD
ATOM     16  H   UNL     1       2.776   5.411   0.004  0.00  0.00    +0.151 HD
BRANCH  11  18
ATOM     17  C   UNL     1      -0.016   1.354   0.009  0.00  0.00    +0.128 A 
ATOM     18  C   UNL     1       1.272   1.781  -0.001  0.00  0.00    +0.072 A 
ATOM     19  C   UNL     1       2.100   0.650  -0.015  0.00  0.00    +0.157 A 
ATOM     20  N   UNL     1       1.341  -0.416  -0.013  0.00  0.00    -0.180 NA
ATOM     21  N   UNL     1       0.002  -0.004   0.002  0.00  0.00    -0.283 N 
ATOM     22  H   UNL     1      -0.774  -0.586   0.006  0.00  0.00    +0.188 HD
ENDBRANCH  11  18
ENDBRANCH   1  14
BRANCH   8  23
ATOM     23  C   UNL     1       3.848   8.345  -2.347  0.00  0.00    -0.069 C 
ATOM     24  C   UNL     1       4.467   9.410  -3.254  0.00  0.00    -0.017 C 
ATOM     25  C   UNL     1       3.828   9.815  -1.924  0.00  0.00    -0.017 C 
ENDBRANCH   8  23
TORSDOF 3
