REMARK  Name = ZINC32974761
REMARK  11 active torsions:
REMARK  status: ('A' for Active; 'I' for Inactive)
REMARK    1  A    between atoms: C_1  and  C_2
REMARK    2  A    between atoms: C_5  and  C_8
REMARK    3  A    between atoms: C_10  and  C_13
REMARK    4  A    between atoms: N_15  and  C_18
REMARK    5  A    between atoms: C_18  and  C_19
REMARK    6  A    between atoms: C_22  and  N_25
REMARK    7  A    between atoms: N_25  and  S_26
REMARK    8  A    between atoms: S_26  and  C_29
REMARK    9  A    between atoms: C_30  and  C_37
REMARK   10  A    between atoms: C_32  and  C_36
REMARK   11  A    between atoms: C_34  and  C_35
REMARK                            x       y       z     vdW  Elec       q    Type
REMARK                         _______ _______ _______ _____ _____    ______ ____
ROOT
ATOM      1  C   UNL     1       7.469   2.470  -1.063  0.00  0.00    -0.028 A 
ATOM      2  C   UNL     1       8.390   1.816  -1.860  0.00  0.00    +0.007 A 
ATOM      3  C   UNL     1       8.553   2.191  -3.180  0.00  0.00    +0.025 A 
ATOM      4  C   UNL     1       7.798   3.233  -3.703  0.00  0.00    +0.048 A 
ATOM      5  C   UNL     1       6.877   3.891  -2.897  0.00  0.00    +0.025 A 
ATOM      6  C   UNL     1       6.716   3.508  -1.581  0.00  0.00    +0.007 A 
ENDROOT
BRANCH   4   7
ATOM      7  N   UNL     1       7.964   3.617  -5.035  0.00  0.00    -0.216 N 
ATOM      8  H   UNL     1       7.084   3.787  -5.673  0.00  0.00    +0.174 HD
BRANCH   7   9
ATOM      9  S   UNL     1       9.486   3.818  -5.655  0.00  0.00    +0.073 S 
ATOM     10  O   UNL     1       9.323   4.225  -7.007  0.00  0.00    -0.150 OA
ATOM     11  O   UNL     1      10.211   4.592  -4.710  0.00  0.00    -0.150 OA
BRANCH   9  12
ATOM     12  C   UNL     1      10.247   2.230  -5.696  0.00  0.00    +0.114 A 
ATOM     13  C   UNL     1      11.309   1.950  -4.856  0.00  0.00    -0.023 A 
ATOM     14  C   UNL     1      11.902   0.702  -4.884  0.00  0.00    +0.008 A 
ATOM     15  C   UNL     1      11.440  -0.263  -5.758  0.00  0.00    -0.050 A 
ATOM     16  C   UNL     1      10.382   0.018  -6.602  0.00  0.00    +0.008 A 
ATOM     17  C   UNL     1       9.785   1.264  -6.571  0.00  0.00    -0.023 A 
ATOM     18  C   UNL     1       8.631   1.571  -7.490  0.00  0.00    +0.046 C 
ATOM     19  C   UNL     1      12.090  -1.623  -5.792  0.00  0.00    +0.044 C 
ATOM     20  C   UNL     1      11.816   3.005  -3.906  0.00  0.00    +0.046 C 
ENDBRANCH   9  12
ENDBRANCH   7   9
ENDBRANCH   4   7
BRANCH   1  21
ATOM     21  C   UNL     1       7.290   2.055   0.374  0.00  0.00    +0.157 C 
BRANCH  21  24
ATOM     22  C   UNL     1       4.331   0.001   0.654  0.00  0.00    +0.146 A 
ATOM     23  C   UNL     1       4.919   1.230   0.627  0.00  0.00    +0.120 A 
ATOM     24  N   UNL     1       6.255   1.021   0.459  0.00  0.00    -0.332 N 
ATOM     25  C   UNL     1       6.451  -0.320   0.377  0.00  0.00    +0.200 A 
ATOM     26  N   UNL     1       5.303  -0.923   0.493  0.00  0.00    -0.231 NA
BRANCH  22  29
ATOM     27  C   UNL     1       0.995  -1.213   1.017  0.00  0.00    +0.202 A 
ATOM     28  N   UNL     1       2.310  -1.458   0.843  0.00  0.00    -0.186 NA
ATOM     29  C   UNL     1       2.890  -0.271   0.821  0.00  0.00    +0.279 A 
ATOM     30  O   UNL     1       1.917   0.640   0.981  0.00  0.00    -0.331 OA
ATOM     31  N   UNL     1       0.845   0.085   1.090  0.00  0.00    -0.056 NA
BRANCH  27  36
ATOM     32  C   UNL     1      -3.190  -5.154   1.371  0.00  0.00    +0.044 C 
ATOM     33  C   UNL     1      -2.095  -4.123   1.278  0.00  0.00    -0.050 A 
ATOM     34  C   UNL     1      -2.405  -2.778   1.373  0.00  0.00    +0.004 A 
ATOM     35  C   UNL     1      -1.406  -1.830   1.289  0.00  0.00    +0.012 A 
ATOM     36  C   UNL     1      -0.084  -2.229   1.108  0.00  0.00    +0.022 A 
ATOM     37  C   UNL     1       0.222  -3.584   1.007  0.00  0.00    +0.012 A 
ATOM     38  C   UNL     1      -0.784  -4.525   1.098  0.00  0.00    +0.004 A 
ENDBRANCH  27  36
ENDBRANCH  22  29
ENDBRANCH  21  24
ENDBRANCH   1  21
TORSDOF 7
