REMARK  Name = ZINC17746827
REMARK  8 active torsions:
REMARK  status: ('A' for Active; 'I' for Inactive)
REMARK    1  A    between atoms: C_1  and  C_2
REMARK    2  A    between atoms: C_5  and  S_8
REMARK    3  A    between atoms: S_8  and  N_11
REMARK    4  A    between atoms: C_12  and  C_31
REMARK    5  A    between atoms: N_15  and  C_16
REMARK    6  A    between atoms: C_17  and  C_29
REMARK    7  A    between atoms: N_18  and  C_28
REMARK    8  A    between atoms: N_19  and  C_22
REMARK                            x       y       z     vdW  Elec       q    Type
REMARK                         _______ _______ _______ _____ _____    ______ ____
ROOT
ATOM      1  N   UNL     1       3.567  -6.441  -1.498  0.00  0.00    -0.113 NA
ATOM      2  C   UNL     1       2.470  -5.815  -1.181  0.00  0.00    +0.153 C 
ATOM      3  N   UNL     1       1.294  -6.521  -1.021  0.00  0.00    -0.277 N 
ATOM      4  C   UNL     1       0.096  -5.970  -1.433  0.00  0.00    +0.171 C 
ATOM      5  N   UNL     1      -1.032  -6.580  -1.166  0.00  0.00    -0.218 NA
ATOM      6  S   UNL     1       0.086  -4.448  -2.320  0.00  0.00    -0.014 SA
ATOM      7  H   UNL     1       1.309  -7.404  -0.619  0.00  0.00    +0.156 HD
ENDROOT
BRANCH   5   8
ATOM      8  C   UNL     1      -2.215  -6.091  -1.671  0.00  0.00    +0.153 A 
ATOM      9  C   UNL     1      -2.726  -6.330  -2.907  0.00  0.00    +0.064 A 
ATOM     10  N   UNL     1      -3.919  -5.664  -3.021  0.00  0.00    -0.282 N 
ATOM     11  N   UNL     1      -4.182  -4.979  -1.829  0.00  0.00    -0.215 N 
ATOM     12  C   UNL     1      -3.167  -5.217  -0.973  0.00  0.00    +0.298 A 
ATOM     13  O   UNL     1      -3.060  -4.788   0.161  0.00  0.00    -0.264 OA
ATOM     14  C   UNL     1      -4.782  -5.668  -4.205  0.00  0.00    +0.171 C 
ATOM     15  C   UNL     1      -2.089  -7.184  -3.973  0.00  0.00    +0.067 C 
BRANCH  11  16
ATOM     16  C   UNL     1      -5.306  -4.189  -1.569  0.00  0.00    +0.067 A 
ATOM     17  C   UNL     1      -6.577  -4.676  -1.843  0.00  0.00    +0.028 A 
ATOM     18  C   UNL     1      -7.685  -3.893  -1.584  0.00  0.00    +0.002 A 
ATOM     19  C   UNL     1      -7.529  -2.625  -1.053  0.00  0.00    +0.000 A 
ATOM     20  C   UNL     1      -6.265  -2.138  -0.780  0.00  0.00    +0.002 A 
ATOM     21  C   UNL     1      -5.153  -2.918  -1.031  0.00  0.00    +0.028 A 
ENDBRANCH  11  16
ENDBRANCH   5   8
BRANCH   2  22
ATOM     22  C   UNL     1       2.483  -4.347  -0.992  0.00  0.00    +0.017 A 
ATOM     23  C   UNL     1       1.408  -3.711  -0.371  0.00  0.00    +0.011 A 
ATOM     24  C   UNL     1       1.427  -2.342  -0.197  0.00  0.00    +0.001 A 
ATOM     25  C   UNL     1       2.509  -1.601  -0.638  0.00  0.00    +0.000 A 
ATOM     26  C   UNL     1       3.577  -2.225  -1.256  0.00  0.00    +0.001 A 
ATOM     27  C   UNL     1       3.573  -3.594  -1.429  0.00  0.00    +0.011 A 
ENDBRANCH   2  22
BRANCH   1  28
ATOM     28  S   UNL     1       3.527  -8.061  -1.840  0.00  0.00    +0.100 S 
ATOM     29  O   UNL     1       2.678  -8.217  -2.968  0.00  0.00    -0.146 OA
ATOM     30  O   UNL     1       3.289  -8.729  -0.609  0.00  0.00    -0.146 OA
BRANCH  28  35
ATOM     31  C   UNL     1       9.069  -9.648  -3.620  0.00  0.00    +0.044 C 
ATOM     32  C   UNL     1       7.685  -9.252  -3.176  0.00  0.00    -0.050 A 
ATOM     33  C   UNL     1       7.344  -9.315  -1.837  0.00  0.00    +0.005 A 
ATOM     34  C   UNL     1       6.074  -8.951  -1.429  0.00  0.00    +0.029 A 
ATOM     35  C   UNL     1       5.146  -8.523  -2.360  0.00  0.00    +0.113 A 
ATOM     36  C   UNL     1       5.487  -8.459  -3.698  0.00  0.00    +0.029 A 
ATOM     37  C   UNL     1       6.757  -8.819  -4.105  0.00  0.00    +0.005 A 
ENDBRANCH  28  35
ENDBRANCH   1  28
TORSDOF 5
