REMARK  Name = ZINC45829534
REMARK  6 active torsions:
REMARK  status: ('A' for Active; 'I' for Inactive)
REMARK    1  A    between atoms: C_3  and  N_20
REMARK    2  A    between atoms: C_6  and  C_7
REMARK    3  A    between atoms: N_9  and  C_10
REMARK    4  A    between atoms: C_13  and  C_16
REMARK    5  A    between atoms: C_21  and  C_23
REMARK    6  A    between atoms: C_23  and  C_24
REMARK                            x       y       z     vdW  Elec       q    Type
REMARK                         _______ _______ _______ _____ _____    ______ ____
ROOT
ATOM      1  C   UNL     1       0.999   1.386  -0.063  0.00  0.00    +0.015 A 
ATOM      2  C   UNL     1       2.292   1.859  -0.070  0.00  0.00    +0.024 A 
ATOM      3  C   UNL     1       3.360   0.971   0.003  0.00  0.00    +0.033 A 
ATOM      4  C   UNL     1       3.126  -0.398   0.084  0.00  0.00    +0.024 A 
ATOM      5  C   UNL     1       1.836  -0.878   0.092  0.00  0.00    +0.015 A 
ATOM      6  C   UNL     1       0.760   0.011   0.018  0.00  0.00    +0.037 A 
ENDROOT
BRANCH   6   7
ATOM      7  C   UNL     1      -0.624  -0.499   0.027  0.00  0.00    +0.248 C 
ATOM      8  O   UNL     1      -1.559   0.276  -0.037  0.00  0.00    -0.270 OA
ATOM      9  N   UNL     1      -0.853  -1.825   0.105  0.00  0.00    -0.282 N 
ATOM     10  H   UNL     1      -0.112  -2.438   0.234  0.00  0.00    +0.155 HD
BRANCH   9  11
ATOM     11  C   UNL     1      -2.158  -2.317   0.001  0.00  0.00    +0.034 A 
ATOM     12  C   UNL     1      -2.545  -3.426   0.743  0.00  0.00    +0.024 A 
ATOM     13  C   UNL     1      -3.834  -3.910   0.637  0.00  0.00    +0.014 A 
ATOM     14  C   UNL     1      -4.739  -3.291  -0.205  0.00  0.00    +0.055 A 
ATOM     15  C   UNL     1      -4.357  -2.186  -0.944  0.00  0.00    +0.014 A 
ATOM     16  C   UNL     1      -3.071  -1.694  -0.839  0.00  0.00    +0.024 A 
BRANCH  14  17
ATOM     17  C   UNL     1      -6.145  -3.821  -0.318  0.00  0.00    +0.417 C 
ATOM     18  F   UNL     1      -6.958  -3.195   0.634  0.00  0.00    -0.166 F 
ATOM     19  F   UNL     1      -6.641  -3.559  -1.599  0.00  0.00    -0.166 F 
ATOM     20  F   UNL     1      -6.142  -5.202  -0.092  0.00  0.00    -0.166 F 
ENDBRANCH  14  17
ENDBRANCH   9  11
ENDBRANCH   6   7
BRANCH   3  21
ATOM     21  N   UNL     1       4.668   1.454  -0.005  0.00  0.00    -0.285 N 
ATOM     22  C   UNL     1       4.980   2.542  -0.735  0.00  0.00    +0.219 C 
ATOM     23  O   UNL     1       4.148   3.045  -1.461  0.00  0.00    -0.275 OA
ATOM     24  H   UNL     1       5.354   1.006   0.515  0.00  0.00    +0.155 HD
BRANCH  22  25
ATOM     25  C   UNL     1       6.363   3.135  -0.651  0.00  0.00    +0.120 C 
BRANCH  25  26
ATOM     26  C   UNL     1       6.452   4.354  -1.572  0.00  0.00    +0.150 C 
ATOM     27  C   UNL     1       7.842   4.981  -1.533  0.00  0.00    +0.252 C 
ATOM     28  O   UNL     1       8.851   4.403  -1.887  0.00  0.00    -0.272 OA
ATOM     29  N   UNL     1       7.832   6.209  -1.079  0.00  0.00    -0.158 NA
ATOM     30  C   UNL     1       6.743   6.848  -0.693  0.00  0.00    +0.150 C 
ATOM     31  S   UNL     1       5.471   5.766  -0.916  0.00  0.00    -0.080 S 
ATOM     32  N   UNL     1       6.664   8.122  -0.212  0.00  0.00    -0.312 N 
ATOM     33  C   UNL     1       5.432   8.801   0.216  0.00  0.00    +0.107 C 
ATOM     34  C   UNL     1       5.825  10.227   0.656  0.00  0.00    +0.020 C 
ATOM     35  C   UNL     1       7.170  10.460  -0.081  0.00  0.00    +0.020 C 
ATOM     36  C   UNL     1       7.800   9.043  -0.030  0.00  0.00    +0.107 C 
ENDBRANCH  25  26
ENDBRANCH  22  25
ENDBRANCH   3  21
TORSDOF 6
