REMARK  Name = ZINC64055351
REMARK  6 active torsions:
REMARK  status: ('A' for Active; 'I' for Inactive)
REMARK    1  A    between atoms: C_4  and  C_7
REMARK    2  A    between atoms: C_10  and  N_13
REMARK    3  A    between atoms: C_14  and  C_16
REMARK    4  A    between atoms: C_16  and  S_17
REMARK    5  A    between atoms: S_17  and  C_18
REMARK    6  A    between atoms: C_22  and  C_24
REMARK                            x       y       z     vdW  Elec       q    Type
REMARK                         _______ _______ _______ _____ _____    ______ ____
ROOT
ATOM      1  C   UNL     1       8.682  -4.785   0.103  0.00  0.00    +0.170 C 
ENDROOT
BRANCH   1   3
ATOM      2  N   UNL     1       7.341  -2.716  -0.083  0.00  0.00    -0.285 N 
ATOM      3  C   UNL     1       7.365  -4.060   0.006  0.00  0.00    +0.227 C 
ATOM      4  O   UNL     1       6.326  -4.687   0.008  0.00  0.00    -0.275 OA
ATOM      5  H   UNL     1       8.171  -2.220  -0.162  0.00  0.00    +0.155 HD
BRANCH   2   9
ATOM      6  C   UNL     1       3.699  -0.687  -0.020  0.00  0.00    -0.018 A 
ATOM      7  C   UNL     1       3.858  -1.860   0.717  0.00  0.00    +0.010 A 
ATOM      8  C   UNL     1       5.064  -2.529   0.695  0.00  0.00    +0.024 A 
ATOM      9  C   UNL     1       6.120  -2.035  -0.062  0.00  0.00    +0.033 A 
ATOM     10  C   UNL     1       5.963  -0.867  -0.797  0.00  0.00    +0.024 A 
ATOM     11  C   UNL     1       4.758  -0.197  -0.783  0.00  0.00    +0.010 A 
BRANCH   6  15
ATOM     12  C   UNL     1      -0.015   1.381   0.044  0.00  0.00    +0.000 A 
ATOM     13  C   UNL     1       0.140   0.221   0.781  0.00  0.00    +0.001 A 
ATOM     14  C   UNL     1       1.344  -0.455   0.764  0.00  0.00    +0.008 A 
ATOM     15  C   UNL     1       2.403   0.034   0.002  0.00  0.00    -0.018 A 
ATOM     16  C   UNL     1       2.241   1.203  -0.739  0.00  0.00    +0.008 A 
ATOM     17  C   UNL     1       1.033   1.871  -0.714  0.00  0.00    +0.001 A 
ENDBRANCH   6  15
ENDBRANCH   2   9
ENDBRANCH   1   3
BRANCH   1  18
ATOM     18  S   UNL     1       8.383  -6.572   0.209  0.00  0.00    -0.087 S 
BRANCH  18  19
ATOM     19  C   UNL     1      10.045  -7.289   0.319  0.00  0.00    +0.339 C 
ATOM     20  N   UNL     1      10.850  -6.905  -0.854  0.00  0.00    -0.219 N 
ATOM     21  N   UNL     1      11.937  -6.181  -0.343  0.00  0.00    -0.145 NA
ATOM     22  C   UNL     1      11.854  -6.105   0.959  0.00  0.00    +0.238 C 
ATOM     23  O   UNL     1      10.755  -6.741   1.438  0.00  0.00    -0.443 OA
ATOM     24  H   UNL     1      10.666  -7.111  -1.784  0.00  0.00    +0.173 HD
BRANCH  22  25
ATOM     25  C   UNL     1      12.791  -5.444   1.766  0.00  0.00    +0.043 C 
ATOM     26  C   UNL     1      13.937  -4.767   1.347  0.00  0.00    +0.008 A 
ATOM     27  C   UNL     1      14.496  -4.537   0.071  0.00  0.00    +0.010 A 
ATOM     28  C   UNL     1      15.648  -3.827  -0.041  0.00  0.00    +0.001 A 
ATOM     29  C   UNL     1      16.303  -3.313   1.080  0.00  0.00    +0.002 A 
ATOM     30  C   UNL     1      15.823  -3.496   2.335  0.00  0.00    +0.026 A 
ATOM     31  C   UNL     1      14.623  -4.227   2.532  0.00  0.00    +0.043 A 
ATOM     32  N   UNL     1      13.961  -4.538   3.629  0.00  0.00    -0.380 N 
ATOM     33  C   UNL     1      12.768  -5.311   3.272  0.00  0.00    +0.154 C 
ATOM     34  H   UNL     1      14.222  -4.292   4.530  0.00  0.00    +0.160 HD
ENDBRANCH  22  25
ENDBRANCH  18  19
ENDBRANCH   1  18
TORSDOF 6
