REMARK  Name = ZINC66678629
REMARK  8 active torsions:
REMARK  status: ('A' for Active; 'I' for Inactive)
REMARK    1  A    between atoms: C_1  and  C_2
REMARK    2  A    between atoms: C_2  and  C_3
REMARK    3  A    between atoms: C_2  and  O_4
REMARK    4  A    between atoms: O_4  and  C_5
REMARK    5  A    between atoms: C_10  and  N_11
REMARK    6  A    between atoms: C_12  and  C_14
REMARK    7  A    between atoms: C_18  and  N_20
REMARK    8  A    between atoms: N_23  and  C_24
REMARK                            x       y       z     vdW  Elec       q    Type
REMARK                         _______ _______ _______ _____ _____    ______ ____
ROOT
ATOM      1  N   UNL     1      -3.881  -1.378  -0.196  0.00  0.00    -0.278 N 
ATOM      2  C   UNL     1      -5.124  -1.897  -0.213  0.00  0.00    +0.248 C 
ATOM      3  O   UNL     1      -5.348  -2.920  -0.831  0.00  0.00    -0.270 OA
ATOM      4  H   UNL     1      -3.716  -0.529   0.243  0.00  0.00    +0.155 HD
ENDROOT
BRANCH   1  10
ATOM      5  C   UNL     1      -1.545  -2.008  -0.270  0.00  0.00    +0.142 A 
ATOM      6  C   UNL     1      -0.507  -2.693  -0.880  0.00  0.00    +0.050 A 
ATOM      7  C   UNL     1      -0.742  -3.426  -2.028  0.00  0.00    +0.042 A 
ATOM      8  C   UNL     1      -2.014  -3.478  -2.572  0.00  0.00    +0.125 A 
ATOM      9  C   UNL     1      -3.056  -2.796  -1.968  0.00  0.00    +0.065 A 
ATOM     10  C   UNL     1      -2.827  -2.064  -0.812  0.00  0.00    +0.079 A 
ATOM     11  F   UNL     1      -2.239  -4.196  -3.695  0.00  0.00    -0.205 F 
BRANCH   5  12
ATOM     12  O   UNL     1      -1.315  -1.286   0.860  0.00  0.00    -0.488 OA
BRANCH  12  14
ATOM     13  C   UNL     1       0.258   0.203   1.932  0.00  0.00    +0.051 C 
ATOM     14  C   UNL     1       0.044  -1.169   1.288  0.00  0.00    +0.167 C 
ATOM     15  C   UNL     1       0.353  -2.265   2.309  0.00  0.00    +0.051 C 
ENDBRANCH  12  14
ENDBRANCH   5  12
ENDBRANCH   1  10
BRANCH   2  16
ATOM     16  C   UNL     1      -6.217  -1.223   0.521  0.00  0.00    +0.039 A 
ATOM     17  C   UNL     1      -5.964  -0.046   1.227  0.00  0.00    +0.013 A 
ATOM     18  C   UNL     1      -6.985   0.581   1.911  0.00  0.00    +0.003 A 
ATOM     19  C   UNL     1      -8.261   0.047   1.900  0.00  0.00    +0.023 A 
ATOM     20  C   UNL     1      -8.522  -1.124   1.200  0.00  0.00    +0.035 A 
ATOM     21  C   UNL     1      -7.505  -1.759   0.505  0.00  0.00    +0.036 A 
BRANCH  20  22
ATOM     22  N   UNL     1      -9.815  -1.661   1.193  0.00  0.00    -0.269 N 
ATOM     23  C   UNL     1      -9.990  -2.998   1.173  0.00  0.00    +0.304 C 
ATOM     24  O   UNL     1      -9.030  -3.737   1.266  0.00  0.00    -0.253 OA
ATOM     25  N   UNL     1     -11.229  -3.513   1.052  0.00  0.00    -0.296 N 
ATOM     26  H   UNL     1     -10.585  -1.071   1.201  0.00  0.00    +0.156 HD
ATOM     27  H   UNL     1     -11.995  -2.923   0.979  0.00  0.00    +0.151 HD
BRANCH  25  28
ATOM     28  C   UNL     1     -11.419  -4.966   1.032  0.00  0.00    +0.075 C 
ATOM     29  C   UNL     1     -12.389  -5.537  -0.004  0.00  0.00    +0.024 C 
ATOM     30  C   UNL     1     -12.780  -5.507   1.475  0.00  0.00    +0.024 C 
ENDBRANCH  25  28
ENDBRANCH  20  22
ENDBRANCH   2  16
TORSDOF 6
