REMARK  Name = ZINC38653209
REMARK  8 active torsions:
REMARK  status: ('A' for Active; 'I' for Inactive)
REMARK    1  A    between atoms: C_6  and  C_7
REMARK    2  A    between atoms: C_12  and  O_21
REMARK    3  A    between atoms: C_16  and  N_20
REMARK    4  A    between atoms: C_17  and  C_18
REMARK    5  A    between atoms: O_21  and  C_22
REMARK    6  A    between atoms: C_22  and  C_24
REMARK    7  A    between atoms: C_24  and  O_25
REMARK    8  A    between atoms: O_25  and  C_26
REMARK                            x       y       z     vdW  Elec       q    Type
REMARK                         _______ _______ _______ _____ _____    ______ ____
ROOT
ATOM      1  C   UNL     1      -1.254  -0.819   0.037  0.00  0.00    +0.098 C 
ATOM      2  C   UNL     1      -1.344  -1.660  -1.208  0.00  0.00    +0.008 A 
ATOM      3  C   UNL     1      -1.752  -1.077  -2.395  0.00  0.00    +0.012 A 
ATOM      4  C   UNL     1      -1.840  -1.833  -3.547  0.00  0.00    +0.047 A 
ATOM      5  C   UNL     1      -1.520  -3.183  -3.518  0.00  0.00    +0.135 A 
ATOM      6  C   UNL     1      -1.111  -3.770  -2.331  0.00  0.00    +0.093 A 
ATOM      7  C   UNL     1      -1.022  -3.008  -1.173  0.00  0.00    +0.138 A 
ATOM      8  O   UNL     1      -0.621  -3.597  -0.020  0.00  0.00    -0.441 OA
ATOM      9  C   UNL     1      -0.890  -3.013   1.160  0.00  0.00    +0.199 C 
ATOM     10  C   UNL     1      -1.196  -1.701   1.253  0.00  0.00    +0.098 C 
ENDROOT
BRANCH   1  16
ATOM     11  C   UNL     1      -0.115   1.409   0.007  0.00  0.00    +0.007 A 
ATOM     12  C   UNL     1       1.024   2.190  -0.049  0.00  0.00    +0.038 A 
ATOM     13  C   UNL     1       2.270   1.591  -0.134  0.00  0.00    +0.123 A 
ATOM     14  C   UNL     1       2.372   0.210  -0.164  0.00  0.00    +0.038 A 
ATOM     15  C   UNL     1       1.232  -0.568  -0.108  0.00  0.00    +0.007 A 
ATOM     16  C   UNL     1      -0.011   0.031  -0.023  0.00  0.00    -0.034 A 
ATOM     17  F   UNL     1       3.384   2.353  -0.188  0.00  0.00    -0.205 F 
ENDBRANCH   1  16
BRANCH   9  18
ATOM     18  N   UNL     1      -0.852  -3.772   2.303  0.00  0.00    -0.328 N 
ATOM     19  H   UNL     1      -0.634  -4.716   2.251  0.00  0.00    +0.145 HD
ATOM     20  H   UNL     1      -1.044  -3.365   3.162  0.00  0.00    +0.145 HD
ENDBRANCH   9  18
BRANCH  10  21
ATOM     21  C   UNL     1      -1.471  -1.139   2.541  0.00  0.00    +0.101 C 
ATOM     22  N   UNL     1      -1.689  -0.693   3.563  0.00  0.00    -0.191 NA
ENDBRANCH  10  21
BRANCH   5  23
ATOM     23  O   UNL     1      -1.607  -3.929  -4.651  0.00  0.00    -0.423 OA
BRANCH  23  24
ATOM     24  C   UNL     1      -2.572  -4.859  -4.721  0.00  0.00    +0.350 C 
ATOM     25  O   UNL     1      -3.395  -4.943  -3.840  0.00  0.00    -0.247 OA
BRANCH  24  26
ATOM     26  C   UNL     1      -2.631  -5.797  -5.899  0.00  0.00    +0.350 C 
BRANCH  26  27
ATOM     27  O   UNL     1      -3.739  -6.687  -5.744  0.00  0.00    -0.475 OA
BRANCH  27  28
ATOM     28  C   UNL     1      -3.935  -7.605  -6.729  0.00  0.00    +0.197 A 
ATOM     29  C   UNL     1      -4.736  -7.295  -7.819  0.00  0.00    +0.206 A 
ATOM     30  C   UNL     1      -4.934  -8.231  -8.820  0.00  0.00    +0.200 A 
ATOM     31  C   UNL     1      -4.334  -9.477  -8.735  0.00  0.00    +0.199 A 
ATOM     32  C   UNL     1      -3.534  -9.788  -7.646  0.00  0.00    +0.200 A 
ATOM     33  C   UNL     1      -3.329  -8.851  -6.646  0.00  0.00    +0.206 A 
ATOM     34  F   UNL     1      -2.545  -9.153  -5.588  0.00  0.00    -0.198 F 
ATOM     35  F   UNL     1      -2.950 -11.003  -7.564  0.00  0.00    -0.199 F 
ATOM     36  F   UNL     1      -4.528 -10.389  -9.712  0.00  0.00    -0.199 F 
ATOM     37  F   UNL     1      -5.715  -7.929  -9.881  0.00  0.00    -0.199 F 
ATOM     38  F   UNL     1      -5.322  -6.080  -7.902  0.00  0.00    -0.198 F 
ENDBRANCH  27  28
ENDBRANCH  26  27
ENDBRANCH  24  26
ENDBRANCH  23  24
ENDBRANCH   5  23
TORSDOF 8
