REMARK  Name = ZINC35303136
REMARK  8 active torsions:
REMARK  status: ('A' for Active; 'I' for Inactive)
REMARK    1  A    between atoms: C_1  and  C_2
REMARK    2  A    between atoms: C_2  and  C_3
REMARK    3  A    between atoms: C_3  and  C_5
REMARK    4  A    between atoms: C_3  and  C_6
REMARK    5  A    between atoms: C_6  and  C_8
REMARK    6  A    between atoms: C_6  and  N_25
REMARK    7  A    between atoms: C_14  and  C_16
REMARK    8  A    between atoms: N_28  and  C_29
REMARK                            x       y       z     vdW  Elec       q    Type
REMARK                         _______ _______ _______ _____ _____    ______ ____
ROOT
ATOM      1  C   UNL     1      -1.421  -2.075  -0.127  0.00  0.00    +0.163 C 
ENDROOT
BRANCH   1   2
ATOM      2  C   UNL     1      -0.759  -2.467  -1.423  0.00  0.00    +0.239 C 
ATOM      3  O   UNL     1       0.236  -3.159  -1.410  0.00  0.00    -0.273 OA
ATOM      4  N   UNL     1      -1.274  -2.049  -2.596  0.00  0.00    -0.262 N 
ATOM      5  C   UNL     1      -0.663  -2.410  -3.791  0.00  0.00    +0.188 A 
ATOM      6  N   UNL     1       0.414  -3.154  -4.007  0.00  0.00    -0.125 NA
ATOM      7  N   UNL     1       0.840  -3.389  -5.170  0.00  0.00    -0.140 NA
ATOM      8  C   UNL     1       0.235  -2.905  -6.249  0.00  0.00    +0.134 A 
ATOM      9  S   UNL     1      -1.111  -2.011  -5.478  0.00  0.00    -0.030 S 
ATOM     10  H   UNL     1      -2.070  -1.495  -2.606  0.00  0.00    +0.157 HD
BRANCH   8  11
ATOM     11  C   UNL     1       0.574  -3.064  -7.679  0.00  0.00    +0.013 A 
ATOM     12  C   UNL     1      -0.211  -2.451  -8.656  0.00  0.00    +0.014 A 
ATOM     13  C   UNL     1       0.106  -2.600  -9.990  0.00  0.00    +0.050 A 
ATOM     14  C   UNL     1       1.206  -3.358 -10.365  0.00  0.00    +0.166 A 
ATOM     15  C   UNL     1       1.995  -3.973  -9.394  0.00  0.00    +0.167 A 
ATOM     16  C   UNL     1       1.684  -3.822  -8.055  0.00  0.00    +0.060 A 
ATOM     17  O   UNL     1       3.003  -4.651 -10.016  0.00  0.00    -0.453 OA
ATOM     18  C   UNL     1       2.587  -4.784 -11.388  0.00  0.00    +0.466 C 
ATOM     19  O   UNL     1       1.722  -3.652 -11.595  0.00  0.00    -0.453 OA
ENDBRANCH   8  11
ENDBRANCH   1   2
BRANCH   1  20
ATOM     20  N   UNL     1      -0.677  -2.651   0.996  0.00  0.00    -0.288 N 
ATOM     21  C   UNL     1      -1.298  -2.881   2.169  0.00  0.00    +0.304 C 
ATOM     22  O   UNL     1      -2.477  -2.612   2.296  0.00  0.00    -0.252 OA
ATOM     23  N   UNL     1      -0.613  -3.411   3.202  0.00  0.00    -0.269 N 
ATOM     24  H   UNL     1       0.264  -2.866   0.894  0.00  0.00    +0.151 HD
ATOM     25  H   UNL     1       0.309  -3.687   3.082  0.00  0.00    +0.156 HD
BRANCH  23  26
ATOM     26  C   UNL     1      -1.231  -3.563   4.445  0.00  0.00    +0.042 A 
ATOM     27  C   UNL     1      -2.571  -3.876   4.522  0.00  0.00    +0.024 A 
ATOM     28  C   UNL     1      -3.196  -4.029   5.756  0.00  0.00    +0.002 A 
ATOM     29  C   UNL     1      -2.504  -3.873   6.918  0.00  0.00    +0.008 A 
ATOM     30  C   UNL     1      -1.136  -3.554   6.884  0.00  0.00    -0.016 A 
ATOM     31  C   UNL     1      -0.487  -3.402   5.633  0.00  0.00    +0.003 A 
ATOM     32  C   UNL     1       0.880  -3.088   5.600  0.00  0.00    +0.010 A 
ATOM     33  C   UNL     1       1.567  -2.941   6.767  0.00  0.00    +0.001 A 
ATOM     34  C   UNL     1       0.931  -3.097   7.997  0.00  0.00    +0.001 A 
ATOM     35  C   UNL     1      -0.397  -3.388   8.068  0.00  0.00    +0.008 A 
ENDBRANCH  23  26
ENDBRANCH   1  20
BRANCH   1  36
ATOM     36  C   UNL     1      -1.434  -0.550  -0.002  0.00  0.00    +0.015 C 
ATOM     37  C   UNL     1      -2.106  -0.152   1.314  0.00  0.00    +0.010 C 
BRANCH  36  39
ATOM     38  C   UNL     1      -0.014   1.505  -0.021  0.00  0.00    +0.004 C 
ATOM     39  C   UNL     1       0.003  -0.025  -0.020  0.00  0.00    +0.002 C 
ENDBRANCH  36  39
ENDBRANCH   1  36
TORSDOF 6
