REMARK  Name = ZINC01343007
REMARK  6 active torsions:
REMARK  status: ('A' for Active; 'I' for Inactive)
REMARK    1  A    between atoms: C_1  and  C_2
REMARK    2  A    between atoms: C_4  and  C_25
REMARK    3  A    between atoms: C_8  and  N_24
REMARK    4  A    between atoms: C_9  and  C_15
REMARK    5  A    between atoms: N_17  and  C_18
REMARK    6  A    between atoms: C_18  and  C_19
REMARK                            x       y       z     vdW  Elec       q    Type
REMARK                         _______ _______ _______ _____ _____    ______ ____
ROOT
ATOM      1  C   UNL     1      -5.229   4.659 -10.537  0.00  0.00    +0.044 C 
ATOM      2  C   UNL     1      -4.215   3.963  -9.666  0.00  0.00    -0.048 A 
ATOM      3  C   UNL     1      -3.175   3.248 -10.260  0.00  0.00    +0.007 A 
ATOM      4  C   UNL     1      -2.244   2.608  -9.503  0.00  0.00    -0.041 A 
ATOM      5  C   UNL     1      -2.327   2.666  -8.098  0.00  0.00    +0.004 A 
ATOM      6  C   UNL     1      -1.382   2.017  -7.296  0.00  0.00    +0.022 A 
ATOM      7  C   UNL     1      -1.504   2.103  -5.898  0.00  0.00    +0.030 A 
ATOM      8  C   UNL     1      -0.640   1.518  -4.880  0.00  0.00    +0.053 A 
ATOM      9  C   UNL     1      -0.954   1.728  -3.557  0.00  0.00    +0.097 A 
ATOM     10  S   UNL     1      -2.420   2.736  -3.629  0.00  0.00    -0.062 S 
ATOM     11  C   UNL     1      -2.600   2.857  -5.393  0.00  0.00    +0.111 A 
ATOM     12  N   UNL     1      -3.473   3.456  -6.163  0.00  0.00    -0.239 NA
ATOM     13  C   UNL     1      -3.385   3.394  -7.494  0.00  0.00    +0.073 A 
ATOM     14  C   UNL     1      -4.328   4.042  -8.312  0.00  0.00    +0.031 A 
ATOM     15  C   UNL     1      -1.129   1.841 -10.165  0.00  0.00    +0.044 C 
ENDROOT
BRANCH   9  16
ATOM     16  C   UNL     1      -0.268   1.258  -2.409  0.00  0.00    +0.253 C 
ATOM     17  O   UNL     1       0.730   0.572  -2.534  0.00  0.00    -0.270 OA
ATOM     18  N   UNL     1      -0.721   1.571  -1.179  0.00  0.00    -0.304 N 
ATOM     19  H   UNL     1      -1.516   2.118  -1.079  0.00  0.00    +0.149 HD
BRANCH  18  20
ATOM     20  C   UNL     1      -0.013   1.086   0.008  0.00  0.00    +0.179 C 
BRANCH  20  21
ATOM     21  C   UNL     1      -0.718   1.572   1.248  0.00  0.00    +0.122 A 
ATOM     22  C   UNL     1      -1.704   0.926   1.896  0.00  0.00    +0.046 A 
ATOM     23  C   UNL     1      -2.070   1.736   2.996  0.00  0.00    +0.041 A 
ATOM     24  C   UNL     1      -1.286   2.828   2.954  0.00  0.00    +0.195 A 
ATOM     25  O   UNL     1      -0.465   2.720   1.896  0.00  0.00    -0.466 OA
ENDBRANCH  20  21
ENDBRANCH  18  20
ENDBRANCH   9  16
BRANCH   8  26
ATOM     26  N   UNL     1       0.468   0.765  -5.236  0.00  0.00    -0.356 N 
ATOM     27  H   UNL     1       1.033   0.378  -4.549  0.00  0.00    +0.142 HD
ATOM     28  H   UNL     1       0.678   0.624  -6.172  0.00  0.00    +0.142 HD
ENDBRANCH   8  26
TORSDOF 4
