REMARK  Name = ZINC44866120
REMARK  5 active torsions:
REMARK  status: ('A' for Active; 'I' for Inactive)
REMARK    1  A    between atoms: C_1  and  C_2
REMARK    2  A    between atoms: C_2  and  C_4
REMARK    3  A    between atoms: C_2  and  C_8
REMARK    4  A    between atoms: N_5  and  O_6
REMARK    5  A    between atoms: N_10  and  C_11
REMARK                            x       y       z     vdW  Elec       q    Type
REMARK                         _______ _______ _______ _____ _____    ______ ____
ROOT
ATOM      1  C   UNL     1       0.759   0.722  -1.588  0.00  0.00    +0.227 C 
ATOM      2  O   UNL     1       1.886   1.137  -1.755  0.00  0.00    -0.275 OA
ATOM      3  N   UNL     1       0.231  -0.164  -2.456  0.00  0.00    -0.282 N 
ATOM      4  H   UNL     1      -0.642  -0.551  -2.284  0.00  0.00    +0.155 HD
ENDROOT
BRANCH   3   5
ATOM      5  C   UNL     1       0.944  -0.527  -3.607  0.00  0.00    +0.083 A 
ATOM      6  C   UNL     1       1.882  -1.552  -3.552  0.00  0.00    +0.148 A 
ATOM      7  C   UNL     1       2.583  -1.907  -4.689  0.00  0.00    +0.078 A 
ATOM      8  C   UNL     1       2.352  -1.242  -5.882  0.00  0.00    +0.127 A 
ATOM      9  C   UNL     1       1.419  -0.222  -5.939  0.00  0.00    +0.055 A 
ATOM     10  C   UNL     1       0.710   0.133  -4.806  0.00  0.00    +0.045 A 
ATOM     11 BR   UNL     1      -0.571   1.522  -4.888  0.00  0.00    -0.048 Br
ATOM     12  F   UNL     1       3.038  -1.591  -6.992  0.00  0.00    -0.205 F 
ATOM     13  F   UNL     1       2.108  -2.199  -2.388  0.00  0.00    -0.203 F 
ENDBRANCH   3   5
BRANCH   1  15
ATOM     14  C   UNL     1      -1.325   1.882  -0.909  0.00  0.00    +0.025 C 
ATOM     15  C   UNL     1      -0.052   1.196  -0.409  0.00  0.00    +0.138 C 
BRANCH  15  16
ATOM     16  C   UNL     1       0.761   2.174   0.399  0.00  0.00    +0.143 C 
ATOM     17  N   UNL     1       0.635   3.443   0.194  0.00  0.00    -0.076 NA
ATOM     18  N   UNL     1       1.639   1.715   1.356  0.00  0.00    -0.343 N 
ATOM     19  H   UNL     1       1.733   0.762   1.510  0.00  0.00    +0.144 HD
ATOM     20  H   UNL     1       2.162   2.344   1.876  0.00  0.00    +0.144 HD
BRANCH  17  21
ATOM     21  O   UNL     1       1.400   4.362   0.953  0.00  0.00    -0.408 OA
ATOM     22  H   UNL     1       1.237   5.289   0.729  0.00  0.00    +0.328 HD
ENDBRANCH  17  21
ENDBRANCH  15  16
ENDBRANCH   1  15
TORSDOF 4
