REMARK  Name = ZINC66091374
REMARK  6 active torsions:
REMARK  status: ('A' for Active; 'I' for Inactive)
REMARK    1  A    between atoms: C_1  and  N_2
REMARK    2  A    between atoms: C_8  and  C_14
REMARK    3  A    between atoms: C_18  and  O_22
REMARK    4  A    between atoms: C_19  and  O_20
REMARK    5  A    between atoms: O_20  and  C_21
REMARK    6  A    between atoms: O_22  and  C_23
REMARK                            x       y       z     vdW  Elec       q    Type
REMARK                         _______ _______ _______ _____ _____    ______ ____
ROOT
ATOM      1  C   UNL     1      -0.018   1.461   0.010  0.00  0.00    +0.127 C 
ATOM      2  N   UNL     1       0.002  -0.004   0.002  0.00  0.00    -0.326 N 
ATOM      3  C   UNL     1       0.621  -0.694   1.032  0.00  0.00    +0.160 A 
ATOM      4  N   UNL     1       1.232  -0.205   2.092  0.00  0.00    -0.210 NA
ATOM      5  C   UNL     1       1.786  -0.996   3.004  0.00  0.00    +0.138 A 
ATOM      6  C   UNL     1       1.663  -2.333   2.756  0.00  0.00    +0.041 A 
ATOM      7  S   UNL     1       0.768  -2.362   1.233  0.00  0.00    -0.055 S 
ATOM      8  C   UNL     1       2.177  -3.434   3.617  0.00  0.00    +0.072 C 
ATOM      9  C   UNL     1       3.390  -2.906   4.396  0.00  0.00    +0.109 C 
ATOM     10  C   UNL     1       3.134  -1.512   4.894  0.00  0.00    +0.219 C 
ATOM     11  O   UNL     1       3.554  -1.204   5.990  0.00  0.00    -0.275 OA
ATOM     12  N   UNL     1       2.462  -0.589   4.184  0.00  0.00    -0.270 N 
ATOM     13  H   UNL     1      -0.418  -0.491  -0.724  0.00  0.00    +0.148 HD
ATOM     14  H   UNL     1       2.439   0.338   4.472  0.00  0.00    +0.156 HD
ENDROOT
BRANCH   8  15
ATOM     15  C   UNL     1       2.592  -4.601   2.758  0.00  0.00    +0.010 A 
ATOM     16  C   UNL     1       3.584  -4.440   1.808  0.00  0.00    +0.057 A 
ATOM     17  C   UNL     1       3.969  -5.509   1.015  0.00  0.00    +0.170 A 
ATOM     18  C   UNL     1       3.356  -6.749   1.175  0.00  0.00    +0.211 A 
ATOM     19  C   UNL     1       2.361  -6.910   2.129  0.00  0.00    +0.208 A 
ATOM     20  C   UNL     1       1.983  -5.834   2.925  0.00  0.00    +0.169 A 
ATOM     21  O   UNL     1       3.907  -7.627   0.285  0.00  0.00    -0.449 OA
ATOM     22  C   UNL     1       4.573  -6.811  -0.697  0.00  0.00    +0.467 C 
ATOM     23  O   UNL     1       4.904  -5.609   0.024  0.00  0.00    -0.452 OA
BRANCH  20  24
ATOM     24  O   UNL     1       1.011  -5.991   3.865  0.00  0.00    -0.491 OA
ATOM     25  C   UNL     1      -0.335  -5.747   3.453  0.00  0.00    +0.277 C 
ENDBRANCH  20  24
BRANCH  19  26
ATOM     26  O   UNL     1       1.759  -8.120   2.289  0.00  0.00    -0.488 OA
ATOM     27  C   UNL     1       2.351  -9.020   3.228  0.00  0.00    +0.277 C 
ENDBRANCH  19  26
ENDBRANCH   8  15
TORSDOF 3
