REMARK  Name = ZINC45599653
REMARK  9 active torsions:
REMARK  status: ('A' for Active; 'I' for Inactive)
REMARK    1  A    between atoms: C_1  and  C_2
REMARK    2  A    between atoms: C_11  and  N_32
REMARK    3  A    between atoms: C_13  and  C_15
REMARK    4  A    between atoms: C_15  and  S_16
REMARK    5  A    between atoms: S_16  and  C_17
REMARK    6  A    between atoms: N_21  and  C_22
REMARK    7  A    between atoms: C_22  and  C_23
REMARK    8  A    between atoms: C_23  and  C_24
REMARK    9  A    between atoms: C_23  and  C_25
REMARK                            x       y       z     vdW  Elec       q    Type
REMARK                         _______ _______ _______ _____ _____    ______ ____
ROOT
ATOM      1  C   UNL     1       2.333   1.034   0.736  0.00  0.00    +0.008 C 
ATOM      2  C   UNL     1       2.038  -0.467   0.704  0.00  0.00    -0.009 C 
ATOM      3  C   UNL     1       0.525  -0.694   0.748  0.00  0.00    +0.008 C 
ATOM      4  C   UNL     1       0.213  -2.165   0.469  0.00  0.00    +0.037 C 
ATOM      5  C   UNL     1       1.033  -3.033   1.419  0.00  0.00    -0.025 A 
ATOM      6  C   UNL     1       2.120  -2.530   2.045  0.00  0.00    -0.004 A 
ATOM      7  S   UNL     1       2.752  -3.863   3.032  0.00  0.00    -0.073 S 
ATOM      8  C   UNL     1       1.561  -5.093   2.608  0.00  0.00    +0.114 A 
ATOM      9  C   UNL     1       0.701  -4.420   1.703  0.00  0.00    +0.051 A 
ATOM     10  C   UNL     1      -0.387  -5.170   1.172  0.00  0.00    +0.128 A 
ATOM     11  N   UNL     1      -0.480  -6.432   1.588  0.00  0.00    -0.216 NA
ATOM     12  C   UNL     1       0.360  -6.991   2.435  0.00  0.00    +0.143 A 
ATOM     13  N   UNL     1       1.394  -6.350   2.966  0.00  0.00    -0.224 NA
ATOM     14  C   UNL     1       2.676  -1.143   1.926  0.00  0.00    +0.046 C 
ENDROOT
BRANCH  10  15
ATOM     15  N   UNL     1      -1.292  -4.621   0.281  0.00  0.00    -0.343 N 
ATOM     16  H   UNL     1      -1.076  -3.799  -0.185  0.00  0.00    +0.144 HD
ATOM     17  H   UNL     1      -2.143  -5.060   0.122  0.00  0.00    +0.144 HD
ENDBRANCH  10  15
BRANCH  12  18
ATOM     18  C   UNL     1       0.136  -8.431   2.820  0.00  0.00    +0.153 C 
BRANCH  18  19
ATOM     19  S   UNL     1       1.028  -9.511   1.668  0.00  0.00    -0.078 S 
BRANCH  19  20
ATOM     20  C   UNL     1       0.671 -11.137   2.245  0.00  0.00    +0.193 A 
ATOM     21  N   UNL     1      -0.082 -11.442   3.274  0.00  0.00    -0.121 NA
ATOM     22  N   UNL     1      -0.110 -12.838   3.392  0.00  0.00    -0.112 NA
ATOM     23  C   UNL     1       0.627 -13.340   2.432  0.00  0.00    +0.220 A 
ATOM     24  N   UNL     1       1.124 -12.303   1.694  0.00  0.00    -0.290 N 
ATOM     25  N   UNL     1       0.857 -14.690   2.201  0.00  0.00    -0.295 N 
ATOM     26  C   UNL     1       1.950 -15.400   2.884  0.00  0.00    +0.136 C 
ATOM     27  C   UNL     1       1.379 -16.676   3.513  0.00  0.00    +0.179 C 
ATOM     28  O   UNL     1       0.667 -17.414   2.516  0.00  0.00    -0.377 OA
ATOM     29  C   UNL     1      -0.462 -16.726   1.973  0.00  0.00    +0.179 C 
ATOM     30  C   UNL     1       0.011 -15.454   1.270  0.00  0.00    +0.136 C 
BRANCH  24  31
ATOM     31  C   UNL     1       1.994 -12.420   0.521  0.00  0.00    +0.130 C 
BRANCH  31  32
ATOM     32  C   UNL     1       1.138 -12.627  -0.730  0.00  0.00    +0.003 C 
ATOM     33  C   UNL     1       0.282 -11.382  -0.974  0.00  0.00    +0.009 C 
ATOM     34  C   UNL     1       2.048 -12.866  -1.937  0.00  0.00    +0.009 C 
ENDBRANCH  31  32
ENDBRANCH  24  31
ENDBRANCH  19  20
ENDBRANCH  18  19
ENDBRANCH  12  18
TORSDOF 6
