REMARK  Name = ZINC19015508
REMARK  4 active torsions:
REMARK  status: ('A' for Active; 'I' for Inactive)
REMARK    1  A    between atoms: C_10  and  N_11
REMARK    2  A    between atoms: N_14  and  C_15
REMARK    3  A    between atoms: C_15  and  C_16
REMARK    4  A    between atoms: N_27  and  C_28
REMARK                            x       y       z     vdW  Elec       q    Type
REMARK                         _______ _______ _______ _____ _____    ______ ____
ROOT
ATOM      1  C   UNL     1      -2.809   0.336  -0.383  0.00  0.00    +0.136 A 
ATOM      2  N   UNL     1      -3.341  -0.166   0.692  0.00  0.00    -0.230 NA
ATOM      3  C   UNL     1      -4.324  -1.042   0.354  0.00  0.00    +0.090 A 
ATOM      4  C   UNL     1      -5.195  -1.842   1.097  0.00  0.00    +0.030 A 
ATOM      5  C   UNL     1      -6.105  -2.646   0.450  0.00  0.00    +0.002 A 
ATOM      6  C   UNL     1      -6.164  -2.669  -0.936  0.00  0.00    +0.002 A 
ATOM      7  C   UNL     1      -5.311  -1.885  -1.685  0.00  0.00    +0.028 A 
ATOM      8  C   UNL     1      -4.388  -1.069  -1.048  0.00  0.00    +0.078 A 
ATOM      9  N   UNL     1      -3.420  -0.181  -1.492  0.00  0.00    -0.249 N 
ATOM     10  C   UNL     1      -3.133   0.115  -2.775  0.00  0.00    +0.325 C 
ATOM     11  O   UNL     1      -2.300  -0.535  -3.376  0.00  0.00    -0.249 OA
ATOM     12  N   UNL     1      -3.769   1.130  -3.391  0.00  0.00    -0.266 N 
ATOM     13  H   UNL     1      -4.385   1.690  -2.893  0.00  0.00    +0.157 HD
ENDROOT
BRANCH  12  14
ATOM     14  C   UNL     1      -3.541   1.377  -4.746  0.00  0.00    +0.043 A 
ATOM     15  C   UNL     1      -2.292   1.167  -5.291  0.00  0.00    +0.024 A 
ATOM     16  C   UNL     1      -2.056   1.405  -6.642  0.00  0.00    +0.002 A 
ATOM     17  C   UNL     1      -3.045   1.861  -7.459  0.00  0.00    +0.008 A 
ATOM     18  C   UNL     1      -4.331   2.094  -6.941  0.00  0.00    -0.016 A 
ATOM     19  C   UNL     1      -4.585   1.850  -5.569  0.00  0.00    +0.003 A 
ATOM     20  C   UNL     1      -5.870   2.083  -5.054  0.00  0.00    +0.010 A 
ATOM     21  C   UNL     1      -6.853   2.540  -5.877  0.00  0.00    +0.001 A 
ATOM     22  C   UNL     1      -6.604   2.780  -7.227  0.00  0.00    +0.001 A 
ATOM     23  C   UNL     1      -5.371   2.565  -7.761  0.00  0.00    +0.008 A 
ENDBRANCH  12  14
BRANCH   1  24
ATOM     24  C   UNL     1      -1.689   1.343  -0.404  0.00  0.00    +0.180 C 
BRANCH  24  28
ATOM     25  N   UNL     1       1.930   0.702  -0.494  0.00  0.00    -0.269 N 
ATOM     26  C   UNL     1       0.747   1.346  -0.462  0.00  0.00    +0.304 C 
ATOM     27  O   UNL     1       0.716   2.562  -0.457  0.00  0.00    -0.252 OA
ATOM     28  N   UNL     1      -0.403   0.643  -0.433  0.00  0.00    -0.292 N 
ATOM     29  H   UNL     1       1.957  -0.266  -0.432  0.00  0.00    +0.156 HD
ATOM     30  H   UNL     1      -0.379  -0.327  -0.437  0.00  0.00    +0.151 HD
BRANCH  25  40
ATOM     31  C   UNL     1       6.360  -0.099  -2.777  0.00  0.00    +0.001 A 
ATOM     32  C   UNL     1       5.184  -0.840  -2.666  0.00  0.00    +0.001 A 
ATOM     33  C   UNL     1       4.118  -0.360  -1.968  0.00  0.00    +0.010 A 
ATOM     34  C   UNL     1       4.203   0.896  -1.346  0.00  0.00    +0.003 A 
ATOM     35  C   UNL     1       5.396   1.651  -1.463  0.00  0.00    -0.016 A 
ATOM     36  C   UNL     1       6.476   1.124  -2.192  0.00  0.00    +0.008 A 
ATOM     37  C   UNL     1       5.480   2.910  -0.845  0.00  0.00    +0.008 A 
ATOM     38  C   UNL     1       4.418   3.397  -0.145  0.00  0.00    +0.002 A 
ATOM     39  C   UNL     1       3.240   2.666  -0.028  0.00  0.00    +0.024 A 
ATOM     40  C   UNL     1       3.117   1.427  -0.619  0.00  0.00    +0.042 A 
ENDBRANCH  25  40
ENDBRANCH  24  28
ENDBRANCH   1  24
TORSDOF 4
