REMARK  Name = ZINC23443981
REMARK  14 active torsions:
REMARK  status: ('A' for Active; 'I' for Inactive)
REMARK    1  A    between atoms: C_1  and  O_2
REMARK    2  A    between atoms: O_2  and  C_3
REMARK    3  A    between atoms: C_7  and  C_9
REMARK    4  A    between atoms: C_9  and  C_11
REMARK    5  A    between atoms: C_9  and  O_28
REMARK    6  A    between atoms: C_11  and  N_12
REMARK    7  A    between atoms: C_18  and  C_20
REMARK    8  A    between atoms: C_24  and  O_26
REMARK    9  A    between atoms: O_26  and  C_27
REMARK   10  A    between atoms: O_28  and  C_29
REMARK   11  A    between atoms: C_29  and  C_30
REMARK   12  A    between atoms: C_33  and  C_36
REMARK   13  A    between atoms: C_36  and  O_38
REMARK   14  A    between atoms: O_38  and  C_39
REMARK                            x       y       z     vdW  Elec       q    Type
REMARK                         _______ _______ _______ _____ _____    ______ ____
ROOT
ATOM      1  C   UNL     1       1.171  -4.690  -1.664  0.00  0.00    +0.132 C 
ENDROOT
BRANCH   1   6
ATOM      2  C   UNL     1      -1.605  -7.151  -0.950  0.00  0.00    +0.120 A 
ATOM      3  C   UNL     1      -2.630  -6.645  -1.736  0.00  0.00    +0.045 A 
ATOM      4  C   UNL     1      -2.421  -5.509  -2.494  0.00  0.00    +0.004 A 
ATOM      5  C   UNL     1      -1.191  -4.878  -2.470  0.00  0.00    +0.006 A 
ATOM      6  C   UNL     1      -0.168  -5.380  -1.688  0.00  0.00    -0.017 A 
ATOM      7  C   UNL     1      -0.371  -6.519  -0.931  0.00  0.00    +0.051 A 
BRANCH   2   9
ATOM      8  C   UNL     1      -3.103  -8.871  -0.277  0.00  0.00    +0.277 C 
ATOM      9  O   UNL     1      -1.809  -8.269  -0.203  0.00  0.00    -0.495 OA
ENDBRANCH   2   9
ENDBRANCH   1   6
BRANCH   1  10
ATOM     10  C   UNL     1       1.973  -5.091  -2.904  0.00  0.00    -0.042 C 
BRANCH  10  11
ATOM     11  N   UNL     1       3.284  -4.429  -2.874  0.00  0.00    +0.384 N 
ATOM     12  C   UNL     1       3.882  -4.385  -4.215  0.00  0.00    -0.059 C 
ATOM     13  C   UNL     1       5.155  -3.533  -4.175  0.00  0.00    +0.089 C 
ATOM     14  N   UNL     1       6.035  -4.056  -3.119  0.00  0.00    -0.301 N 
ATOM     15  C   UNL     1       5.467  -4.257  -1.777  0.00  0.00    +0.089 C 
ATOM     16  C   UNL     1       4.182  -5.081  -1.911  0.00  0.00    -0.059 C 
ATOM     17  C   UNL     1       7.327  -4.342  -3.373  0.00  0.00    +0.247 C 
ATOM     18  O   UNL     1       8.014  -4.865  -2.518  0.00  0.00    -0.270 OA
ATOM     19  H   UNL     1       3.133  -3.391  -2.541  0.00  0.00    -0.082 HD
BRANCH  17  20
ATOM     20  C   UNL     1       7.910  -4.020  -4.694  0.00  0.00    +0.040 A 
ATOM     21  C   UNL     1       8.912  -4.828  -5.233  0.00  0.00    +0.013 A 
ATOM     22  C   UNL     1       9.449  -4.527  -6.468  0.00  0.00    +0.004 A 
ATOM     23  C   UNL     1       9.006  -3.421  -7.169  0.00  0.00    +0.045 A 
ATOM     24  C   UNL     1       8.014  -2.608  -6.638  0.00  0.00    +0.121 A 
ATOM     25  C   UNL     1       7.464  -2.904  -5.402  0.00  0.00    +0.058 A 
BRANCH  24  26
ATOM     26  O   UNL     1       7.583  -1.521  -7.331  0.00  0.00    -0.495 OA
ATOM     27  C   UNL     1       8.195  -1.276  -8.599  0.00  0.00    +0.277 C 
ENDBRANCH  24  26
ENDBRANCH  17  20
ENDBRANCH  10  11
ENDBRANCH   1  10
BRANCH   1  28
ATOM     28  O   UNL     1       0.977  -3.274  -1.660  0.00  0.00    -0.369 OA
BRANCH  28  29
ATOM     29  C   UNL     1       0.879  -2.705  -0.353  0.00  0.00    +0.195 C 
BRANCH  29  30
ATOM     30  C   UNL     1       0.677  -1.216  -0.468  0.00  0.00    -0.022 A 
ATOM     31  C   UNL     1      -0.605  -0.698  -0.538  0.00  0.00    +0.007 A 
ATOM     32  C   UNL     1      -0.797   0.664  -0.643  0.00  0.00    +0.015 A 
ATOM     33  C   UNL     1       0.305   1.520  -0.678  0.00  0.00    +0.059 A 
ATOM     34  C   UNL     1       1.595   0.991  -0.606  0.00  0.00    +0.015 A 
ATOM     35  C   UNL     1       1.773  -0.373  -0.502  0.00  0.00    +0.007 A 
BRANCH  33  36
ATOM     36  C   UNL     1       0.107   2.980  -0.791  0.00  0.00    +0.339 C 
ATOM     37  O   UNL     1      -1.017   3.437  -0.854  0.00  0.00    -0.245 OA
BRANCH  36  38
ATOM     38  O   UNL     1       1.172   3.804  -0.824  0.00  0.00    -0.464 OA
ATOM     39  C   UNL     1       0.902   5.226  -0.936  0.00  0.00    +0.280 C 
ENDBRANCH  36  38
ENDBRANCH  33  36
ENDBRANCH  29  30
ENDBRANCH  28  29
ENDBRANCH   1  28
TORSDOF 11
