REMARK  Name = ZINC60248432
REMARK  9 active torsions:
REMARK  status: ('A' for Active; 'I' for Inactive)
REMARK    1  A    between atoms: C_1  and  C_2
REMARK    2  A    between atoms: C_4  and  C_27
REMARK    3  A    between atoms: C_7  and  N_8
REMARK    4  A    between atoms: C_9  and  C_11
REMARK    5  A    between atoms: C_17  and  C_19
REMARK    6  A    between atoms: N_29  and  C_30
REMARK    7  A    between atoms: C_30  and  C_31
REMARK    8  A    between atoms: C_31  and  C_32
REMARK    9  A    between atoms: C_31  and  C_33
REMARK                            x       y       z     vdW  Elec       q    Type
REMARK                         _______ _______ _______ _____ _____    ______ ____
ROOT
ATOM      1  N   UNL     1       0.065   0.095   2.475  0.00  0.00    -0.284 N 
ATOM      2  C   UNL     1      -0.604  -0.429   3.521  0.00  0.00    +0.238 C 
ATOM      3  O   UNL     1      -1.143  -1.510   3.416  0.00  0.00    -0.273 OA
ATOM      4  H   UNL     1       0.542   0.934   2.575  0.00  0.00    +0.155 HD
ENDROOT
BRANCH   1  11
ATOM      5  C   UNL     1       0.073   1.669   0.109  0.00  0.00    +0.045 C 
ATOM      6  C   UNL     1       0.076   0.162   0.064  0.00  0.00    -0.029 A 
ATOM      7  C   UNL     1       0.088  -0.490  -1.148  0.00  0.00    +0.018 A 
ATOM      8  C   UNL     1       0.091  -1.886  -1.189  0.00  0.00    +0.037 A 
ATOM      9  C   UNL     1       0.081  -2.617   0.002  0.00  0.00    +0.015 A 
ATOM     10  C   UNL     1       0.069  -1.959   1.211  0.00  0.00    +0.024 A 
ATOM     11  C   UNL     1       0.072  -0.568   1.248  0.00  0.00    +0.036 A 
BRANCH   8  12
ATOM     12  C   UNL     1       0.104  -2.588  -2.487  0.00  0.00    +0.244 C 
ATOM     13  O   UNL     1       0.112  -1.952  -3.523  0.00  0.00    -0.270 OA
ATOM     14  N   UNL     1       0.107  -3.936  -2.525  0.00  0.00    -0.311 N 
ATOM     15  H   UNL     1       0.100  -4.444  -1.698  0.00  0.00    +0.149 HD
BRANCH  14  16
ATOM     16  C   UNL     1       0.119  -4.633  -3.813  0.00  0.00    +0.107 C 
BRANCH  16  17
ATOM     17  C   UNL     1       0.120  -6.144  -3.576  0.00  0.00    -0.000 C 
ATOM     18  C   UNL     1      -1.193  -6.555  -2.906  0.00  0.00    +0.009 C 
ATOM     19  C   UNL     1       0.259  -6.871  -4.915  0.00  0.00    +0.009 C 
ENDBRANCH  16  17
ENDBRANCH  14  16
ENDBRANCH   8  12
ENDBRANCH   1  11
BRANCH   2  20
ATOM     20  C   UNL     1      -0.682   0.329   4.821  0.00  0.00    +0.163 C 
ATOM     21  C   UNL     1      -1.407   1.673   4.602  0.00  0.00    +0.033 C 
ATOM     22  C   UNL     1      -2.862   1.360   5.042  0.00  0.00    +0.021 C 
ATOM     23  C   UNL     1      -2.627   0.375   6.214  0.00  0.00    +0.109 C 
ATOM     24  N   UNL     1      -1.466  -0.439   5.800  0.00  0.00    -0.286 N 
ATOM     25  C   UNL     1      -1.173  -1.677   6.243  0.00  0.00    +0.247 C 
ATOM     26  O   UNL     1      -0.153  -2.228   5.878  0.00  0.00    -0.270 OA
BRANCH  25  27
ATOM     27  C   UNL     1      -2.092  -2.367   7.174  0.00  0.00    +0.040 A 
ATOM     28  C   UNL     1      -2.218  -3.756   7.133  0.00  0.00    +0.033 A 
ATOM     29  C   UNL     1      -3.079  -4.394   8.005  0.00  0.00    +0.043 A 
ATOM     30  C   UNL     1      -3.816  -3.658   8.917  0.00  0.00    +0.040 A 
ATOM     31  C   UNL     1      -3.696  -2.279   8.961  0.00  0.00    +0.043 A 
ATOM     32  C   UNL     1      -2.834  -1.631   8.099  0.00  0.00    +0.033 A 
ATOM     33 CL   UNL     1      -4.625  -1.365  10.108  0.00  0.00    -0.083 Cl
ATOM     34 CL   UNL     1      -3.237  -6.122   7.956  0.00  0.00    -0.083 Cl
ENDBRANCH  25  27
ENDBRANCH   2  20
TORSDOF 6
