REMARK  Name = ZINC03423478
REMARK  8 active torsions:
REMARK  status: ('A' for Active; 'I' for Inactive)
REMARK    1  A    between atoms: C_1  and  C_2
REMARK    2  A    between atoms: C_2  and  C_3
REMARK    3  A    between atoms: C_2  and  C_4
REMARK    4  A    between atoms: C_4  and  C_6
REMARK    5  A    between atoms: C_4  and  N_22
REMARK    6  A    between atoms: C_11  and  C_14
REMARK    7  A    between atoms: N_22  and  S_23
REMARK    8  A    between atoms: S_23  and  C_26
REMARK                            x       y       z     vdW  Elec       q    Type
REMARK                         _______ _______ _______ _____ _____    ______ ____
ROOT
ATOM      1  C   UNL     1       4.502  -0.065  -2.542  0.00  0.00    +0.165 C 
ENDROOT
BRANCH   1   2
ATOM      2  C   UNL     1       5.417  -0.540  -3.642  0.00  0.00    +0.238 C 
ATOM      3  O   UNL     1       5.816  -1.685  -3.645  0.00  0.00    -0.274 OA
ATOM      4  N   UNL     1       5.790   0.307  -4.622  0.00  0.00    -0.263 N 
ATOM      5  C   UNL     1       6.632  -0.132  -5.636  0.00  0.00    +0.165 A 
ATOM      6  N   UNL     1       7.108   0.532  -6.673  0.00  0.00    -0.225 NA
ATOM      7  C   UNL     1       7.909  -0.049  -7.553  0.00  0.00    +0.080 A 
ATOM      8  C   UNL     1       8.251  -1.361  -7.385  0.00  0.00    +0.076 A 
ATOM      9  S   UNL     1       7.367  -1.743  -5.878  0.00  0.00    -0.060 S 
ATOM     10  H   UNL     1       5.470   1.222  -4.619  0.00  0.00    +0.157 HD
BRANCH   7  11
ATOM     11  C   UNL     1       8.430   0.718  -8.711  0.00  0.00    +0.004 A 
ATOM     12  C   UNL     1       8.079   2.057  -8.878  0.00  0.00    +0.013 A 
ATOM     13  C   UNL     1       8.566   2.767  -9.956  0.00  0.00    +0.042 A 
ATOM     14  C   UNL     1       9.402   2.153 -10.873  0.00  0.00    +0.158 A 
ATOM     15  C   UNL     1       9.755   0.821 -10.712  0.00  0.00    +0.159 A 
ATOM     16  C   UNL     1       9.277   0.104  -9.631  0.00  0.00    +0.051 A 
ATOM     17  F   UNL     1      10.572   0.226 -11.609  0.00  0.00    -0.202 F 
ATOM     18  F   UNL     1       9.876   2.853 -11.927  0.00  0.00    -0.202 F 
ENDBRANCH   7  11
ENDBRANCH   1   2
BRANCH   1  20
ATOM     19  C   UNL     1       2.502  -0.762  -3.868  0.00  0.00    +0.009 C 
ATOM     20  C   UNL     1       3.179   0.406  -3.148  0.00  0.00    +0.010 C 
ATOM     21  C   UNL     1       2.262   0.918  -2.035  0.00  0.00    +0.009 C 
ENDBRANCH   1  20
BRANCH   1  22
ATOM     22  N   UNL     1       4.248  -1.164  -1.609  0.00  0.00    -0.178 NA
ATOM     23  H   UNL     1       3.547  -1.807  -1.796  0.00  0.00    +0.149 HD
BRANCH  22  24
ATOM     24  S   UNL     1       5.159  -1.310  -0.233  0.00  0.00    +0.059 S 
ATOM     25  O   UNL     1       6.520  -1.242  -0.638  0.00  0.00    -0.153 OA
ATOM     26  O   UNL     1       4.633  -2.415   0.487  0.00  0.00    -0.153 OA
BRANCH  24  27
ATOM     27  C   UNL     1       4.854   0.122   0.748  0.00  0.00    +0.109 A 
ATOM     28  C   UNL     1       3.762   0.158   1.595  0.00  0.00    +0.032 A 
ATOM     29  C   UNL     1       3.519   1.280   2.365  0.00  0.00    +0.051 A 
ATOM     30  C   UNL     1       4.370   2.372   2.290  0.00  0.00    +0.162 A 
ATOM     31  C   UNL     1       5.469   2.335   1.440  0.00  0.00    +0.164 A 
ATOM     32  C   UNL     1       5.707   1.207   0.669  0.00  0.00    +0.078 A 
ATOM     33  O   UNL     1       6.322   3.393   1.357  0.00  0.00    -0.485 OA
ATOM     34  C   UNL     1       5.845   4.645   1.861  0.00  0.00    +0.270 C 
ATOM     35  C   UNL     1       5.194   4.396   3.229  0.00  0.00    +0.270 C 
ATOM     36  O   UNL     1       4.113   3.473   3.048  0.00  0.00    -0.485 OA
ENDBRANCH  24  27
ENDBRANCH  22  24
ENDBRANCH   1  22
TORSDOF 6
