REMARK  Name = ZINC36630733
REMARK  9 active torsions:
REMARK  status: ('A' for Active; 'I' for Inactive)
REMARK    1  A    between atoms: C_1  and  C_2
REMARK    2  A    between atoms: C_2  and  C_3
REMARK    3  A    between atoms: C_2  and  C_4
REMARK    4  A    between atoms: C_4  and  C_6
REMARK    5  A    between atoms: C_4  and  N_24
REMARK    6  A    between atoms: C_11  and  C_14
REMARK    7  A    between atoms: C_17  and  N_20
REMARK    8  A    between atoms: C_21  and  C_23
REMARK    9  A    between atoms: C_25  and  C_27
REMARK                            x       y       z     vdW  Elec       q    Type
REMARK                         _______ _______ _______ _____ _____    ______ ____
ROOT
ATOM      1  C   UNL     1      -2.114   0.442   0.998  0.00  0.00    +0.239 C 
ATOM      2  O   UNL     1      -3.216   0.881   0.742  0.00  0.00    -0.273 OA
ATOM      3  N   UNL     1      -1.667   0.444   2.270  0.00  0.00    -0.263 N 
ATOM      4  C   UNL     1      -2.424   1.041   3.271  0.00  0.00    +0.165 A 
ATOM      5  N   UNL     1      -2.163   1.153   4.560  0.00  0.00    -0.225 NA
ATOM      6  C   UNL     1      -3.006   1.762   5.381  0.00  0.00    +0.080 A 
ATOM      7  C   UNL     1      -4.167   2.284   4.885  0.00  0.00    +0.076 A 
ATOM      8  S   UNL     1      -4.004   1.869   3.154  0.00  0.00    -0.060 S 
ATOM      9  H   UNL     1      -0.818   0.029   2.486  0.00  0.00    +0.157 HD
ENDROOT
BRANCH   6  10
ATOM     10  C   UNL     1      -2.692   1.875   6.827  0.00  0.00    +0.001 A 
ATOM     11  C   UNL     1      -3.585   2.511   7.688  0.00  0.00    +0.012 A 
ATOM     12  C   UNL     1      -3.291   2.615   9.031  0.00  0.00    +0.024 A 
ATOM     13  C   UNL     1      -2.105   2.087   9.526  0.00  0.00    +0.033 A 
ATOM     14  C   UNL     1      -1.212   1.453   8.670  0.00  0.00    +0.024 A 
ATOM     15  C   UNL     1      -1.505   1.341   7.327  0.00  0.00    +0.012 A 
BRANCH  13  16
ATOM     16  N   UNL     1      -1.808   2.195  10.889  0.00  0.00    -0.286 N 
ATOM     17  C   UNL     1      -1.127   1.211  11.510  0.00  0.00    +0.214 C 
ATOM     18  O   UNL     1      -0.689   0.279  10.870  0.00  0.00    -0.276 OA
ATOM     19  C   UNL     1      -0.911   1.269  13.001  0.00  0.00    +0.109 C 
ATOM     20  H   UNL     1      -2.093   2.977  11.387  0.00  0.00    +0.155 HD
ENDBRANCH  13  16
ENDBRANCH   6  10
BRANCH   1  21
ATOM     21  C   UNL     1      -1.246  -0.105  -0.105  0.00  0.00    +0.162 C 
BRANCH  21  22
ATOM     22  N   UNL     1      -2.077  -0.427  -1.267  0.00  0.00    -0.300 N 
ATOM     23  C   UNL     1      -1.667  -1.357  -2.152  0.00  0.00    +0.245 C 
ATOM     24  O   UNL     1      -0.608  -1.929  -1.986  0.00  0.00    -0.270 OA
ATOM     25  H   UNL     1      -2.922   0.029  -1.400  0.00  0.00    +0.150 HD
BRANCH  23  26
ATOM     26  C   UNL     1      -2.506  -1.681  -3.325  0.00  0.00    +0.037 A 
ATOM     27  C   UNL     1      -3.720  -1.022  -3.522  0.00  0.00    +0.014 A 
ATOM     28  C   UNL     1      -4.499  -1.329  -4.618  0.00  0.00    +0.021 A 
ATOM     29  C   UNL     1      -4.077  -2.289  -5.523  0.00  0.00    +0.041 A 
ATOM     30  C   UNL     1      -2.873  -2.947  -5.333  0.00  0.00    +0.021 A 
ATOM     31  C   UNL     1      -2.084  -2.644  -4.244  0.00  0.00    +0.014 A 
ATOM     32 CL   UNL     1      -5.063  -2.670  -6.900  0.00  0.00    -0.084 Cl
ENDBRANCH  23  26
ENDBRANCH  21  22
BRANCH  21  34
ATOM     33  C   UNL     1       0.759   0.341  -1.528  0.00  0.00    +0.009 C 
ATOM     34  C   UNL     1      -0.201   0.941  -0.498  0.00  0.00    +0.012 C 
ATOM     35  C   UNL     1      -0.902   2.159  -1.104  0.00  0.00    +0.009 C 
ENDBRANCH  21  34
ENDBRANCH   1  21
TORSDOF 6
