REMARK  Name = ZINC36760997
REMARK  5 active torsions:
REMARK  status: ('A' for Active; 'I' for Inactive)
REMARK    1  A    between atoms: C_1  and  C_2
REMARK    2  A    between atoms: C_5  and  N_25
REMARK    3  A    between atoms: C_7  and  S_8
REMARK    4  A    between atoms: S_8  and  N_11
REMARK    5  A    between atoms: C_20  and  C_22
REMARK                            x       y       z     vdW  Elec       q    Type
REMARK                         _______ _______ _______ _____ _____    ______ ____
ROOT
ATOM      1  N   UNL     1       1.605   1.102   3.038  0.00  0.00    -0.160 NA
ATOM      2  C   UNL     1       2.760   0.334   3.514  0.00  0.00    +0.145 C 
ATOM      3  C   UNL     1       3.982   0.705   2.711  0.00  0.00    -0.028 A 
ATOM      4  C   UNL     1       5.113  -0.087   2.849  0.00  0.00    +0.005 A 
ATOM      5  C   UNL     1       6.265   0.207   2.149  0.00  0.00    +0.000 A 
ATOM      6  C   UNL     1       6.292   1.302   1.304  0.00  0.00    +0.000 A 
ATOM      7  C   UNL     1       5.168   2.087   1.163  0.00  0.00    +0.004 A 
ATOM      8  C   UNL     1       4.004   1.789   1.863  0.00  0.00    -0.041 A 
ATOM      9  C   UNL     1       2.808   2.676   1.638  0.00  0.00    +0.065 C 
ATOM     10  C   UNL     1       1.808   2.537   2.777  0.00  0.00    +0.170 C 
ENDROOT
BRANCH  10  11
ATOM     11  C   UNL     1       0.500   3.173   2.383  0.00  0.00    +0.230 C 
ATOM     12  O   UNL     1       0.222   3.313   1.211  0.00  0.00    -0.274 OA
ATOM     13  N   UNL     1      -0.362   3.586   3.333  0.00  0.00    -0.328 N 
ATOM     14  H   UNL     1      -0.140   3.474   4.271  0.00  0.00    +0.145 HD
ATOM     15  H   UNL     1      -1.204   3.996   3.080  0.00  0.00    +0.145 HD
ENDBRANCH  10  11
BRANCH   1  16
ATOM     16  S   UNL     1       0.132   0.383   2.799  0.00  0.00    +0.062 S 
ATOM     17  O   UNL     1       0.361  -1.020   2.796  0.00  0.00    -0.153 OA
ATOM     18  O   UNL     1      -0.476   1.058   1.706  0.00  0.00    -0.153 OA
BRANCH  16  25
ATOM     19  C   UNL     1       0.771  -0.587   5.591  0.00  0.00    +0.046 C 
ATOM     20  C   UNL     1      -0.480   0.241   5.455  0.00  0.00    -0.024 A 
ATOM     21  C   UNL     1      -1.251   0.518   6.569  0.00  0.00    +0.007 A 
ATOM     22  C   UNL     1      -2.398   1.279   6.443  0.00  0.00    +0.033 A 
ATOM     23  C   UNL     1      -2.775   1.762   5.204  0.00  0.00    +0.128 A 
ATOM     24  C   UNL     1      -2.004   1.486   4.091  0.00  0.00    +0.061 A 
ATOM     25  C   UNL     1      -0.854   0.730   4.217  0.00  0.00    +0.111 A 
BRANCH  23  26
ATOM     26  N   UNL     1      -4.005   2.576   5.070  0.00  0.00    +0.056 N 
ATOM     27  O   UNL     1      -4.679   2.817   6.043  0.00  0.00    -0.126 OA
ATOM     28  O   UNL     1      -4.334   2.999   3.986  0.00  0.00    -0.126 OA
ENDBRANCH  23  26
ENDBRANCH  16  25
ENDBRANCH   1  16
TORSDOF 4
