REMARK  Name = ZINC01631335
REMARK  4 active torsions:
REMARK  status: ('A' for Active; 'I' for Inactive)
REMARK    1  A    between atoms: C_1  and  S_2
REMARK    2  A    between atoms: S_2  and  C_3
REMARK    3  A    between atoms: C_10  and  N_19
REMARK    4  A    between atoms: C_11  and  C_13
REMARK                            x       y       z     vdW  Elec       q    Type
REMARK                         _______ _______ _______ _____ _____    ______ ____
ROOT
ATOM      1  C   UNL     1      -2.377   3.613  -0.012  0.00  0.00    +0.192 A 
ATOM      2  N   UNL     1      -1.253   2.949  -0.269  0.00  0.00    -0.205 NA
ATOM      3  C   UNL     1      -1.239   1.628  -0.362  0.00  0.00    +0.148 A 
ATOM      4  C   UNL     1      -2.457   0.924  -0.169  0.00  0.00    +0.148 A 
ATOM      5  C   UNL     1      -3.627   1.674   0.108  0.00  0.00    +0.186 A 
ATOM      6  N   UNL     1      -3.536   3.008   0.176  0.00  0.00    -0.200 NA
ATOM      7  N   UNL     1      -4.790   1.043   0.297  0.00  0.00    -0.209 NA
ATOM      8  C   UNL     1      -4.839  -0.275   0.221  0.00  0.00    +0.145 A 
ATOM      9  C   UNL     1      -3.669  -1.020  -0.056  0.00  0.00    +0.111 A 
ATOM     10  N   UNL     1      -2.515  -0.404  -0.243  0.00  0.00    -0.237 NA
ATOM     11  N   UNL     1      -0.069   0.952  -0.635  0.00  0.00    -0.341 N 
ATOM     12  H   UNL     1      -0.071  -0.017  -0.696  0.00  0.00    +0.144 HD
ATOM     13  H   UNL     1       0.756   1.444  -0.769  0.00  0.00    +0.144 HD
ENDROOT
BRANCH   9  14
ATOM     14  C   UNL     1      -3.738  -2.498  -0.138  0.00  0.00    +0.004 A 
ATOM     15  C   UNL     1      -2.755  -3.278   0.470  0.00  0.00    +0.010 A 
ATOM     16  C   UNL     1      -2.827  -4.654   0.396  0.00  0.00    +0.001 A 
ATOM     17  C   UNL     1      -3.866  -5.259  -0.289  0.00  0.00    +0.000 A 
ATOM     18  C   UNL     1      -4.841  -4.490  -0.899  0.00  0.00    +0.001 A 
ATOM     19  C   UNL     1      -4.782  -3.113  -0.827  0.00  0.00    +0.010 A 
ENDBRANCH   9  14
BRANCH   8  20
ATOM     20  N   UNL     1      -6.041  -0.930   0.415  0.00  0.00    -0.341 N 
ATOM     21  H   UNL     1      -6.060  -1.897   0.487  0.00  0.00    +0.144 HD
ATOM     22  H   UNL     1      -6.865  -0.423   0.480  0.00  0.00    +0.144 HD
ENDBRANCH   8  20
BRANCH   1  24
ATOM     23  C   UNL     1      -0.555   5.642  -0.237  0.00  0.00    +0.093 C 
ATOM     24  S   UNL     1      -2.314   5.371   0.090  0.00  0.00    -0.089 S 
ENDBRANCH   1  24
TORSDOF 3
