REMARK  Name = ZINC13166758
REMARK  7 active torsions:
REMARK  status: ('A' for Active; 'I' for Inactive)
REMARK    1  A    between atoms: C_1  and  N_2
REMARK    2  A    between atoms: N_2  and  C_3
REMARK    3  A    between atoms: N_2  and  S_9
REMARK    4  A    between atoms: S_9  and  C_12
REMARK    5  A    between atoms: C_16  and  C_18
REMARK    6  A    between atoms: N_20  and  C_21
REMARK    7  A    between atoms: C_24  and  C_27
REMARK                            x       y       z     vdW  Elec       q    Type
REMARK                         _______ _______ _______ _____ _____    ______ ____
ROOT
ATOM      1  C   UNL     1       1.679  -1.064  -1.915  0.00  0.00    +0.106 A 
ATOM      2  C   UNL     1       2.317  -0.117  -2.698  0.00  0.00    +0.028 A 
ATOM      3  C   UNL     1       3.636  -0.296  -3.073  0.00  0.00    +0.003 A 
ATOM      4  C   UNL     1       4.325  -1.421  -2.668  0.00  0.00    +0.013 A 
ATOM      5  C   UNL     1       3.688  -2.380  -1.879  0.00  0.00    +0.039 A 
ATOM      6  C   UNL     1       2.358  -2.190  -1.498  0.00  0.00    +0.041 A 
ENDROOT
BRANCH   5   7
ATOM      7  C   UNL     1       4.420  -3.587  -1.441  0.00  0.00    +0.248 C 
ATOM      8  O   UNL     1       3.863  -4.420  -0.754  0.00  0.00    -0.270 OA
ATOM      9  N   UNL     1       5.706  -3.764  -1.805  0.00  0.00    -0.282 N 
ATOM     10  H   UNL     1       6.130  -3.134  -2.408  0.00  0.00    +0.155 HD
BRANCH   9  11
ATOM     11  C   UNL     1       6.424  -4.852  -1.316  0.00  0.00    +0.034 A 
ATOM     12  C   UNL     1       7.780  -4.717  -1.031  0.00  0.00    +0.024 A 
ATOM     13  C   UNL     1       8.491  -5.786  -0.549  0.00  0.00    +0.017 A 
ATOM     14  C   UNL     1       7.851  -7.014  -0.344  0.00  0.00    +0.063 A 
ATOM     15  C   UNL     1       6.488  -7.146  -0.632  0.00  0.00    +0.017 A 
ATOM     16  C   UNL     1       5.783  -6.070  -1.108  0.00  0.00    +0.024 A 
BRANCH  14  17
ATOM     17  C   UNL     1       8.611  -8.164   0.173  0.00  0.00    +0.387 C 
ATOM     18  O   UNL     1       9.803  -8.047   0.424  0.00  0.00    -0.241 OA
ATOM     19  O   UNL     1       8.050  -9.237   0.352  0.00  0.00    -0.241 OA
ENDBRANCH  14  17
ENDBRANCH   9  11
ENDBRANCH   5   7
BRANCH   1  20
ATOM     20  S   UNL     1      -0.002  -0.826  -1.443  0.00  0.00    +0.061 S 
ATOM     21  O   UNL     1      -0.531  -2.115  -1.161  0.00  0.00    -0.153 OA
ATOM     22  O   UNL     1      -0.578   0.038  -2.413  0.00  0.00    -0.153 OA
BRANCH  20  24
ATOM     23  C   UNL     1      -0.017   1.471  -0.015  0.00  0.00    +0.132 C 
ATOM     24  N   UNL     1       0.005   0.006  -0.011  0.00  0.00    -0.177 NA
BRANCH  24  25
ATOM     25  C   UNL     1       0.031  -0.723   1.260  0.00  0.00    +0.080 C 
ATOM     26  C   UNL     1      -1.213  -0.368   2.077  0.00  0.00    +0.020 C 
ATOM     27  C   UNL     1      -1.185  -1.129   3.404  0.00  0.00    +0.002 C 
ATOM     28  C   UNL     1       0.069  -0.739   4.189  0.00  0.00    +0.000 C 
ATOM     29  C   UNL     1       1.313  -1.093   3.372  0.00  0.00    +0.002 C 
ATOM     30  C   UNL     1       1.285  -0.333   2.045  0.00  0.00    +0.020 C 
ENDBRANCH  24  25
ENDBRANCH  20  24
ENDBRANCH   1  20
TORSDOF 6
