REMARK  Name = ZINC39662189
REMARK  5 active torsions:
REMARK  status: ('A' for Active; 'I' for Inactive)
REMARK    1  A    between atoms: C_4  and  C_7
REMARK    2  A    between atoms: C_7  and  C_9
REMARK    3  A    between atoms: C_7  and  N_11
REMARK    4  A    between atoms: C_12  and  C_14
REMARK    5  A    between atoms: C_25  and  C_27
REMARK                            x       y       z     vdW  Elec       q    Type
REMARK                         _______ _______ _______ _____ _____    ______ ____
ROOT
ATOM      1  C   UNL     1       4.662  -3.583   2.296  0.00  0.00    +0.100 C 
ATOM      2  C   UNL     1       4.006  -4.776   1.565  0.00  0.00    +0.121 C 
ATOM      3  N   UNL     1       5.145  -5.561   1.033  0.00  0.00    -0.296 N 
ATOM      4  C   UNL     1       6.164  -5.508   2.109  0.00  0.00    +0.115 C 
ATOM      5  C   UNL     1       6.076  -4.069   2.655  0.00  0.00    -0.004 C 
ATOM      6  C   UNL     1       6.269  -4.065   4.168  0.00  0.00    -0.010 C 
ATOM      7  C   UNL     1       7.701  -4.496   4.497  0.00  0.00    -0.082 C 
ATOM      8  N   UNL     1       8.649  -3.574   3.861  0.00  0.00    +0.379 N 
ATOM      9  C   UNL     1       8.522  -3.652   2.401  0.00  0.00    -0.082 C 
ATOM     10  C   UNL     1       7.124  -3.186   1.983  0.00  0.00    -0.010 C 
ATOM     11  C   UNL     1       5.234  -6.183  -0.159  0.00  0.00    +0.248 C 
ATOM     12  O   UNL     1       4.347  -6.054  -0.980  0.00  0.00    -0.270 OA
ATOM     13  H   UNL     1       8.455  -2.631   4.164  0.00  0.00    -0.086 HD
ATOM     14  H   UNL     1       9.590  -3.823   4.129  0.00  0.00    -0.086 HD
ENDROOT
BRANCH  11  15
ATOM     15  C   UNL     1       6.410  -7.022  -0.468  0.00  0.00    +0.055 A 
ATOM     16  C   UNL     1       7.022  -7.771   0.539  0.00  0.00    +0.016 A 
ATOM     17  C   UNL     1       8.119  -8.551   0.244  0.00  0.00    +0.021 A 
ATOM     18  C   UNL     1       8.617  -8.594  -1.048  0.00  0.00    +0.042 A 
ATOM     19  C   UNL     1       8.016  -7.854  -2.052  0.00  0.00    +0.040 A 
ATOM     20  C   UNL     1       6.912  -7.073  -1.772  0.00  0.00    +0.054 A 
ATOM     21 CL   UNL     1       6.155  -6.151  -3.033  0.00  0.00    -0.083 Cl
ATOM     22 CL   UNL     1      10.000  -9.579  -1.410  0.00  0.00    -0.083 Cl
ENDBRANCH  11  15
BRANCH   1  24
ATOM     23  N   UNL     1       4.673  -1.141   1.901  0.00  0.00    -0.296 N 
ATOM     24  C   UNL     1       4.734  -2.385   1.385  0.00  0.00    +0.219 C 
ATOM     25  O   UNL     1       4.847  -2.539   0.187  0.00  0.00    -0.275 OA
ATOM     26  H   UNL     1       4.582  -1.018   2.859  0.00  0.00    +0.150 HD
BRANCH  23  27
ATOM     27  C   UNL     1       4.743   0.024   1.015  0.00  0.00    +0.207 C 
BRANCH  27  31
ATOM     28  C   UNL     1       6.212   3.388   3.199  0.00  0.00    +0.000 A 
ATOM     29  C   UNL     1       6.630   3.171   1.900  0.00  0.00    +0.000 A 
ATOM     30  C   UNL     1       6.155   2.083   1.193  0.00  0.00    +0.006 A 
ATOM     31  C   UNL     1       5.262   1.210   1.786  0.00  0.00    -0.013 A 
ATOM     32  C   UNL     1       4.844   1.426   3.086  0.00  0.00    +0.006 A 
ATOM     33  C   UNL     1       5.319   2.516   3.792  0.00  0.00    +0.000 A 
ENDBRANCH  27  31
BRANCH  27  34
ATOM     34  C   UNL     1       3.399   0.326   0.495  0.00  0.00    +0.090 C 
ATOM     35  N   UNL     1       2.362   0.559   0.094  0.00  0.00    -0.194 NA
ENDBRANCH  27  34
ENDBRANCH  23  27
ENDBRANCH   1  24
TORSDOF 5
