REMARK  Name = ZINC07623541
REMARK  10 active torsions:
REMARK  status: ('A' for Active; 'I' for Inactive)
REMARK    1  A    between atoms: C_1  and  C_2
REMARK    2  A    between atoms: C_5  and  N_8
REMARK    3  A    between atoms: C_9  and  C_11
REMARK    4  A    between atoms: C_11  and  N_51
REMARK    5  A    between atoms: C_12  and  N_51
REMARK    6  A    between atoms: C_13  and  C_14
REMARK    7  A    between atoms: C_13  and  N_51
REMARK    8  A    between atoms: N_16  and  C_17
REMARK    9  A    between atoms: C_20  and  N_23
REMARK   10  A    between atoms: C_24  and  C_26
REMARK                            x       y       z     vdW  Elec       q    Type
REMARK                         _______ _______ _______ _____ _____    ______ ____
ROOT
ATOM      1  C   UNL     1       2.433   0.576   0.607  0.00  0.00    +0.019 C 
ENDROOT
BRANCH   1   2
ATOM      2  C   UNL     1       1.192   1.410   0.418  0.00  0.00    +0.201 C 
ATOM      3  O   UNL     1       1.275   2.619   0.362  0.00  0.00    -0.278 OA
ATOM      4  N   UNL     1      -0.012   0.812   0.311  0.00  0.00    -0.287 N 
ATOM      5  H   UNL     1      -0.072  -0.156   0.288  0.00  0.00    +0.155 HD
BRANCH   4   6
ATOM      6  C   UNL     1      -1.174   1.589   0.227  0.00  0.00    +0.033 A 
ATOM      7  C   UNL     1      -2.351   1.142   0.813  0.00  0.00    +0.025 A 
ATOM      8  C   UNL     1      -3.496   1.910   0.736  0.00  0.00    +0.025 A 
ATOM      9  C   UNL     1      -3.473   3.123   0.061  0.00  0.00    +0.033 A 
ATOM     10  C   UNL     1      -2.298   3.567  -0.530  0.00  0.00    +0.025 A 
ATOM     11  C   UNL     1      -1.152   2.803  -0.447  0.00  0.00    +0.025 A 
BRANCH   9  12
ATOM     12  N   UNL     1      -4.636   3.900  -0.022  0.00  0.00    -0.286 N 
ATOM     13  C   UNL     1      -5.506   3.923   1.006  0.00  0.00    +0.214 C 
ATOM     14  O   UNL     1      -5.237   3.351   2.041  0.00  0.00    -0.276 OA
ATOM     15  C   UNL     1      -6.814   4.660   0.871  0.00  0.00    +0.109 C 
ATOM     16  H   UNL     1      -4.815   4.421  -0.821  0.00  0.00    +0.155 HD
ENDBRANCH   9  12
ENDBRANCH   4   6
ENDBRANCH   1   2
BRANCH   1  18
ATOM     17  C   UNL     1       3.840   2.150  -0.579  0.00  0.00    -0.095 C 
ATOM     18  N   UNL     1       3.600   1.477   0.715  0.00  0.00    +0.389 N 
ATOM     19  H   UNL     1       3.407   2.188   1.430  0.00  0.00    -0.081 HD
BRANCH  18  20
ATOM     20  C   UNL     1       4.797   0.707   1.114  0.00  0.00    +0.019 C 
BRANCH  20  22
ATOM     21  N   UNL     1       7.109   1.206   1.838  0.00  0.00    -0.287 N 
ATOM     22  C   UNL     1       5.912   1.671   1.430  0.00  0.00    +0.201 C 
ATOM     23  O   UNL     1       5.731   2.865   1.317  0.00  0.00    -0.278 OA
ATOM     24  H   UNL     1       7.281   0.251   1.847  0.00  0.00    +0.155 HD
BRANCH  21  29
ATOM     25  C   UNL     1      11.144   4.831   3.499  0.00  0.00    +0.044 C 
ATOM     26  C   UNL     1      10.072   3.868   3.058  0.00  0.00    -0.050 A 
ATOM     27  C   UNL     1       8.740   4.227   3.154  0.00  0.00    +0.005 A 
ATOM     28  C   UNL     1       7.755   3.346   2.751  0.00  0.00    +0.023 A 
ATOM     29  C   UNL     1       8.104   2.100   2.248  0.00  0.00    +0.033 A 
ATOM     30  C   UNL     1       9.443   1.740   2.157  0.00  0.00    +0.023 A 
ATOM     31  C   UNL     1      10.423   2.628   2.557  0.00  0.00    +0.005 A 
ENDBRANCH  21  29
ENDBRANCH  20  22
ENDBRANCH  18  20
ENDBRANCH   1  18
TORSDOF 7
