REMARK  Name = ZINC56719765
REMARK  3 active torsions:
REMARK  status: ('A' for Active; 'I' for Inactive)
REMARK    1  A    between atoms: C_1  and  C_2
REMARK    2  A    between atoms: C_9  and  C_11
REMARK    3  A    between atoms: N_19  and  C_20
REMARK                            x       y       z     vdW  Elec       q    Type
REMARK                         _______ _______ _______ _____ _____    ______ ____
ROOT
ATOM      1  C   UNL     1       0.163  -6.793  -0.499  0.00  0.00    +0.078 C 
ATOM      2  C   UNL     1      -0.717  -7.607   0.453  0.00  0.00    +0.032 C 
ATOM      3  C   UNL     1      -0.658  -9.086   0.058  0.00  0.00    +0.110 C 
ATOM      4  N   UNL     1      -1.024  -9.212  -1.359  0.00  0.00    -0.285 N 
ATOM      5  C   UNL     1      -0.301  -8.405  -2.350  0.00  0.00    +0.110 C 
ATOM      6  C   UNL     1      -0.364  -6.933  -1.929  0.00  0.00    +0.032 C 
ATOM      7  C   UNL     1      -2.005 -10.053  -1.742  0.00  0.00    +0.307 C 
ATOM      8  O   UNL     1      -2.679 -10.622  -0.905  0.00  0.00    -0.252 OA
ATOM      9  N   UNL     1      -2.239 -10.264  -3.053  0.00  0.00    -0.266 N 
ATOM     10  H   UNL     1      -1.762  -9.745  -3.720  0.00  0.00    +0.156 HD
ENDROOT
BRANCH   1  19
ATOM     11  C   UNL     1      -0.008   0.385   2.728  0.00  0.00    +0.045 C 
ATOM     12  C   UNL     1       0.155  -1.061   2.336  0.00  0.00    -0.032 A 
ATOM     13  C   UNL     1       0.613  -1.991   3.260  0.00  0.00    +0.008 A 
ATOM     14  C   UNL     1       0.748  -3.308   2.858  0.00  0.00    +0.044 A 
ATOM     15  C   UNL     1       0.423  -3.654   1.552  0.00  0.00    +0.125 A 
ATOM     16  N   UNL     1      -0.010  -2.738   0.700  0.00  0.00    -0.240 NA
ATOM     17  C   UNL     1      -0.155  -1.476   1.056  0.00  0.00    +0.116 A 
ATOM     18  N   UNL     1       0.555  -4.977   1.134  0.00  0.00    -0.270 N 
ATOM     19  C   UNL     1       0.134  -5.342  -0.093  0.00  0.00    +0.221 C 
ATOM     20  O   UNL     1      -0.268  -4.503  -0.870  0.00  0.00    -0.275 OA
ATOM     21  H   UNL     1       0.951  -5.636   1.727  0.00  0.00    +0.156 HD
ENDBRANCH   1  19
BRANCH   9  22
ATOM     22  C   UNL     1      -3.171 -11.232  -3.452  0.00  0.00    +0.080 A 
ATOM     23  C   UNL     1      -4.268 -11.512  -2.650  0.00  0.00    +0.027 A 
ATOM     24  C   UNL     1      -5.186 -12.467  -3.043  0.00  0.00    +0.006 A 
ATOM     25  C   UNL     1      -5.014 -13.146  -4.234  0.00  0.00    +0.049 A 
ATOM     26  C   UNL     1      -3.920 -12.873  -5.043  0.00  0.00    +0.164 A 
ATOM     27  C   UNL     1      -2.999 -11.909  -4.656  0.00  0.00    +0.183 A 
ATOM     28  O   UNL     1      -1.925 -11.616  -5.441  0.00  0.00    -0.483 OA
ATOM     29  C   UNL     1      -1.586 -12.572  -6.452  0.00  0.00    +0.270 C 
ATOM     30  C   UNL     1      -2.875 -12.979  -7.178  0.00  0.00    +0.270 C 
ATOM     31  O   UNL     1      -3.765 -13.555  -6.211  0.00  0.00    -0.485 OA
ENDBRANCH   9  22
TORSDOF 2
