REMARK  Name = ZINC02250282
REMARK  7 active torsions:
REMARK  status: ('A' for Active; 'I' for Inactive)
REMARK    1  A    between atoms: C_1  and  O_2
REMARK    2  A    between atoms: O_2  and  C_3
REMARK    3  A    between atoms: C_8  and  C_9
REMARK    4  A    between atoms: C_10  and  C_11
REMARK    5  A    between atoms: N_13  and  C_14
REMARK    6  A    between atoms: C_17  and  C_31
REMARK    7  A    between atoms: C_20  and  C_24
REMARK                            x       y       z     vdW  Elec       q    Type
REMARK                         _______ _______ _______ _____ _____    ______ ____
ROOT
ATOM      1  C   UNL     1       2.198  -6.991  -0.055  0.00  0.00    +0.241 C 
ATOM      2  N   UNL     1       3.413  -6.504  -0.058  0.00  0.00    -0.140 NA
ATOM      3  N   UNL     1       4.313  -7.571  -0.074  0.00  0.00    -0.180 N 
ATOM      4  C   UNL     1       5.780  -7.649  -0.084  0.00  0.00    +0.156 C 
ATOM      5  C   UNL     1       6.382  -9.042  -0.102  0.00  0.00    +0.030 C 
ATOM      6  C   UNL     1       5.529 -10.084  -0.106  0.00  0.00    +0.073 C 
ATOM      7  N   UNL     1       4.185  -9.903  -0.096  0.00  0.00    -0.217 NA
ATOM      8  C   UNL     1       3.594  -8.730  -0.080  0.00  0.00    +0.211 C 
ATOM      9  N   UNL     1       2.270  -8.371  -0.063  0.00  0.00    -0.254 N 
ATOM     10  H   UNL     1       1.515  -8.981  -0.060  0.00  0.00    +0.158 HD
ENDROOT
BRANCH   6  11
ATOM     11  C   UNL     1       6.073 -11.465  -0.123  0.00  0.00    +0.000 A 
ATOM     12  C   UNL     1       7.451 -11.673  -0.129  0.00  0.00    +0.011 A 
ATOM     13  C   UNL     1       7.953 -12.958  -0.144  0.00  0.00    +0.020 A 
ATOM     14  C   UNL     1       7.089 -14.040  -0.154  0.00  0.00    +0.041 A 
ATOM     15  C   UNL     1       5.720 -13.839  -0.149  0.00  0.00    +0.020 A 
ATOM     16  C   UNL     1       5.208 -12.557  -0.129  0.00  0.00    +0.011 A 
ATOM     17 CL   UNL     1       7.726 -15.655  -0.175  0.00  0.00    -0.084 Cl
ENDBRANCH   6  11
BRANCH   4  18
ATOM     18  C   UNL     1       6.295  -6.934   1.138  0.00  0.00    -0.021 A 
ATOM     19  C   UNL     1       5.641  -7.075   2.348  0.00  0.00    +0.008 A 
ATOM     20  C   UNL     1       6.112  -6.420   3.470  0.00  0.00    +0.038 A 
ATOM     21  C   UNL     1       7.240  -5.622   3.382  0.00  0.00    +0.123 A 
ATOM     22  C   UNL     1       7.895  -5.481   2.170  0.00  0.00    +0.038 A 
ATOM     23  C   UNL     1       7.424  -6.141   1.051  0.00  0.00    +0.008 A 
ATOM     24  F   UNL     1       7.702  -4.981   4.478  0.00  0.00    -0.205 F 
ENDBRANCH   4  18
BRANCH   1  27
ATOM     25  C   UNL     1       1.114  -4.944  -0.034  0.00  0.00    +0.273 C 
ATOM     26  O   UNL     1       2.315  -4.321  -0.042  0.00  0.00    -0.266 OA
ATOM     27  N   UNL     1       1.054  -6.260  -0.041  0.00  0.00    -0.174 NA
BRANCH  25  29
ATOM     28  C   UNL     1      -0.019  -2.831  -0.013  0.00  0.00    +0.017 C 
ATOM     29  C   UNL     1      -0.080  -4.181  -0.019  0.00  0.00    +0.073 C 
BRANCH  28  35
ATOM     30  C   UNL     1      -1.199  -0.637   0.010  0.00  0.00    +0.127 A 
ATOM     31  C   UNL     1      -2.373   0.099   0.019  0.00  0.00    +0.046 A 
ATOM     32  C   UNL     1      -3.595  -0.546   0.028  0.00  0.00    +0.004 A 
ATOM     33  C   UNL     1      -3.658  -1.930   0.026  0.00  0.00    +0.001 A 
ATOM     34  C   UNL     1      -2.501  -2.679   0.017  0.00  0.00    +0.011 A 
ATOM     35  C   UNL     1      -1.257  -2.039   0.003  0.00  0.00    +0.017 A 
BRANCH  30  37
ATOM     36  C   UNL     1      -0.017   1.425   0.010  0.00  0.00    +0.277 C 
ATOM     37  O   UNL     1       0.002  -0.004   0.002  0.00  0.00    -0.495 OA
ENDBRANCH  30  37
ENDBRANCH  28  35
ENDBRANCH  25  29
ENDBRANCH   1  27
TORSDOF 6
