REMARK  Name = ZINC01073600
REMARK  6 active torsions:
REMARK  status: ('A' for Active; 'I' for Inactive)
REMARK    1  A    between atoms: C_1  and  C_2
REMARK    2  A    between atoms: C_2  and  C_27
REMARK    3  A    between atoms: C_6  and  C_14
REMARK    4  A    between atoms: C_8  and  C_12
REMARK    5  A    between atoms: C_9  and  N_11
REMARK    6  A    between atoms: C_17  and  C_20
REMARK                            x       y       z     vdW  Elec       q    Type
REMARK                         _______ _______ _______ _____ _____    ______ ____
ROOT
ATOM      1  C   UNL     1       0.002  -0.004   0.002  0.00  0.00    +0.011 C 
ATOM      2  C   UNL     1      -0.019   1.526   0.010  0.00  0.00    -0.023 C 
ATOM      3  C   UNL     1      -0.748   2.026   1.257  0.00  0.00    +0.049 C 
ATOM      4  C   UNL     1      -0.802   3.540   1.253  0.00  0.00    -0.001 C 
ATOM      5  C   UNL     1      -0.852   4.220   0.092  0.00  0.00    +0.017 C 
ATOM      6  C   UNL     1      -0.909   5.719   0.013  0.00  0.00    +0.096 C 
ATOM      7  C   UNL     1      -1.587   6.364   1.169  0.00  0.00    +0.068 C 
ATOM      8  C   UNL     1      -1.593   5.863   2.417  0.00  0.00    +0.078 C 
ATOM      9  S   UNL     1      -0.806   4.349   2.818  0.00  0.00    -0.078 S 
ATOM     10  C   UNL     1      -0.850   3.538  -1.143  0.00  0.00    +0.161 C 
ATOM     11  O   UNL     1      -0.911   4.181  -2.173  0.00  0.00    -0.292 OA
ATOM     12  C   UNL     1      -0.774   2.041  -1.220  0.00  0.00    +0.086 C 
ATOM     13  C   UNL     1       1.414   2.062  -0.000  0.00  0.00    +0.011 C 
ENDROOT
BRANCH   6  14
ATOM     14  C   UNL     1       0.500   6.248  -0.072  0.00  0.00    -0.035 A 
ATOM     15  C   UNL     1       1.397   5.992   0.948  0.00  0.00    +0.005 A 
ATOM     16  C   UNL     1       2.691   6.474   0.867  0.00  0.00    +0.012 A 
ATOM     17  C   UNL     1       3.083   7.220  -0.228  0.00  0.00    +0.055 A 
ATOM     18  C   UNL     1       2.184   7.480  -1.246  0.00  0.00    +0.012 A 
ATOM     19  C   UNL     1       0.892   6.995  -1.167  0.00  0.00    +0.005 A 
BRANCH  17  20
ATOM     20  C   UNL     1       4.492   7.750  -0.313  0.00  0.00    +0.417 C 
ATOM     21  F   UNL     1       4.549   9.017   0.277  0.00  0.00    -0.166 F 
ATOM     22  F   UNL     1       5.358   6.882   0.360  0.00  0.00    -0.166 F 
ATOM     23  F   UNL     1       4.875   7.843  -1.656  0.00  0.00    -0.166 F 
ENDBRANCH  17  20
ENDBRANCH   6  14
BRANCH   8  24
ATOM     24  N   UNL     1      -2.237   6.562   3.411  0.00  0.00    -0.352 N 
ATOM     25  H   UNL     1      -2.252   6.169   4.439  0.00  0.00    +0.143 HD
ATOM     26  H   UNL     1      -2.736   7.514   3.179  0.00  0.00    +0.143 HD
ENDBRANCH   8  24
BRANCH   7  27
ATOM     27  C   UNL     1      -2.278   7.597   0.937  0.00  0.00    +0.098 C 
ATOM     28  N   UNL     1      -2.826   8.575   0.754  0.00  0.00    -0.191 NA
ENDBRANCH   7  27
TORSDOF 4
