REMARK  Name = ZINC12881564
REMARK  5 active torsions:
REMARK  status: ('A' for Active; 'I' for Inactive)
REMARK    1  A    between atoms: C_1  and  C_2
REMARK    2  A    between atoms: C_7  and  N_8
REMARK    3  A    between atoms: C_9  and  C_11
REMARK    4  A    between atoms: C_11  and  N_53
REMARK    5  A    between atoms: C_15  and  C_17
REMARK                            x       y       z     vdW  Elec       q    Type
REMARK                         _______ _______ _______ _____ _____    ______ ____
ROOT
ATOM      1  C   UNL     1      -0.790   1.611  -1.218  0.00  0.00    -0.077 C 
ATOM      2  C   UNL     1       0.002   1.079  -0.009  0.00  0.00    -0.020 C 
ATOM      3  C   UNL     1      -0.753   1.604   1.234  0.00  0.00    -0.013 C 
ATOM      4  C   UNL     1      -1.539   2.818   0.673  0.00  0.00    -0.037 C 
ATOM      5  N   UNL     1      -1.927   2.349  -0.667  0.00  0.00    +0.390 N 
ATOM      6  H   UNL     1      -2.742   1.728  -0.595  0.00  0.00    -0.080 HD
ENDROOT
BRANCH   4   7
ATOM      7  C   UNL     1      -2.750   3.106   1.522  0.00  0.00    -0.057 A 
ATOM      8  C   UNL     1      -3.853   2.274   1.454  0.00  0.00    +0.006 A 
ATOM      9  C   UNL     1      -4.968   2.532   2.231  0.00  0.00    +0.049 A 
ATOM     10  C   UNL     1      -4.977   3.628   3.077  0.00  0.00    +0.162 A 
ATOM     11  C   UNL     1      -3.871   4.462   3.145  0.00  0.00    +0.162 A 
ATOM     12  C   UNL     1      -2.754   4.198   2.370  0.00  0.00    +0.051 A 
ATOM     13  O   UNL     1      -3.889   5.540   3.981  0.00  0.00    -0.488 OA
ATOM     14  C   UNL     1      -3.883   5.246   5.380  0.00  0.00    +0.232 C 
ATOM     15  C   UNL     1      -5.294   4.974   5.879  0.00  0.00    +0.082 C 
ATOM     16  C   UNL     1      -5.898   3.726   5.256  0.00  0.00    +0.232 C 
ATOM     17  O   UNL     1      -6.071   3.894   3.848  0.00  0.00    -0.488 OA
ENDBRANCH   4   7
BRANCH   5  18
ATOM     18  C   UNL     1      -2.272   3.509  -1.544  0.00  0.00    +0.020 C 
BRANCH  18  20
ATOM     19  N   UNL     1      -3.221   3.888  -3.796  0.00  0.00    -0.287 N 
ATOM     20  C   UNL     1      -2.846   3.010  -2.845  0.00  0.00    +0.201 C 
ATOM     21  O   UNL     1      -2.971   1.819  -3.036  0.00  0.00    -0.278 OA
ATOM     22  H   UNL     1      -3.197   4.840  -3.614  0.00  0.00    +0.155 HD
BRANCH  19  29
ATOM     23  C   UNL     1      -4.964   5.543  -5.320  0.00  0.00    +0.046 C 
ATOM     24  C   UNL     1      -4.497   4.201  -5.823  0.00  0.00    -0.028 A 
ATOM     25  C   UNL     1      -4.910   3.744  -7.060  0.00  0.00    +0.019 A 
ATOM     26  C   UNL     1      -4.487   2.510  -7.519  0.00  0.00    +0.014 A 
ATOM     27  C   UNL     1      -3.644   1.733  -6.745  0.00  0.00    +0.016 A 
ATOM     28  C   UNL     1      -3.223   2.187  -5.511  0.00  0.00    +0.024 A 
ATOM     29  C   UNL     1      -3.646   3.425  -5.047  0.00  0.00    +0.036 A 
ATOM     30  I   UNL     1      -5.123   1.817  -9.391  0.00  0.00    -0.044 I 
ENDBRANCH  19  29
ENDBRANCH  18  20
ENDBRANCH   5  18
TORSDOF 4
