REMARK  Name = ZINC39037457
REMARK  8 active torsions:
REMARK  status: ('A' for Active; 'I' for Inactive)
REMARK    1  A    between atoms: C_1  and  C_2
REMARK    2  A    between atoms: C_5  and  N_9
REMARK    3  A    between atoms: C_7  and  C_8
REMARK    4  A    between atoms: C_10  and  N_12
REMARK    5  A    between atoms: C_16  and  C_19
REMARK    6  A    between atoms: C_24  and  S_25
REMARK    7  A    between atoms: S_25  and  C_26
REMARK    8  A    between atoms: C_26  and  C_27
REMARK                            x       y       z     vdW  Elec       q    Type
REMARK                         _______ _______ _______ _____ _____    ______ ____
ROOT
ATOM      1  N   UNL     1      -0.124  -6.179  -1.187  0.00  0.00    -0.136 NA
ATOM      2  C   UNL     1      -0.221  -6.835  -2.329  0.00  0.00    +0.203 C 
ATOM      3  N   UNL     1      -0.322  -8.191  -2.548  0.00  0.00    -0.153 NA
ATOM      4  N   UNL     1      -0.407  -8.707  -3.640  0.00  0.00    -0.289 N 
ATOM      5  C   UNL     1      -0.404  -7.832  -4.836  0.00  0.00    +0.194 C 
ATOM      6  S   UNL     1      -0.263  -6.192  -4.002  0.00  0.00    -0.056 S 
ATOM      7  H   UNL     1      -0.476  -9.670  -3.730  0.00  0.00    +0.184 HD
ENDROOT
BRANCH   5   8
ATOM      8  C   UNL     1       0.784  -8.111  -5.720  0.00  0.00    -0.000 A 
ATOM      9  C   UNL     1       1.515  -9.270  -5.549  0.00  0.00    +0.007 A 
ATOM     10  C   UNL     1       2.605  -9.528  -6.360  0.00  0.00    +0.000 A 
ATOM     11  C   UNL     1       2.967  -8.627  -7.345  0.00  0.00    +0.001 A 
ATOM     12  C   UNL     1       2.241  -7.466  -7.521  0.00  0.00    +0.015 A 
ATOM     13  C   UNL     1       1.141  -7.206  -6.712  0.00  0.00    +0.014 A 
BRANCH  13  14
ATOM     14  S   UNL     1       0.207  -5.729  -6.938  0.00  0.00    -0.120 S 
BRANCH  14  15
ATOM     15  C   UNL     1       1.038  -4.891  -8.315  0.00  0.00    +0.109 C 
BRANCH  15  16
ATOM     16  C   UNL     1       0.329  -3.595  -8.616  0.00  0.00    -0.037 A 
ATOM     17  C   UNL     1      -0.711  -3.572  -9.525  0.00  0.00    +0.007 A 
ATOM     18  C   UNL     1      -1.362  -2.385  -9.801  0.00  0.00    +0.038 A 
ATOM     19  C   UNL     1      -0.972  -1.218  -9.166  0.00  0.00    +0.123 A 
ATOM     20  C   UNL     1       0.071  -1.243  -8.255  0.00  0.00    +0.038 A 
ATOM     21  C   UNL     1       0.717  -2.432  -7.977  0.00  0.00    +0.007 A 
ATOM     22  F   UNL     1      -1.607  -0.056  -9.435  0.00  0.00    -0.205 F 
ENDBRANCH  15  16
ENDBRANCH  14  15
ENDBRANCH  13  14
ENDBRANCH   5   8
BRANCH   1  24
ATOM     23  N   UNL     1       0.059  -4.169  -0.021  0.00  0.00    -0.268 N 
ATOM     24  C   UNL     1      -0.040  -4.838  -1.187  0.00  0.00    +0.330 C 
ATOM     25  O   UNL     1      -0.054  -4.227  -2.240  0.00  0.00    -0.250 OA
ATOM     26  H   UNL     1       0.147  -4.657   0.812  0.00  0.00    +0.156 HD
BRANCH  23  31
ATOM     27  C   UNL     1      -0.042   1.502   0.012  0.00  0.00    +0.044 C 
ATOM     28  C   UNL     1      -0.015  -0.004   0.003  0.00  0.00    -0.047 A 
ATOM     29  C   UNL     1       0.747  -0.686   0.934  0.00  0.00    +0.005 A 
ATOM     30  C   UNL     1       0.774  -2.067   0.929  0.00  0.00    +0.023 A 
ATOM     31  C   UNL     1       0.033  -2.771  -0.013  0.00  0.00    +0.035 A 
ATOM     32  C   UNL     1      -0.731  -2.083  -0.946  0.00  0.00    +0.027 A 
ATOM     33  C   UNL     1      -0.757  -0.702  -0.932  0.00  0.00    -0.046 A 
ATOM     34  C   UNL     1      -1.591   0.045  -1.941  0.00  0.00    +0.044 C 
ENDBRANCH  23  31
ENDBRANCH   1  24
TORSDOF 6
