REMARK  Name = ZINC09559543
REMARK  9 active torsions:
REMARK  status: ('A' for Active; 'I' for Inactive)
REMARK    1  A    between atoms: C_1  and  O_2
REMARK    2  A    between atoms: O_2  and  C_3
REMARK    3  A    between atoms: C_6  and  C_9
REMARK    4  A    between atoms: C_9  and  N_10
REMARK    5  A    between atoms: C_11  and  C_13
REMARK    6  A    between atoms: C_16  and  C_19
REMARK    7  A    between atoms: C_19  and  N_20
REMARK    8  A    between atoms: N_20  and  S_21
REMARK    9  A    between atoms: S_21  and  C_24
REMARK                            x       y       z     vdW  Elec       q    Type
REMARK                         _______ _______ _______ _____ _____    ______ ____
ROOT
ATOM      1  C   UNL     1       1.280   1.980   0.001  0.00  0.00    +0.075 C 
ATOM      2  C   UNL     1       1.337   2.867  -1.245  0.00  0.00    +0.013 C 
ATOM      3  C   UNL     1       2.652   3.650  -1.253  0.00  0.00    +0.005 C 
ATOM      4  C   UNL     1       3.828   2.672  -1.270  0.00  0.00    +0.005 C 
ATOM      5  C   UNL     1       3.771   1.784  -0.024  0.00  0.00    +0.005 C 
ATOM      6  C   UNL     1       2.457   1.002  -0.016  0.00  0.00    +0.013 C 
ENDROOT
BRANCH   1   8
ATOM      7  N   UNL     1      -1.191   1.867   0.018  0.00  0.00    -0.311 N 
ATOM      8  C   UNL     1      -0.014   1.209   0.009  0.00  0.00    +0.216 C 
ATOM      9  O   UNL     1       0.002  -0.004   0.002  0.00  0.00    -0.276 OA
ATOM     10  H   UNL     1      -1.204   2.837   0.023  0.00  0.00    +0.149 HD
BRANCH   7  11
ATOM     11  C   UNL     1      -2.449   1.117   0.020  0.00  0.00    +0.139 C 
BRANCH  11  15
ATOM     12  C   UNL     1      -5.735   3.849   0.050  0.00  0.00    +0.120 A 
ATOM     13  C   UNL     1      -5.206   3.412  -1.155  0.00  0.00    +0.046 A 
ATOM     14  C   UNL     1      -4.144   2.528  -1.163  0.00  0.00    +0.009 A 
ATOM     15  C   UNL     1      -3.608   2.080   0.030  0.00  0.00    -0.030 A 
ATOM     16  C   UNL     1      -4.136   2.511   1.233  0.00  0.00    +0.009 A 
ATOM     17  C   UNL     1      -5.195   3.399   1.246  0.00  0.00    +0.046 A 
BRANCH  12  19
ATOM     18  C   UNL     1      -7.272   5.127   1.338  0.00  0.00    +0.277 C 
ATOM     19  O   UNL     1      -6.779   4.719   0.060  0.00  0.00    -0.495 OA
ENDBRANCH  12  19
ENDBRANCH  11  15
ENDBRANCH   7  11
ENDBRANCH   1   8
BRANCH   4  20
ATOM     20  C   UNL     1       5.143   3.455  -1.278  0.00  0.00    +0.109 C 
BRANCH  20  21
ATOM     21  N   UNL     1       5.252   4.213  -2.527  0.00  0.00    -0.189 NA
ATOM     22  H   UNL     1       4.670   4.003  -3.274  0.00  0.00    +0.148 HD
BRANCH  21  23
ATOM     23  S   UNL     1       6.368   5.428  -2.663  0.00  0.00    +0.065 S 
ATOM     24  O   UNL     1       6.247   5.945  -3.981  0.00  0.00    -0.153 OA
ATOM     25  O   UNL     1       6.224   6.244  -1.508  0.00  0.00    -0.153 OA
BRANCH  23  26
ATOM     26  C   UNL     1       7.963   4.685  -2.558  0.00  0.00    +0.143 A 
ATOM     27  C   UNL     1       8.744   4.198  -3.553  0.00  0.00    +0.037 A 
ATOM     28  C   UNL     1       9.974   3.653  -3.233  0.00  0.00    +0.025 A 
ATOM     29  C   UNL     1      10.361   3.620  -1.933  0.00  0.00    +0.057 A 
ATOM     30  S   UNL     1       8.970   4.384  -1.115  0.00  0.00    -0.062 S 
ATOM     31 BR   UNL     1      11.962   2.949  -1.184  0.00  0.00    -0.043 Br
ENDBRANCH  23  26
ENDBRANCH  21  23
ENDBRANCH  20  21
ENDBRANCH   4  20
TORSDOF 8
