REMARK  Name = ZINC16805233
REMARK  7 active torsions:
REMARK  status: ('A' for Active; 'I' for Inactive)
REMARK    1  A    between atoms: C_4  and  C_7
REMARK    2  A    between atoms: C_16  and  C_19
REMARK    3  A    between atoms: C_19  and  O_21
REMARK    4  A    between atoms: O_21  and  C_22
REMARK    5  A    between atoms: C_22  and  C_23
REMARK    6  A    between atoms: C_32  and  S_34
REMARK    7  A    between atoms: S_34  and  N_37
REMARK                            x       y       z     vdW  Elec       q    Type
REMARK                         _______ _______ _______ _____ _____    ______ ____
ROOT
ATOM      1  O   UNL     1       5.564  -5.305  -0.080  0.00  0.00    -0.455 OA
ENDROOT
BRANCH   1   2
ATOM      2  C   UNL     1       4.532  -4.447  -0.065  0.00  0.00    +0.314 C 
ATOM      3  O   UNL     1       3.398  -4.865  -0.055  0.00  0.00    -0.250 OA
BRANCH   2  11
ATOM      4  C   UNL     1       3.711  -0.707  -0.038  0.00  0.00    -0.003 C 
ATOM      5  C   UNL     1       4.495  -0.320  -1.293  0.00  0.00    +0.015 C 
ATOM      6  C   UNL     1       5.830  -1.067  -1.311  0.00  0.00    -0.009 C 
ATOM      7  C   UNL     1       6.641  -0.693  -0.068  0.00  0.00    +0.007 C 
ATOM      8  C   UNL     1       5.857  -1.080   1.187  0.00  0.00    -0.009 C 
ATOM      9  C   UNL     1       4.521  -0.333   1.205  0.00  0.00    +0.015 C 
ATOM     10  C   UNL     1       5.598  -2.588   1.183  0.00  0.00    +0.021 C 
ATOM     11  C   UNL     1       4.787  -2.962  -0.060  0.00  0.00    +0.069 C 
ATOM     12  C   UNL     1       5.571  -2.575  -1.316  0.00  0.00    +0.021 C 
ATOM     13  C   UNL     1       3.452  -2.215  -0.042  0.00  0.00    +0.029 C 
BRANCH   4  17
ATOM     14  C   UNL     1      -0.017   1.378   0.010  0.00  0.00    +0.000 A 
ATOM     15  C   UNL     1       1.171   2.086   0.002  0.00  0.00    +0.000 A 
ATOM     16  C   UNL     1       2.377   1.411  -0.013  0.00  0.00    +0.004 A 
ATOM     17  C   UNL     1       2.396   0.029  -0.020  0.00  0.00    -0.041 A 
ATOM     18  C   UNL     1       1.208  -0.679  -0.012  0.00  0.00    +0.004 A 
ATOM     19  C   UNL     1       0.002  -0.004   0.002  0.00  0.00    +0.000 A 
ENDBRANCH   4  17
ENDBRANCH   2  11
ENDBRANCH   1   2
BRANCH   1  20
ATOM     20  C   UNL     1       5.248  -6.699  -0.084  0.00  0.00    +0.328 C 
BRANCH  20  21
ATOM     21  C   UNL     1       6.523  -7.503  -0.101  0.00  0.00    +0.258 C 
ATOM     22  O   UNL     1       7.596  -6.937  -0.109  0.00  0.00    -0.272 OA
ATOM     23  N   UNL     1       6.471  -8.849  -0.107  0.00  0.00    -0.268 N 
ATOM     24  C   UNL     1       5.239  -9.642  -0.104  0.00  0.00    +0.118 C 
ATOM     25  C   UNL     1       5.702 -11.108  -0.114  0.00  0.00    +0.056 C 
ATOM     26  C   UNL     1       7.212 -11.030  -0.121  0.00  0.00    -0.023 A 
ATOM     27  C   UNL     1       7.585  -9.695  -0.123  0.00  0.00    +0.040 A 
ATOM     28  C   UNL     1       8.942  -9.370  -0.135  0.00  0.00    +0.026 A 
ATOM     29  C   UNL     1       9.896 -10.366  -0.150  0.00  0.00    +0.030 A 
ATOM     30  C   UNL     1       9.514 -11.695  -0.152  0.00  0.00    +0.105 A 
ATOM     31  C   UNL     1       8.171 -12.024  -0.132  0.00  0.00    +0.034 A 
BRANCH  30  32
ATOM     32  S   UNL     1      10.735 -12.965  -0.172  0.00  0.00    +0.056 S 
ATOM     33  O   UNL     1      10.113 -14.118  -0.722  0.00  0.00    -0.153 OA
ATOM     34  O   UNL     1      11.908 -12.392  -0.732  0.00  0.00    -0.153 OA
BRANCH  32  35
ATOM     35  N   UNL     1      11.091 -13.325   1.405  0.00  0.00    -0.204 NA
ATOM     36  H   UNL     1      10.642 -12.854   2.124  0.00  0.00    +0.144 HD
ATOM     37  H   UNL     1      11.749 -14.008   1.610  0.00  0.00    +0.144 HD
ENDBRANCH  32  35
ENDBRANCH  30  32
ENDBRANCH  20  21
ENDBRANCH   1  20
TORSDOF 7
