REMARK  Name = ZINC13018473
REMARK  11 active torsions:
REMARK  status: ('A' for Active; 'I' for Inactive)
REMARK    1  A    between atoms: C_1  and  C_2
REMARK    2  A    between atoms: C_3  and  C_27
REMARK    3  A    between atoms: C_4  and  C_22
REMARK    4  A    between atoms: C_6  and  C_20
REMARK    5  A    between atoms: C_7  and  S_9
REMARK    6  A    between atoms: S_9  and  C_10
REMARK    7  A    between atoms: C_10  and  C_11
REMARK    8  A    between atoms: N_13  and  C_14
REMARK    9  A    between atoms: N_29  and  C_30
REMARK   10  A    between atoms: C_35  and  O_36
REMARK   11  A    between atoms: O_36  and  C_37
REMARK                            x       y       z     vdW  Elec       q    Type
REMARK                         _______ _______ _______ _____ _____    ______ ____
ROOT
ATOM      1  C   UNL     1      -0.463   2.857  -2.316  0.00  0.00    +0.061 C 
ATOM      2  C   UNL     1       0.201   2.475  -1.018  0.00  0.00    +0.014 C 
ATOM      3  C   UNL     1      -0.350   1.520  -0.250  0.00  0.00    +0.044 C 
ATOM      4  C   UNL     1       0.263   1.107   1.057  0.00  0.00    +0.101 C 
ATOM      5  C   UNL     1       1.684   1.583   1.156  0.00  0.00    +0.069 C 
ATOM      6  C   UNL     1       2.165   2.546   0.324  0.00  0.00    +0.080 C 
ATOM      7  N   UNL     1       1.355   3.105  -0.640  0.00  0.00    -0.312 N 
ATOM      8  H   UNL     1       1.639   4.059  -1.107  0.00  0.00    +0.152 HD
ENDROOT
BRANCH   4   9
ATOM      9  C   UNL     1      -0.538   1.699   2.188  0.00  0.00    +0.003 A 
ATOM     10  C   UNL     1      -1.223   0.987   3.199  0.00  0.00    +0.045 A 
ATOM     11  C   UNL     1      -1.798   1.902   4.000  0.00  0.00    +0.195 A 
ATOM     12  O   UNL     1      -1.507   3.124   3.524  0.00  0.00    -0.471 OA
ATOM     13  C   UNL     1      -0.744   3.007   2.426  0.00  0.00    +0.199 A 
ENDBRANCH   4   9
BRANCH   3  14
ATOM     14  C   UNL     1      -1.540   0.888  -0.684  0.00  0.00    +0.247 C 
ATOM     15  O   UNL     1      -2.050   1.211  -1.742  0.00  0.00    -0.270 OA
ATOM     16  N   UNL     1      -2.108  -0.071   0.072  0.00  0.00    -0.279 N 
ATOM     17  H   UNL     1      -1.599  -0.429   0.980  0.00  0.00    +0.155 HD
BRANCH  16  18
ATOM     18  C   UNL     1      -3.346  -0.613  -0.296  0.00  0.00    +0.076 A 
ATOM     19  C   UNL     1      -4.190   0.093  -1.140  0.00  0.00    +0.027 A 
ATOM     20  C   UNL     1      -5.409  -0.446  -1.507  0.00  0.00    +0.002 A 
ATOM     21  C   UNL     1      -5.795  -1.683  -1.025  0.00  0.00    +0.004 A 
ATOM     22  C   UNL     1      -4.961  -2.390  -0.179  0.00  0.00    +0.047 A 
ATOM     23  C   UNL     1      -3.735  -1.859   0.189  0.00  0.00    +0.141 A 
BRANCH  23  24
ATOM     24  O   UNL     1      -2.914  -2.554   1.022  0.00  0.00    -0.493 OA
ATOM     25  C   UNL     1      -3.379  -3.825   1.480  0.00  0.00    +0.277 C 
ENDBRANCH  23  24
ENDBRANCH  16  18
ENDBRANCH   3  14
BRANCH   5  26
ATOM     26  C   UNL     1       2.549   1.013   2.144  0.00  0.00    +0.098 C 
ATOM     27  N   UNL     1       3.235   0.561   2.928  0.00  0.00    -0.191 NA
ENDBRANCH   5  26
BRANCH   6  28
ATOM     28  S   UNL     1       3.835   3.084   0.482  0.00  0.00    -0.100 S 
BRANCH  28  29
ATOM     29  C   UNL     1       3.893   4.322  -0.837  0.00  0.00    +0.171 C 
BRANCH  29  30
ATOM     30  C   UNL     1       5.269   4.935  -0.891  0.00  0.00    +0.227 C 
ATOM     31  O   UNL     1       6.126   4.570  -0.115  0.00  0.00    -0.275 OA
ATOM     32  N   UNL     1       5.547   5.888  -1.802  0.00  0.00    -0.285 N 
ATOM     33  H   UNL     1       4.749   6.277  -2.452  0.00  0.00    +0.155 HD
BRANCH  32  34
ATOM     34  C   UNL     1       6.850   6.383  -1.922  0.00  0.00    +0.033 A 
ATOM     35  C   UNL     1       7.061   7.710  -2.271  0.00  0.00    +0.023 A 
ATOM     36  C   UNL     1       8.349   8.197  -2.382  0.00  0.00    +0.002 A 
ATOM     37  C   UNL     1       9.428   7.361  -2.159  0.00  0.00    +0.000 A 
ATOM     38  C   UNL     1       9.221   6.037  -1.817  0.00  0.00    +0.002 A 
ATOM     39  C   UNL     1       7.935   5.546  -1.698  0.00  0.00    +0.023 A 
ENDBRANCH  32  34
ENDBRANCH  29  30
ENDBRANCH  28  29
ENDBRANCH   6  28
TORSDOF 9
