REMARK  Name = ZINC67081126
REMARK  6 active torsions:
REMARK  status: ('A' for Active; 'I' for Inactive)
REMARK    1  A    between atoms: C_1  and  C_2
REMARK    2  A    between atoms: C_2  and  C_4
REMARK    3  A    between atoms: C_2  and  N_13
REMARK    4  A    between atoms: N_6  and  C_7
REMARK    5  A    between atoms: C_7  and  C_8
REMARK    6  A    between atoms: C_20  and  C_22
REMARK                            x       y       z     vdW  Elec       q    Type
REMARK                         _______ _______ _______ _____ _____    ______ ____
ROOT
ATOM      1  N   UNL     1       0.711  -0.489   1.189  0.00  0.00    -0.288 N 
ATOM      2  C   UNL     1       0.051  -0.633   2.355  0.00  0.00    +0.303 C 
ATOM      3  O   UNL     1      -1.132  -0.361   2.423  0.00  0.00    -0.253 OA
ATOM      4  N   UNL     1       0.703  -1.080   3.447  0.00  0.00    -0.278 N 
ATOM      5  C   UNL     1       2.131  -1.440   3.508  0.00  0.00    +0.110 C 
ATOM      6  C   UNL     1       2.518  -1.277   4.999  0.00  0.00    +0.021 C 
ATOM      7  C   UNL     1       1.233  -1.777   5.711  0.00  0.00    +0.029 C 
ATOM      8  C   UNL     1       0.109  -1.283   4.777  0.00  0.00    +0.111 C 
ATOM      9  H   UNL     1       1.654  -0.707   1.135  0.00  0.00    +0.151 HD
ENDROOT
BRANCH   8  10
ATOM     10  C   UNL     1      -0.982  -2.320   4.698  0.00  0.00    +0.018 A 
ATOM     11  C   UNL     1      -0.973  -3.255   3.679  0.00  0.00    +0.009 A 
ATOM     12  C   UNL     1      -1.972  -4.207   3.604  0.00  0.00    +0.004 A 
ATOM     13  C   UNL     1      -2.983  -4.227   4.546  0.00  0.00    +0.049 A 
ATOM     14  C   UNL     1      -2.998  -3.292   5.570  0.00  0.00    +0.162 A 
ATOM     15  C   UNL     1      -1.989  -2.340   5.650  0.00  0.00    +0.167 A 
ATOM     16  O   UNL     1      -1.977  -1.421   6.654  0.00  0.00    -0.485 OA
ATOM     17  C   UNL     1      -3.202  -1.237   7.373  0.00  0.00    +0.270 C 
ATOM     18  C   UNL     1      -3.769  -2.621   7.718  0.00  0.00    +0.270 C 
ATOM     19  O   UNL     1      -4.002  -3.323   6.488  0.00  0.00    -0.485 OA
ENDBRANCH   8  10
BRANCH   1  21
ATOM     20  C   UNL     1      -0.019   1.526   0.010  0.00  0.00    +0.038 C 
ATOM     21  C   UNL     1       0.002  -0.004   0.002  0.00  0.00    +0.157 C 
BRANCH  21  22
ATOM     22  C   UNL     1       0.707  -0.490  -1.238  0.00  0.00    +0.233 C 
ATOM     23  O   UNL     1       1.704  -1.174  -1.140  0.00  0.00    -0.274 OA
ATOM     24  N   UNL     1       0.231  -0.164  -2.456  0.00  0.00    -0.307 N 
ATOM     25  H   UNL     1      -0.566   0.383  -2.534  0.00  0.00    +0.149 HD
BRANCH  24  26
ATOM     26  C   UNL     1       0.917  -0.637  -3.661  0.00  0.00    +0.178 C 
BRANCH  26  27
ATOM     27  C   UNL     1       0.188  -0.137  -4.882  0.00  0.00    +0.122 A 
ATOM     28  C   UNL     1       0.429   1.020  -5.524  0.00  0.00    +0.046 A 
ATOM     29  C   UNL     1      -0.479   1.086  -6.605  0.00  0.00    +0.041 A 
ATOM     30  C   UNL     1      -1.221  -0.036  -6.560  0.00  0.00    +0.195 A 
ATOM     31  O   UNL     1      -0.809  -0.775  -5.518  0.00  0.00    -0.466 OA
ENDBRANCH  26  27
ENDBRANCH  24  26
ENDBRANCH  21  22
ENDBRANCH   1  21
TORSDOF 5
