REMARK  Name = ZINC03840804
REMARK  9 active torsions:
REMARK  status: ('A' for Active; 'I' for Inactive)
REMARK    1  A    between atoms: C_1  and  C_2
REMARK    2  A    between atoms: C_10  and  C_12
REMARK    3  A    between atoms: C_15  and  O_18
REMARK    4  A    between atoms: O_18  and  C_19
REMARK    5  A    between atoms: C_21  and  C_41
REMARK    6  A    between atoms: C_24  and  O_40
REMARK    7  A    between atoms: C_26  and  C_30
REMARK    8  A    between atoms: C_30  and  C_32
REMARK    9  A    between atoms: C_30  and  C_33
REMARK                            x       y       z     vdW  Elec       q    Type
REMARK                         _______ _______ _______ _____ _____    ______ ____
ROOT
ATOM      1  C   UNL     1       3.049   3.894  -1.684  0.00  0.00    +0.014 C 
ATOM      2  C   UNL     1       2.157   4.182  -0.475  0.00  0.00    +0.042 C 
ATOM      3  C   UNL     1       1.322   2.952  -0.156  0.00  0.00    +0.057 A 
ATOM      4  C   UNL     1       0.016   3.086   0.191  0.00  0.00    +0.015 A 
ATOM      5  S   UNL     1      -0.492   1.408   0.454  0.00  0.00    -0.057 S 
ATOM      6  C   UNL     1       1.039   0.665   0.098  0.00  0.00    +0.165 A 
ATOM      7  N   UNL     1       1.791   1.707  -0.190  0.00  0.00    -0.229 NA
ATOM      8  N   UNL     1       1.379  -0.682   0.108  0.00  0.00    -0.261 N 
ATOM      9  C   UNL     1       0.455  -1.608   0.434  0.00  0.00    +0.250 C 
ATOM     10  O   UNL     1      -0.676  -1.264   0.719  0.00  0.00    -0.270 OA
ATOM     11  C   UNL     1      -0.769   4.345   0.308  0.00  0.00    +0.051 C 
ATOM     12  C   UNL     1       0.201   5.543   0.324  0.00  0.00    -0.022 C 
ATOM     13  C   UNL     1       1.231   5.363  -0.793  0.00  0.00    +0.033 C 
ATOM     14  C   UNL     1       2.106   6.616  -0.908  0.00  0.00    +0.123 C 
ATOM     15  C   UNL     1       1.242   7.846  -1.178  0.00  0.00    +0.029 C 
ATOM     16  C   UNL     1       0.270   8.031  -0.008  0.00  0.00    +0.007 C 
ATOM     17  C   UNL     1      -0.634   6.803   0.078  0.00  0.00    +0.008 C 
ATOM     18  C   UNL     1       0.908   5.641   1.677  0.00  0.00    +0.012 C 
ATOM     19  H   UNL     1       2.281  -0.956  -0.119  0.00  0.00    +0.157 HD
ENDROOT
BRANCH   9  20
ATOM     20  C   UNL     1       0.817  -3.038   0.445  0.00  0.00    +0.037 A 
ATOM     21  C   UNL     1       2.115  -3.436   0.113  0.00  0.00    +0.016 A 
ATOM     22  C   UNL     1       2.449  -4.771   0.129  0.00  0.00    +0.046 A 
ATOM     23  C   UNL     1       1.495  -5.724   0.466  0.00  0.00    +0.120 A 
ATOM     24  C   UNL     1       0.202  -5.334   0.792  0.00  0.00    +0.046 A 
ATOM     25  C   UNL     1      -0.140  -4.000   0.783  0.00  0.00    +0.016 A 
BRANCH  23  26
ATOM     26  O   UNL     1       1.827  -7.040   0.476  0.00  0.00    -0.495 OA
ATOM     27  C   UNL     1       3.174  -7.372   0.131  0.00  0.00    +0.277 C 
ENDBRANCH  23  26
ENDBRANCH   9  20
BRANCH  15  28
ATOM     28  C   UNL     1       2.132   9.084  -1.306  0.00  0.00    +0.078 C 
ATOM     29  C   UNL     1       2.818   9.360   0.033  0.00  0.00    +0.017 C 
BRANCH  28  30
ATOM     30  C   UNL     1       1.288  10.271  -1.693  0.00  0.00    +0.219 C 
ATOM     31  O   UNL     1       0.849  11.007  -0.836  0.00  0.00    -0.275 OA
ATOM     32  N   UNL     1       1.022  10.514  -2.992  0.00  0.00    -0.301 N 
ATOM     33  C   UNL     1       1.403   9.653  -4.120  0.00  0.00    +0.108 C 
ATOM     34  C   UNL     1       0.911  10.343  -5.410  0.00  0.00    +0.020 C 
ATOM     35  C   UNL     1       0.788  11.829  -4.981  0.00  0.00    +0.020 C 
ATOM     36  C   UNL     1       0.305  11.691  -3.516  0.00  0.00    +0.108 C 
ENDBRANCH  28  30
ENDBRANCH  15  28
BRANCH  14  37
ATOM     37  O   UNL     1       3.035   6.446  -1.981  0.00  0.00    -0.391 OA
ATOM     38  H   UNL     1       3.684   7.159  -2.056  0.00  0.00    +0.210 HD
ENDBRANCH  14  37
TORSDOF 5
