REMARK  Name = ZINC12099555
REMARK  8 active torsions:
REMARK  status: ('A' for Active; 'I' for Inactive)
REMARK    1  A    between atoms: C_3  and  N_18
REMARK    2  A    between atoms: C_6  and  C_7
REMARK    3  A    between atoms: C_13  and  C_16
REMARK    4  A    between atoms: C_16  and  O_17
REMARK    5  A    between atoms: C_21  and  N_65
REMARK    6  A    between atoms: C_24  and  C_25
REMARK    7  A    between atoms: C_24  and  N_65
REMARK    8  A    between atoms: C_27  and  C_32
REMARK                            x       y       z     vdW  Elec       q    Type
REMARK                         _______ _______ _______ _____ _____    ______ ____
ROOT
ATOM      1  N   UNL     1       1.354   2.028   0.086  0.00  0.00    -0.330 N 
ATOM      2  C   UNL     1       0.442   1.430   1.069  0.00  0.00    +0.103 C 
ATOM      3  C   UNL     1       0.553  -0.095   1.008  0.00  0.00    +0.003 C 
ATOM      4  C   UNL     1       0.197  -0.572  -0.402  0.00  0.00    -0.068 C 
ATOM      5  C   UNL     1       1.130   0.102  -1.412  0.00  0.00    +0.003 C 
ATOM      6  C   UNL     1       1.002   1.622  -1.281  0.00  0.00    +0.103 C 
ENDROOT
BRANCH   1   9
ATOM      7  C   UNL     1       2.206   5.541  -0.527  0.00  0.00    +0.015 A 
ATOM      8  C   UNL     1       2.182   4.170  -0.642  0.00  0.00    +0.024 A 
ATOM      9  C   UNL     1       1.376   3.413   0.204  0.00  0.00    +0.030 A 
ATOM     10  C   UNL     1       0.587   4.041   1.164  0.00  0.00    +0.024 A 
ATOM     11  C   UNL     1       0.611   5.411   1.287  0.00  0.00    +0.015 A 
ATOM     12  C   UNL     1       1.419   6.174   0.439  0.00  0.00    +0.037 A 
BRANCH  12  13
ATOM     13  C   UNL     1       1.442   7.644   0.564  0.00  0.00    +0.247 C 
ATOM     14  O   UNL     1       2.504   8.230   0.649  0.00  0.00    -0.270 OA
ATOM     15  N   UNL     1       0.286   8.336   0.584  0.00  0.00    -0.297 N 
ATOM     16  C   UNL     1      -1.006   7.637   0.564  0.00  0.00    +0.108 C 
ATOM     17  C   UNL     1      -1.852   8.187  -0.583  0.00  0.00    +0.019 C 
ATOM     18  C   UNL     1      -1.962   9.707  -0.449  0.00  0.00    +0.009 C 
ATOM     19  C   UNL     1      -0.567  10.331  -0.533  0.00  0.00    +0.032 C 
ATOM     20  C   UNL     1       0.294   9.805   0.620  0.00  0.00    +0.113 C 
BRANCH  19  21
ATOM     21  C   UNL     1      -0.681  11.853  -0.432  0.00  0.00    +0.160 C 
BRANCH  21  22
ATOM     22  O   UNL     1       0.608  12.441  -0.623  0.00  0.00    -0.395 OA
ATOM     23  H   UNL     1       0.611  13.407  -0.572  0.00  0.00    +0.209 HD
ENDBRANCH  21  22
ENDBRANCH  19  21
ENDBRANCH  12  13
ENDBRANCH   1   9
BRANCH   4  24
ATOM     24  N   UNL     1       0.364  -2.036  -0.476  0.00  0.00    +0.384 N 
ATOM     25  H   UNL     1       0.102  -2.453   0.424  0.00  0.00    -0.085 HD
ATOM     26  H   UNL     1       1.346  -2.254  -0.682  0.00  0.00    -0.085 HD
BRANCH  24  27
ATOM     27  C   UNL     1      -0.492  -2.596  -1.539  0.00  0.00    -0.043 C 
BRANCH  27  28
ATOM     28  C   UNL     1      -0.300  -4.090  -1.592  0.00  0.00    -0.029 A 
ATOM     29  C   UNL     1      -1.274  -4.930  -1.085  0.00  0.00    +0.017 A 
ATOM     30  C   UNL     1      -1.099  -6.300  -1.134  0.00  0.00    +0.055 A 
ATOM     31  C   UNL     1       0.051  -6.832  -1.689  0.00  0.00    +0.015 A 
ATOM     32  C   UNL     1       1.026  -5.994  -2.195  0.00  0.00    +0.039 A 
ATOM     33  C   UNL     1       0.849  -4.621  -2.152  0.00  0.00    +0.125 A 
ATOM     34  F   UNL     1       1.799  -3.801  -2.652  0.00  0.00    -0.205 F 
BRANCH  30  35
ATOM     35  C   UNL     1      -2.161  -7.215  -0.581  0.00  0.00    +0.417 C 
ATOM     36  F   UNL     1      -3.075  -7.532  -1.592  0.00  0.00    -0.166 F 
ATOM     37  F   UNL     1      -1.565  -8.389  -0.107  0.00  0.00    -0.166 F 
ATOM     38  F   UNL     1      -2.829  -6.575   0.468  0.00  0.00    -0.166 F 
ENDBRANCH  30  35
ENDBRANCH  27  28
ENDBRANCH  24  27
ENDBRANCH   4  24
TORSDOF 8
