REMARK  Name = ZINC39967620
REMARK  8 active torsions:
REMARK  status: ('A' for Active; 'I' for Inactive)
REMARK    1  A    between atoms: C_1  and  C_2
REMARK    2  A    between atoms: C_3  and  N_17
REMARK    3  A    between atoms: C_4  and  C_16
REMARK    4  A    between atoms: N_5  and  C_7
REMARK    5  A    between atoms: C_7  and  N_8
REMARK    6  A    between atoms: C_9  and  C_15
REMARK    7  A    between atoms: C_11  and  C_13
REMARK    8  A    between atoms: N_20  and  C_21
REMARK                            x       y       z     vdW  Elec       q    Type
REMARK                         _______ _______ _______ _____ _____    ______ ____
ROOT
ATOM      1  C   UNL     1      -0.502   1.386   0.049  0.00  0.00    +0.069 C 
ATOM      2  C   UNL     1      -0.166  -0.081  -0.029  0.00  0.00    +0.081 A 
ATOM      3  C   UNL     1      -0.036  -0.832  -1.206  0.00  0.00    +0.078 A 
ATOM      4  C   UNL     1       0.272  -2.106  -0.855  0.00  0.00    +0.060 A 
ATOM      5  N   UNL     1       0.333  -2.154   0.501  0.00  0.00    -0.245 N 
ATOM      6  N   UNL     1       0.060  -0.870   0.990  0.00  0.00    -0.173 NA
ATOM      7  C   UNL     1       0.503  -3.259  -1.798  0.00  0.00    +0.067 C 
ENDROOT
BRANCH   3   8
ATOM      8  N   UNL     1      -0.197  -0.350  -2.520  0.00  0.00    -0.266 N 
ATOM      9  C   UNL     1       0.161   0.914  -2.822  0.00  0.00    +0.308 C 
ATOM     10  O   UNL     1       0.696   1.612  -1.982  0.00  0.00    -0.252 OA
ATOM     11  N   UNL     1      -0.075   1.404  -4.055  0.00  0.00    -0.269 N 
ATOM     12  H   UNL     1      -0.565  -0.927  -3.207  0.00  0.00    +0.156 HD
ATOM     13  H   UNL     1      -0.571   0.876  -4.701  0.00  0.00    +0.156 HD
BRANCH  11  14
ATOM     14  C   UNL     1       0.395   2.675  -4.405  0.00  0.00    +0.035 A 
ATOM     15  C   UNL     1       1.595   3.141  -3.883  0.00  0.00    +0.024 A 
ATOM     16  C   UNL     1       2.057   4.395  -4.230  0.00  0.00    +0.017 A 
ATOM     17  C   UNL     1       1.326   5.188  -5.096  0.00  0.00    +0.018 A 
ATOM     18  C   UNL     1       0.130   4.727  -5.617  0.00  0.00    +0.017 A 
ATOM     19  C   UNL     1      -0.334   3.471  -5.278  0.00  0.00    +0.024 A 
ATOM     20 BR   UNL     1       1.961   6.906  -5.567  0.00  0.00    -0.050 Br
ENDBRANCH  11  14
ENDBRANCH   3   8
BRANCH   5  21
ATOM     21  C   UNL     1       0.637  -3.337   1.310  0.00  0.00    +0.286 C 
BRANCH  21  22
ATOM     22  N   UNL     1       2.090  -3.485   1.433  0.00  0.00    -0.246 N 
ATOM     23  C   UNL     1       2.850  -3.036   2.454  0.00  0.00    +0.052 A 
ATOM     24  C   UNL     1       4.135  -3.372   2.190  0.00  0.00    +0.061 A 
ATOM     25  C   UNL     1       4.159  -4.050   0.966  0.00  0.00    +0.074 A 
ATOM     26  N   UNL     1       2.934  -4.123   0.514  0.00  0.00    -0.173 NA
ATOM     27  C   UNL     1       5.385  -4.606   0.288  0.00  0.00    +0.068 C 
ATOM     28 BR   UNL     1       5.631  -2.992   3.282  0.00  0.00    -0.047 Br
ATOM     29  C   UNL     1       2.358  -2.292   3.668  0.00  0.00    +0.066 C 
ENDBRANCH  21  22
ENDBRANCH   5  21
TORSDOF 4
