REMARK  Name = ZINC13432915
REMARK  6 active torsions:
REMARK  status: ('A' for Active; 'I' for Inactive)
REMARK    1  A    between atoms: C_1  and  C_2
REMARK    2  A    between atoms: C_6  and  C_29
REMARK    3  A    between atoms: C_7  and  N_8
REMARK    4  A    between atoms: C_9  and  C_11
REMARK    5  A    between atoms: N_14  and  S_17
REMARK    6  A    between atoms: S_17  and  C_20
REMARK                            x       y       z     vdW  Elec       q    Type
REMARK                         _______ _______ _______ _____ _____    ______ ____
ROOT
ATOM      1  C   UNL     1      -2.224   4.458   0.497  0.00  0.00    +0.078 C 
ATOM      2  C   UNL     1      -2.737   4.561  -0.941  0.00  0.00    +0.030 C 
ATOM      3  C   UNL     1      -3.992   5.439  -0.969  0.00  0.00    +0.110 C 
ATOM      4  N   UNL     1      -3.678   6.733  -0.347  0.00  0.00    -0.177 NA
ATOM      5  C   UNL     1      -3.095   6.745   1.002  0.00  0.00    +0.110 C 
ATOM      6  C   UNL     1      -1.850   5.852   1.008  0.00  0.00    +0.030 C 
ENDROOT
BRANCH   1   8
ATOM      7  N   UNL     1      -1.101   2.286   0.128  0.00  0.00    -0.284 N 
ATOM      8  C   UNL     1      -1.009   3.567   0.534  0.00  0.00    +0.220 C 
ATOM      9  O   UNL     1       0.051   4.004   0.930  0.00  0.00    -0.275 OA
ATOM     10  H   UNL     1      -1.958   1.923  -0.144  0.00  0.00    +0.155 HD
BRANCH   7  17
ATOM     11  C   UNL     1       1.063   3.085  -1.533  0.00  0.00    +0.046 C 
ATOM     12  C   UNL     1       1.119   1.834  -0.696  0.00  0.00    -0.028 A 
ATOM     13  C   UNL     1       2.247   1.038  -0.719  0.00  0.00    +0.005 A 
ATOM     14  C   UNL     1       2.308  -0.115   0.047  0.00  0.00    +0.001 A 
ATOM     15  C   UNL     1       1.243  -0.480   0.842  0.00  0.00    +0.017 A 
ATOM     16  C   UNL     1       0.095   0.315   0.875  0.00  0.00    +0.085 A 
ATOM     17  C   UNL     1       0.036   1.482   0.098  0.00  0.00    +0.051 A 
BRANCH  16  18
ATOM     18  C   UNL     1      -1.048  -0.070   1.723  0.00  0.00    +0.388 C 
ATOM     19  O   UNL     1      -2.090   0.551   1.656  0.00  0.00    -0.241 OA
ATOM     20  O   UNL     1      -0.937  -1.110   2.573  0.00  0.00    -0.241 OA
ENDBRANCH  16  18
ENDBRANCH   7  17
ENDBRANCH   1   8
BRANCH   4  21
ATOM     21  S   UNL     1      -3.977   8.150  -1.149  0.00  0.00    +0.061 S 
ATOM     22  O   UNL     1      -4.998   7.872  -2.098  0.00  0.00    -0.153 OA
ATOM     23  O   UNL     1      -4.114   9.158  -0.157  0.00  0.00    -0.153 OA
BRANCH  21  24
ATOM     24  C   UNL     1      -2.527   8.544  -2.069  0.00  0.00    +0.106 A 
ATOM     25  C   UNL     1      -2.382   8.080  -3.364  0.00  0.00    +0.029 A 
ATOM     26  C   UNL     1      -1.245   8.390  -4.083  0.00  0.00    +0.006 A 
ATOM     27  C   UNL     1      -0.248   9.164  -3.512  0.00  0.00    -0.044 A 
ATOM     28  C   UNL     1      -0.393   9.627  -2.218  0.00  0.00    -0.042 A 
ATOM     29  C   UNL     1      -1.537   9.320  -1.500  0.00  0.00    +0.032 A 
ATOM     30  C   UNL     1       0.821  10.443  -1.828  0.00  0.00    +0.036 C 
ATOM     31  C   UNL     1       1.518  10.793  -3.159  0.00  0.00    +0.009 C 
ATOM     32  C   UNL     1       1.073   9.637  -4.080  0.00  0.00    +0.036 C 
ENDBRANCH  21  24
ENDBRANCH   4  21
TORSDOF 5
