REMARK  Name = ZINC20528878
REMARK  6 active torsions:
REMARK  status: ('A' for Active; 'I' for Inactive)
REMARK    1  A    between atoms: C_1  and  N_2
REMARK    2  A    between atoms: C_9  and  N_31
REMARK    3  A    between atoms: C_10  and  C_14
REMARK    4  A    between atoms: C_14  and  C_16
REMARK    5  A    between atoms: C_17  and  N_30
REMARK    6  A    between atoms: N_27  and  C_29
REMARK                            x       y       z     vdW  Elec       q    Type
REMARK                         _______ _______ _______ _____ _____    ______ ____
ROOT
ATOM      1  C   UNL     1      -2.316   7.449   0.078  0.00  0.00    +0.210 C 
ATOM      2  O   UNL     1      -1.559   8.406   0.079  0.00  0.00    -0.285 OA
ENDROOT
BRANCH   1  12
ATOM      3  C   UNL     1       3.700  -0.497   0.272  0.00  0.00    +0.105 C 
ATOM      4  N   UNL     1       2.401   0.180   0.380  0.00  0.00    -0.301 NA
ATOM      5  C   UNL     1       1.381  -0.505  -0.430  0.00  0.00    +0.090 C 
ATOM      6  C   UNL     1       0.002  -0.004   0.002  0.00  0.00    +0.071 C 
ATOM      7  C   UNL     1      -0.018   1.504   0.010  0.00  0.00    +0.048 A 
ATOM      8  C   UNL     1       1.151   2.245   0.003  0.00  0.00    -0.011 A 
ATOM      9  C   UNL     1       1.095   3.624   0.016  0.00  0.00    +0.019 A 
ATOM     10  C   UNL     1      -0.164   4.269   0.033  0.00  0.00    +0.029 A 
ATOM     11  C   UNL     1      -0.458   5.694   0.047  0.00  0.00    +0.052 A 
ATOM     12  C   UNL     1      -1.777   6.089   0.062  0.00  0.00    +0.083 A 
ATOM     13  S   UNL     1      -2.670   4.547   0.057  0.00  0.00    -0.064 S 
ATOM     14  C   UNL     1      -1.296   3.423   0.036  0.00  0.00    +0.111 A 
ATOM     15  N   UNL     1      -1.193   2.114   0.030  0.00  0.00    -0.244 NA
ATOM     16  C   UNL     1       2.506   1.586  -0.021  0.00  0.00    +0.121 C 
BRANCH  11  17
ATOM     17  N   UNL     1       0.567   6.632   0.047  0.00  0.00    -0.356 N 
ATOM     18  H   UNL     1       0.329   7.706   0.058  0.00  0.00    +0.142 HD
ATOM     19  H   UNL     1       1.616   6.301   0.035  0.00  0.00    +0.142 HD
ENDBRANCH  11  17
ENDBRANCH   1  12
BRANCH   1  20
ATOM     20  C   UNL     1      -3.763   7.662   0.093  0.00  0.00    +0.083 A 
ATOM     21  C   UNL     1      -4.451   8.856   0.109  0.00  0.00    +0.052 A 
ATOM     22  C   UNL     1      -5.905   8.815   0.122  0.00  0.00    +0.029 A 
ATOM     23  C   UNL     1      -6.822   9.893   0.141  0.00  0.00    +0.019 A 
ATOM     24  C   UNL     1      -8.177   9.630   0.153  0.00  0.00    -0.011 A 
ATOM     25  C   UNL     1      -8.630   8.323   0.143  0.00  0.00    +0.048 A 
ATOM     26  N   UNL     1      -7.767   7.319   0.126  0.00  0.00    -0.244 NA
ATOM     27  C   UNL     1      -6.469   7.519   0.116  0.00  0.00    +0.111 A 
ATOM     28  S   UNL     1      -5.060   6.439   0.087  0.00  0.00    -0.064 S 
ATOM     29  C   UNL     1     -10.102   7.997   0.148  0.00  0.00    +0.071 C 
ATOM     30  C   UNL     1     -10.906   9.222   0.582  0.00  0.00    +0.090 C 
ATOM     31  N   UNL     1     -10.473  10.375  -0.223  0.00  0.00    -0.301 NA
ATOM     32  C   UNL     1      -9.128  10.799   0.179  0.00  0.00    +0.121 C 
ATOM     33  C   UNL     1     -11.430  11.484  -0.112  0.00  0.00    +0.105 C 
BRANCH  21  34
ATOM     34  N   UNL     1      -3.772  10.068   0.113  0.00  0.00    -0.356 N 
ATOM     35  H   UNL     1      -4.335  11.013   0.126  0.00  0.00    +0.142 HD
ATOM     36  H   UNL     1      -2.672  10.083   0.104  0.00  0.00    +0.142 HD
ENDBRANCH  21  34
ENDBRANCH   1  20
TORSDOF 4
