REMARK  Name = ZINC63588612
REMARK  8 active torsions:
REMARK  status: ('A' for Active; 'I' for Inactive)
REMARK    1  A    between atoms: C_1  and  C_2
REMARK    2  A    between atoms: C_4  and  C_31
REMARK    3  A    between atoms: C_6  and  N_8
REMARK    4  A    between atoms: N_10  and  C_11
REMARK    5  A    between atoms: C_11  and  C_12
REMARK    6  A    between atoms: C_12  and  C_13
REMARK    7  A    between atoms: N_22  and  C_23
REMARK    8  A    between atoms: C_23  and  C_25
REMARK                            x       y       z     vdW  Elec       q    Type
REMARK                         _______ _______ _______ _____ _____    ______ ____
ROOT
ATOM      1  N   UNL     1       0.830  -2.695   2.464  0.00  0.00    -0.328 N 
ATOM      2  C   UNL     1       0.276  -2.121   3.572  0.00  0.00    +0.194 C 
ATOM      3  N   UNL     1      -0.035  -2.890   4.654  0.00  0.00    -0.357 N 
ATOM      4  N   UNL     1       0.042  -0.818   3.595  0.00  0.00    -0.143 NA
ATOM      5  H   UNL     1      -0.429  -2.482   5.442  0.00  0.00    +0.162 HD
ATOM      6  H   UNL     1       0.577  -3.595   2.205  0.00  0.00    +0.169 HD
ENDROOT
BRANCH   1  12
ATOM      7  C   UNL     1       4.051   0.999   2.082  0.00  0.00    +0.044 C 
ATOM      8  C   UNL     1       3.339  -0.190   1.490  0.00  0.00    -0.048 A 
ATOM      9  C   UNL     1       3.610  -0.582   0.192  0.00  0.00    +0.006 A 
ATOM     10  C   UNL     1       2.959  -1.673  -0.354  0.00  0.00    -0.048 A 
ATOM     11  C   UNL     1       2.037  -2.376   0.396  0.00  0.00    +0.029 A 
ATOM     12  C   UNL     1       1.764  -1.986   1.701  0.00  0.00    +0.042 A 
ATOM     13  C   UNL     1       2.422  -0.892   2.248  0.00  0.00    +0.029 A 
ATOM     14  C   UNL     1       3.256  -2.095  -1.770  0.00  0.00    +0.044 C 
ENDBRANCH   1  12
BRANCH   4  15
ATOM     15  C   UNL     1      -0.073  -0.137   2.447  0.00  0.00    +0.272 C 
ATOM     16  O   UNL     1      -0.070  -0.732   1.384  0.00  0.00    -0.268 OA
BRANCH  15  17
ATOM     17  C   UNL     1      -0.205   1.338   2.471  0.00  0.00    +0.057 A 
ATOM     18  C   UNL     1      -0.437   2.050   1.289  0.00  0.00    +0.016 A 
ATOM     19  C   UNL     1      -0.552   3.427   1.365  0.00  0.00    +0.020 A 
ATOM     20  C   UNL     1      -0.435   4.049   2.595  0.00  0.00    +0.111 A 
ATOM     21  N   UNL     1      -0.215   3.351   3.693  0.00  0.00    -0.263 NA
ATOM     22  C   UNL     1      -0.104   2.039   3.672  0.00  0.00    +0.123 A 
ENDBRANCH  15  17
ENDBRANCH   4  15
BRANCH   3  23
ATOM     23  C   UNL     1       0.225  -4.332   4.628  0.00  0.00    +0.120 C 
BRANCH  23  24
ATOM     24  C   UNL     1      -0.213  -4.953   5.957  0.00  0.00    +0.054 C 
BRANCH  24  25
ATOM     25  C   UNL     1       0.054  -6.436   5.930  0.00  0.00    -0.040 C 
ATOM     26  C   UNL     1       1.145  -7.074   6.411  0.00  0.00    -0.001 A 
ATOM     27  C   UNL     1       2.363  -6.598   7.077  0.00  0.00    +0.010 A 
ATOM     28  C   UNL     1       3.301  -7.497   7.452  0.00  0.00    +0.001 A 
ATOM     29  C   UNL     1       3.139  -8.870   7.220  0.00  0.00    +0.002 A 
ATOM     30  C   UNL     1       2.048  -9.384   6.614  0.00  0.00    +0.026 A 
ATOM     31  C   UNL     1       0.998  -8.529   6.179  0.00  0.00    +0.043 A 
ATOM     32  N   UNL     1      -0.139  -8.780   5.577  0.00  0.00    -0.380 N 
ATOM     33  C   UNL     1      -0.846  -7.512   5.365  0.00  0.00    +0.144 C 
ATOM     34  H   UNL     1      -0.462  -9.658   5.319  0.00  0.00    +0.160 HD
ENDBRANCH  24  25
ENDBRANCH  23  24
ENDBRANCH   3  23
TORSDOF 6
