REMARK  Name = ZINC00695909
REMARK  8 active torsions:
REMARK  status: ('A' for Active; 'I' for Inactive)
REMARK    1  A    between atoms: C_1  and  C_2
REMARK    2  A    between atoms: C_7  and  C_8
REMARK    3  A    between atoms: C_10  and  C_38
REMARK    4  A    between atoms: C_11  and  N_37
REMARK    5  A    between atoms: N_12  and  C_27
REMARK    6  A    between atoms: C_18  and  C_21
REMARK    7  A    between atoms: C_29  and  N_34
REMARK    8  A    between atoms: C_32  and  C_33
REMARK                            x       y       z     vdW  Elec       q    Type
REMARK                         _______ _______ _______ _____ _____    ______ ____
ROOT
ATOM      1  C   UNL     1       2.479   0.941  -0.818  0.00  0.00    +0.098 C 
ATOM      2  C   UNL     1       2.637  -0.183  -1.799  0.00  0.00    +0.077 C 
ATOM      3  C   UNL     1       2.449  -1.475  -1.423  0.00  0.00    +0.107 C 
ATOM      4  N   UNL     1       2.116  -1.773  -0.121  0.00  0.00    -0.260 N 
ATOM      5  C   UNL     1       2.357  -0.871   0.882  0.00  0.00    +0.025 C 
ATOM      6  C   UNL     1       2.538   0.437   0.602  0.00  0.00    +0.025 C 
ATOM      7  C   UNL     1       2.785   1.370   1.624  0.00  0.00    +0.162 C 
ATOM      8  O   UNL     1       2.958   2.538   1.337  0.00  0.00    -0.292 OA
ATOM      9  C   UNL     1       2.838   0.949   3.067  0.00  0.00    +0.088 C 
ATOM     10  C   UNL     1       1.947  -0.282   3.260  0.00  0.00    +0.032 C 
ATOM     11  C   UNL     1       2.419  -1.378   2.302  0.00  0.00    +0.060 C 
ENDROOT
BRANCH   1  18
ATOM     12  C   UNL     1       2.374   3.774  -1.372  0.00  0.00    +0.044 C 
ATOM     13  C   UNL     1       1.101   2.970  -1.315  0.00  0.00    -0.046 A 
ATOM     14  C   UNL     1      -0.117   3.589  -1.526  0.00  0.00    +0.003 A 
ATOM     15  C   UNL     1      -1.285   2.851  -1.474  0.00  0.00    +0.000 A 
ATOM     16  C   UNL     1      -1.234   1.494  -1.214  0.00  0.00    +0.000 A 
ATOM     17  C   UNL     1      -0.017   0.877  -0.996  0.00  0.00    +0.005 A 
ATOM     18  C   UNL     1       1.151   1.615  -1.049  0.00  0.00    -0.032 A 
ENDBRANCH   1  18
BRANCH   4  19
ATOM     19  C   UNL     1       1.527  -3.006   0.180  0.00  0.00    +0.045 A 
ATOM     20  C   UNL     1       2.318  -4.141   0.315  0.00  0.00    +0.056 A 
ATOM     21  C   UNL     1       1.735  -5.355   0.617  0.00  0.00    +0.128 A 
ATOM     22  C   UNL     1       0.364  -5.445   0.776  0.00  0.00    +0.033 A 
ATOM     23  C   UNL     1      -0.427  -4.319   0.637  0.00  0.00    +0.007 A 
ATOM     24  C   UNL     1       0.151  -3.100   0.340  0.00  0.00    -0.029 A 
ATOM     25  C   UNL     1      -0.711  -1.874   0.188  0.00  0.00    +0.045 C 
BRANCH  21  26
ATOM     26  N   UNL     1       2.577  -6.563   0.765  0.00  0.00    +0.056 N 
ATOM     27  O   UNL     1       2.063  -7.636   1.026  0.00  0.00    -0.126 OA
ATOM     28  O   UNL     1       3.784  -6.485   0.625  0.00  0.00    -0.126 OA
ENDBRANCH  21  26
ENDBRANCH   4  19
BRANCH  10  29
ATOM     29  C   UNL     1       2.058  -0.771   4.682  0.00  0.00    -0.044 A 
ATOM     30  C   UNL     1       3.286  -1.153   5.187  0.00  0.00    +0.004 A 
ATOM     31  C   UNL     1       3.388  -1.597   6.492  0.00  0.00    +0.000 A 
ATOM     32  C   UNL     1       2.261  -1.667   7.289  0.00  0.00    +0.000 A 
ATOM     33  C   UNL     1       1.032  -1.289   6.782  0.00  0.00    +0.000 A 
ATOM     34  C   UNL     1       0.930  -0.842   5.478  0.00  0.00    +0.004 A 
ENDBRANCH  10  29
BRANCH   3  35
ATOM     35  N   UNL     1       2.591  -2.485  -2.344  0.00  0.00    -0.345 N 
ATOM     36  H   UNL     1       2.826  -2.276  -3.261  0.00  0.00    +0.144 HD
ATOM     37  H   UNL     1       2.457  -3.408  -2.076  0.00  0.00    +0.144 HD
ENDBRANCH   3  35
BRANCH   2  38
ATOM     38  C   UNL     1       2.992   0.111  -3.155  0.00  0.00    +0.099 C 
ATOM     39  N   UNL     1       3.274   0.344  -4.231  0.00  0.00    -0.191 NA
ENDBRANCH   2  38
TORSDOF 6
