REMARK  Name = ZINC41648054
REMARK  11 active torsions:
REMARK  status: ('A' for Active; 'I' for Inactive)
REMARK    1  A    between atoms: C_1  and  C_2
REMARK    2  A    between atoms: C_2  and  C_3
REMARK    3  A    between atoms: N_5  and  C_6
REMARK    4  A    between atoms: C_9  and  N_12
REMARK    5  A    between atoms: C_13  and  C_15
REMARK    6  A    between atoms: N_17  and  C_18
REMARK    7  A    between atoms: C_18  and  C_19
REMARK    8  A    between atoms: C_19  and  C_21
REMARK    9  A    between atoms: C_19  and  N_26
REMARK   10  A    between atoms: N_26  and  C_27
REMARK   11  A    between atoms: N_26  and  C_28
REMARK                            x       y       z     vdW  Elec       q    Type
REMARK                         _______ _______ _______ _____ _____    ______ ____
ROOT
ATOM      1  N   UNL     1      -6.692  -4.122   0.358  0.00  0.00    -0.278 N 
ATOM      2  C   UNL     1      -6.832  -5.452   0.529  0.00  0.00    +0.303 C 
ATOM      3  O   UNL     1      -5.851  -6.164   0.581  0.00  0.00    -0.265 OA
ATOM      4  H   UNL     1      -7.477  -3.561   0.256  0.00  0.00    +0.155 HD
ENDROOT
BRANCH   1   8
ATOM      5  C   UNL     1      -2.889  -2.422   0.267  0.00  0.00    +0.033 A 
ATOM      6  C   UNL     1      -3.098  -3.684  -0.274  0.00  0.00    +0.025 A 
ATOM      7  C   UNL     1      -4.358  -4.247  -0.243  0.00  0.00    +0.025 A 
ATOM      8  C   UNL     1      -5.416  -3.552   0.328  0.00  0.00    +0.034 A 
ATOM      9  C   UNL     1      -5.206  -2.289   0.868  0.00  0.00    +0.025 A 
ATOM     10  C   UNL     1      -3.945  -1.728   0.843  0.00  0.00    +0.025 A 
BRANCH   5  13
ATOM     11  C   UNL     1      -1.191  -1.082   1.261  0.00  0.00    +0.217 C 
ATOM     12  O   UNL     1      -1.946  -0.824   2.174  0.00  0.00    -0.275 OA
ATOM     13  N   UNL     1      -1.611  -1.850   0.236  0.00  0.00    -0.286 N 
ATOM     14  H   UNL     1      -1.027  -2.007  -0.523  0.00  0.00    +0.155 HD
BRANCH  11  16
ATOM     15  C   UNL     1       0.434   0.289   2.537  0.00  0.00    +0.013 C 
ATOM     16  C   UNL     1       0.217  -0.545   1.273  0.00  0.00    +0.093 C 
ENDBRANCH  11  16
ENDBRANCH   5  13
ENDBRANCH   1   8
BRANCH   2  17
ATOM     17  C   UNL     1      -8.195  -6.049   0.654  0.00  0.00    +0.299 C 
ATOM     18  O   UNL     1      -9.177  -5.337   0.602  0.00  0.00    -0.265 OA
ATOM     19  N   UNL     1      -8.336  -7.378   0.825  0.00  0.00    -0.309 N 
ATOM     20  H   UNL     1      -7.551  -7.947   0.867  0.00  0.00    +0.149 HD
BRANCH  19  21
ATOM     21  C   UNL     1      -9.673  -7.964   0.948  0.00  0.00    +0.094 C 
BRANCH  21  22
ATOM     22  C   UNL     1      -9.549  -9.458   1.255  0.00  0.00    -0.020 C 
BRANCH  22  23
ATOM     23  C   UNL     1      -8.842 -10.147   0.116  0.00  0.00    -0.052 A 
ATOM     24  C   UNL     1      -7.499 -10.461   0.210  0.00  0.00    +0.009 A 
ATOM     25  C   UNL     1      -6.894 -11.081  -0.832  0.00  0.00    +0.045 A 
ATOM     26  S   UNL     1      -8.237 -11.240  -1.997  0.00  0.00    -0.105 S 
ATOM     27  C   UNL     1      -9.515 -10.474  -1.014  0.00  0.00    +0.047 A 
ENDBRANCH  22  23
BRANCH  22  28
ATOM     28  N   UNL     1     -10.889 -10.037   1.421  0.00  0.00    +0.382 N 
ATOM     29  C   UNL     1     -10.768 -11.444   1.824  0.00  0.00    -0.096 C 
ATOM     30  C   UNL     1     -11.618  -9.292   2.456  0.00  0.00    -0.096 C 
ATOM     31  H   UNL     1     -11.391  -9.979   0.548  0.00  0.00    -0.082 HD
ENDBRANCH  22  28
ENDBRANCH  21  22
ENDBRANCH  19  21
ENDBRANCH   2  17
TORSDOF 8
