REMARK  Name = ZINC14543915
REMARK  6 active torsions:
REMARK  status: ('A' for Active; 'I' for Inactive)
REMARK    1  A    between atoms: C_1  and  O_2
REMARK    2  A    between atoms: O_2  and  C_3
REMARK    3  A    between atoms: C_12  and  C_13
REMARK    4  A    between atoms: C_24  and  S_29
REMARK    5  A    between atoms: S_29  and  N_32
REMARK    6  A    between atoms: N_32  and  C_33
REMARK                            x       y       z     vdW  Elec       q    Type
REMARK                         _______ _______ _______ _____ _____    ______ ____
ROOT
ATOM      1  C   UNL     1      -0.897   1.707  -1.395  0.00  0.00    +0.109 C 
ATOM      2  C   UNL     1      -0.746   1.011  -0.039  0.00  0.00    +0.029 C 
ATOM      3  C   UNL     1      -1.819   1.594   0.926  0.00  0.00    +0.033 C 
ATOM      4  C   UNL     1      -1.181   2.873   1.431  0.00  0.00    -0.030 C 
ATOM      5  C   UNL     1       0.121   2.823   1.290  0.00  0.00    -0.023 C 
ATOM      6  C   UNL     1       0.530   1.509   0.668  0.00  0.00    +0.049 C 
ATOM      7  C   UNL     1       1.685   1.683  -0.266  0.00  0.00    -0.018 A 
ATOM      8  C   UNL     1       2.950   1.889   0.271  0.00  0.00    +0.034 A 
ATOM      9  C   UNL     1       4.043   2.052  -0.555  0.00  0.00    +0.106 A 
ATOM     10  C   UNL     1       3.892   2.013  -1.929  0.00  0.00    +0.030 A 
ATOM     11  C   UNL     1       2.640   1.810  -2.474  0.00  0.00    +0.025 A 
ATOM     12  C   UNL     1       1.538   1.648  -1.644  0.00  0.00    +0.031 A 
ATOM     13  N   UNL     1       0.274   1.452  -2.211  0.00  0.00    -0.336 N 
ATOM     14  H   UNL     1       0.183   1.145  -3.126  0.00  0.00    +0.147 HD
ENDROOT
BRANCH   1  24
ATOM     15  C   UNL     1       0.061   3.999  -1.213  0.00  0.00    +0.126 A 
ATOM     16  C   UNL     1      -0.057   5.380  -1.026  0.00  0.00    +0.046 A 
ATOM     17  C   UNL     1      -1.269   5.955  -0.802  0.00  0.00    +0.012 A 
ATOM     18  C   UNL     1      -2.423   5.154  -0.763  0.00  0.00    -0.017 A 
ATOM     19  C   UNL     1      -3.691   5.714  -0.532  0.00  0.00    +0.008 A 
ATOM     20  C   UNL     1      -4.788   4.909  -0.500  0.00  0.00    +0.001 A 
ATOM     21  C   UNL     1      -4.675   3.533  -0.692  0.00  0.00    +0.001 A 
ATOM     22  C   UNL     1      -3.463   2.955  -0.916  0.00  0.00    +0.009 A 
ATOM     23  C   UNL     1      -2.308   3.754  -0.957  0.00  0.00    -0.009 A 
ATOM     24  C   UNL     1      -1.041   3.192  -1.186  0.00  0.00    +0.022 A 
BRANCH  15  26
ATOM     25  C   UNL     1       2.398   4.351  -1.472  0.00  0.00    +0.277 C 
ATOM     26  O   UNL     1       1.286   3.454  -1.429  0.00  0.00    -0.495 OA
ENDBRANCH  15  26
ENDBRANCH   1  24
BRANCH   9  27
ATOM     27  S   UNL     1       5.639   2.314   0.145  0.00  0.00    +0.059 S 
ATOM     28  O   UNL     1       6.411   2.982  -0.843  0.00  0.00    -0.153 OA
ATOM     29  O   UNL     1       5.430   2.853   1.442  0.00  0.00    -0.153 OA
BRANCH  27  30
ATOM     30  N   UNL     1       6.330   0.824   0.357  0.00  0.00    -0.187 NA
ATOM     31  H   UNL     1       6.523   0.502   1.252  0.00  0.00    +0.148 HD
BRANCH  30  32
ATOM     32  C   UNL     1       6.650  -0.008  -0.805  0.00  0.00    +0.077 C 
ATOM     33  C   UNL     1       5.500  -0.983  -1.066  0.00  0.00    +0.020 C 
ATOM     34  C   UNL     1       5.834  -1.852  -2.280  0.00  0.00    +0.002 C 
ATOM     35  C   UNL     1       7.117  -2.639  -2.007  0.00  0.00    +0.000 C 
ATOM     36  C   UNL     1       8.267  -1.664  -1.746  0.00  0.00    +0.002 C 
ATOM     37  C   UNL     1       7.933  -0.795  -0.532  0.00  0.00    +0.020 C 
ENDBRANCH  30  32
ENDBRANCH  27  30
ENDBRANCH   9  27
TORSDOF 5
