REMARK  Name = ZINC17099034
REMARK  6 active torsions:
REMARK  status: ('A' for Active; 'I' for Inactive)
REMARK    1  A    between atoms: C_1  and  C_2
REMARK    2  A    between atoms: N_5  and  S_8
REMARK    3  A    between atoms: S_8  and  C_11
REMARK    4  A    between atoms: C_14  and  N_17
REMARK    5  A    between atoms: C_18  and  C_20
REMARK    6  A    between atoms: C_22  and  C_30
REMARK                            x       y       z     vdW  Elec       q    Type
REMARK                         _______ _______ _______ _____ _____    ______ ____
ROOT
ATOM      1  C   UNL     1      -0.808  -5.272   1.516  0.00  0.00    +0.106 A 
ATOM      2  C   UNL     1      -1.764  -5.981   0.813  0.00  0.00    +0.030 A 
ATOM      3  C   UNL     1      -1.466  -7.230   0.307  0.00  0.00    +0.025 A 
ATOM      4  C   UNL     1      -0.204  -7.775   0.503  0.00  0.00    +0.034 A 
ATOM      5  C   UNL     1       0.755  -7.060   1.209  0.00  0.00    +0.025 A 
ATOM      6  C   UNL     1       0.452  -5.809   1.709  0.00  0.00    +0.030 A 
ENDROOT
BRANCH   4   7
ATOM      7  N   UNL     1       0.101  -9.041  -0.008  0.00  0.00    -0.285 N 
ATOM      8  C   UNL     1      -0.453  -9.451  -1.166  0.00  0.00    +0.221 C 
ATOM      9  O   UNL     1      -1.139  -8.689  -1.814  0.00  0.00    -0.275 OA
ATOM     10  H   UNL     1       0.711  -9.623   0.471  0.00  0.00    +0.155 HD
BRANCH   8  11
ATOM     11  C   UNL     1      -0.219 -10.857  -1.657  0.00  0.00    +0.092 C 
ATOM     12  C   UNL     1       1.280 -11.082  -1.864  0.00  0.00    +0.117 C 
ATOM     13  C   UNL     1       1.545 -11.439  -3.328  0.00  0.00    +0.004 C 
ATOM     14  C   UNL     1       0.783 -12.715  -3.688  0.00  0.00    +0.004 C 
ATOM     15  C   UNL     1      -0.717 -12.490  -3.481  0.00  0.00    +0.004 C 
ATOM     16  C   UNL     1      -0.954 -11.063  -2.983  0.00  0.00    +0.002 C 
ATOM     17  C   UNL     1      -0.426 -10.067  -4.018  0.00  0.00    +0.004 C 
ATOM     18  C   UNL     1       1.073 -10.293  -4.225  0.00  0.00    +0.004 C 
BRANCH  12  19
ATOM     19  C   UNL     1       1.744 -12.211  -0.980  0.00  0.00    +0.360 C 
ATOM     20  O   UNL     1       0.950 -12.782  -0.252  0.00  0.00    -0.246 OA
ATOM     21  O   UNL     1       2.915 -12.553  -0.993  0.00  0.00    -0.246 OA
ENDBRANCH  12  19
ENDBRANCH   8  11
ENDBRANCH   4   7
BRANCH   1  22
ATOM     22  S   UNL     1      -1.192  -3.677   2.160  0.00  0.00    +0.061 S 
ATOM     23  O   UNL     1      -0.298  -3.450   3.242  0.00  0.00    -0.153 OA
ATOM     24  O   UNL     1      -2.604  -3.632   2.316  0.00  0.00    -0.153 OA
BRANCH  22  29
ATOM     25  C   UNL     1      -0.633   1.498  -0.243  0.00  0.00    +0.007 C 
ATOM     26  C   UNL     1      -0.524  -0.028  -0.215  0.00  0.00    -0.012 C 
ATOM     27  C   UNL     1      -1.913  -0.634  -0.002  0.00  0.00    +0.020 C 
ATOM     28  C   UNL     1      -1.805  -2.162  -0.009  0.00  0.00    +0.110 C 
ATOM     29  N   UNL     1      -0.809  -2.571   0.990  0.00  0.00    -0.177 NA
ATOM     30  C   UNL     1       0.534  -1.978   0.931  0.00  0.00    +0.110 C 
ATOM     31  C   UNL     1       0.400  -0.452   0.928  0.00  0.00    +0.020 C 
ENDBRANCH  22  29
ENDBRANCH   1  22
TORSDOF 5
