REMARK  Name = ZINC19631801
REMARK  7 active torsions:
REMARK  status: ('A' for Active; 'I' for Inactive)
REMARK    1  A    between atoms: C_1  and  O_2
REMARK    2  A    between atoms: O_2  and  C_3
REMARK    3  A    between atoms: C_8  and  N_9
REMARK    4  A    between atoms: C_10  and  C_12
REMARK    5  A    between atoms: C_16  and  N_17
REMARK    6  A    between atoms: C_18  and  C_20
REMARK    7  A    between atoms: C_26  and  C_28
REMARK                            x       y       z     vdW  Elec       q    Type
REMARK                         _______ _______ _______ _____ _____    ______ ____
ROOT
ATOM      1  C   UNL     1       1.245   1.964  -0.015  0.00  0.00    +0.069 A 
ATOM      2  C   UNL     1       1.876   2.352  -1.276  0.00  0.00    -0.023 A 
ATOM      3  C   UNL     1       3.026   3.039  -1.151  0.00  0.00    -0.004 A 
ATOM      4  S   UNL     1       3.284   3.175   0.601  0.00  0.00    -0.077 S 
ATOM      5  C   UNL     1       1.877   2.336   1.160  0.00  0.00    +0.084 A 
ATOM      6  C   UNL     1       3.612   3.405  -2.488  0.00  0.00    +0.043 C 
ATOM      7  C   UNL     1       2.447   3.226  -3.486  0.00  0.00    +0.010 C 
ATOM      8  C   UNL     1       1.574   2.179  -2.765  0.00  0.00    +0.037 C 
ENDROOT
BRANCH   1  10
ATOM      9  N   UNL     1      -1.191   1.871   0.018  0.00  0.00    -0.278 N 
ATOM     10  C   UNL     1      -0.014   1.213   0.005  0.00  0.00    +0.251 C 
ATOM     11  O   UNL     1       0.003  -0.004   0.005  0.00  0.00    -0.270 OA
ATOM     12  H   UNL     1      -1.207   2.967   0.110  0.00  0.00    +0.155 HD
BRANCH   9  18
ATOM     13  C   UNL     1      -3.572   1.701   0.420  0.00  0.00    +0.141 A 
ATOM     14  C   UNL     1      -4.757   0.992   0.314  0.00  0.00    +0.047 A 
ATOM     15  C   UNL     1      -4.768  -0.250  -0.292  0.00  0.00    +0.004 A 
ATOM     16  C   UNL     1      -3.598  -0.789  -0.794  0.00  0.00    +0.002 A 
ATOM     17  C   UNL     1      -2.412  -0.086  -0.698  0.00  0.00    +0.027 A 
ATOM     18  C   UNL     1      -2.392   1.159  -0.086  0.00  0.00    +0.076 A 
BRANCH  13  20
ATOM     19  C   UNL     1      -4.806   3.416   1.511  0.00  0.00    +0.277 C 
ATOM     20  O   UNL     1      -3.559   2.923   1.016  0.00  0.00    -0.493 OA
ENDBRANCH  13  20
ENDBRANCH   9  18
ENDBRANCH   1  10
BRANCH   5  21
ATOM     21  N   UNL     1       1.480   2.094   2.466  0.00  0.00    -0.279 N 
ATOM     22  C   UNL     1       2.232   2.539   3.492  0.00  0.00    +0.222 C 
ATOM     23  O   UNL     1       3.256   3.151   3.273  0.00  0.00    -0.275 OA
ATOM     24  H   UNL     1       0.551   1.539   2.664  0.00  0.00    +0.155 HD
BRANCH  22  25
ATOM     25  C   UNL     1       1.800   2.276   4.912  0.00  0.00    +0.093 C 
ATOM     26  C   UNL     1       1.709   0.767   5.151  0.00  0.00    +0.040 C 
ATOM     27  C   UNL     1       1.541   0.484   6.615  0.00  0.00    -0.030 C 
ATOM     28  C   UNL     1       1.797   1.339   7.552  0.00  0.00    -0.030 C 
ATOM     29  C   UNL     1       2.287   2.736   7.306  0.00  0.00    +0.042 C 
ATOM     30  C   UNL     1       2.835   2.858   5.882  0.00  0.00    +0.118 C 
BRANCH  30  31
ATOM     31  C   UNL     1       3.075   4.310   5.555  0.00  0.00    +0.360 C 
ATOM     32  O   UNL     1       2.481   4.829   4.640  0.00  0.00    -0.246 OA
ATOM     33  O   UNL     1       3.949   5.026   6.280  0.00  0.00    -0.246 OA
ENDBRANCH  30  31
ENDBRANCH  22  25
ENDBRANCH   5  21
TORSDOF 6
