REMARK  Name = ZINC60107790
REMARK  8 active torsions:
REMARK  status: ('A' for Active; 'I' for Inactive)
REMARK    1  A    between atoms: C_1  and  C_2
REMARK    2  A    between atoms: C_2  and  C_3
REMARK    3  A    between atoms: C_2  and  N_4
REMARK    4  A    between atoms: N_7  and  C_10
REMARK    5  A    between atoms: C_13  and  C_16
REMARK    6  A    between atoms: N_18  and  C_19
REMARK    7  A    between atoms: C_19  and  C_20
REMARK    8  A    between atoms: N_22  and  C_23
REMARK                            x       y       z     vdW  Elec       q    Type
REMARK                         _______ _______ _______ _____ _____    ______ ____
ROOT
ATOM      1  C   UNL     1      -6.881  -5.110  -4.229  0.00  0.00    +0.244 C 
ATOM      2  O   UNL     1      -7.614  -4.591  -5.050  0.00  0.00    -0.270 OA
ATOM      3  N   UNL     1      -6.824  -6.453  -4.131  0.00  0.00    -0.303 N 
ATOM      4  H   UNL     1      -6.240  -6.867  -3.476  0.00  0.00    +0.150 HD
ENDROOT
BRANCH   1   8
ATOM      5  C   UNL     1      -4.507  -2.691  -1.672  0.00  0.00    +0.030 A 
ATOM      6  C   UNL     1      -5.344  -2.095  -2.611  0.00  0.00    +0.024 A 
ATOM      7  C   UNL     1      -6.115  -2.876  -3.442  0.00  0.00    +0.015 A 
ATOM      8  C   UNL     1      -6.056  -4.269  -3.341  0.00  0.00    +0.037 A 
ATOM      9  C   UNL     1      -5.215  -4.864  -2.397  0.00  0.00    +0.015 A 
ATOM     10  C   UNL     1      -4.442  -4.078  -1.573  0.00  0.00    +0.024 A 
BRANCH   5  14
ATOM     11  N   UNL     1      -2.997  -0.312   1.347  0.00  0.00    +0.383 N 
ATOM     12  C   UNL     1      -3.225  -1.749   1.546  0.00  0.00    -0.059 C 
ATOM     13  C   UNL     1      -2.926  -2.497   0.242  0.00  0.00    +0.086 C 
ATOM     14  N   UNL     1      -3.730  -1.898  -0.834  0.00  0.00    -0.333 N 
ATOM     15  C   UNL     1      -3.687  -0.437  -1.000  0.00  0.00    +0.086 C 
ATOM     16  C   UNL     1      -3.950   0.214   0.362  0.00  0.00    -0.059 C 
ATOM     17  H   UNL     1      -2.056  -0.166   1.014  0.00  0.00    -0.081 HD
BRANCH  11  19
ATOM     18  C   UNL     1      -2.184  -0.155   3.652  0.00  0.00    -0.014 C 
ATOM     19  C   UNL     1      -3.177   0.391   2.624  0.00  0.00    -0.075 C 
ATOM     20  C   UNL     1      -2.929   1.887   2.421  0.00  0.00    -0.014 C 
ENDBRANCH  11  19
ENDBRANCH   5  14
ENDBRANCH   1   8
BRANCH   3  21
ATOM     21  C   UNL     1      -7.643  -7.288  -5.013  0.00  0.00    +0.200 C 
BRANCH  21  22
ATOM     22  C   UNL     1      -7.396  -8.741  -4.702  0.00  0.00    +0.234 C 
ATOM     23  O   UNL     1      -6.612  -9.050  -3.829  0.00  0.00    -0.274 OA
ATOM     24  N   UNL     1      -8.045  -9.698  -5.394  0.00  0.00    -0.282 N 
ATOM     25  H   UNL     1      -8.608  -9.456  -6.145  0.00  0.00    +0.155 HD
BRANCH  24  26
ATOM     26  C   UNL     1      -7.906 -11.044  -5.027  0.00  0.00    +0.072 A 
ATOM     27  C   UNL     1      -7.752 -11.388  -3.691  0.00  0.00    +0.029 A 
ATOM     28  C   UNL     1      -7.614 -12.714  -3.330  0.00  0.00    +0.043 A 
ATOM     29  C   UNL     1      -7.632 -13.703  -4.299  0.00  0.00    +0.161 A 
ATOM     30  C   UNL     1      -7.786 -13.364  -5.634  0.00  0.00    +0.195 A 
ATOM     31  C   UNL     1      -7.929 -12.036  -6.000  0.00  0.00    +0.182 A 
ATOM     32  F   UNL     1      -8.086 -11.706  -7.300  0.00  0.00    -0.200 F 
ATOM     33  F   UNL     1      -7.802 -14.331  -6.579  0.00  0.00    -0.199 F 
ATOM     34  F   UNL     1      -7.497 -14.999  -3.942  0.00  0.00    -0.202 F 
ENDBRANCH  24  26
ENDBRANCH  21  22
ENDBRANCH   3  21
TORSDOF 6
