REMARK  Name = ZINC38741288
REMARK  9 active torsions:
REMARK  status: ('A' for Active; 'I' for Inactive)
REMARK    1  A    between atoms: C_1  and  C_2
REMARK    2  A    between atoms: C_2  and  N_3
REMARK    3  A    between atoms: C_5  and  C_15
REMARK    4  A    between atoms: C_11  and  C_14
REMARK    5  A    between atoms: N_17  and  C_18
REMARK    6  A    between atoms: C_20  and  C_34
REMARK    7  A    between atoms: C_34  and  C_35
REMARK    8  A    between atoms: C_34  and  C_36
REMARK    9  A    between atoms: C_34  and  C_37
REMARK                            x       y       z     vdW  Elec       q    Type
REMARK                         _______ _______ _______ _____ _____    ______ ____
ROOT
ATOM      1  C   UNL     1      -5.770  -1.929   3.944  0.00  0.00    +0.132 A 
ATOM      2  C   UNL     1      -5.185  -1.699   5.152  0.00  0.00    +0.069 A 
ATOM      3  C   UNL     1      -6.143  -1.931   6.144  0.00  0.00    +0.071 A 
ATOM      4  N   UNL     1      -7.261  -2.288   5.566  0.00  0.00    -0.167 NA
ATOM      5  N   UNL     1      -7.063  -2.290   4.180  0.00  0.00    -0.183 N 
ATOM      6  C   UNL     1      -8.015  -2.609   3.213  0.00  0.00    +0.256 A 
ATOM      7  N   UNL     1      -7.675  -2.575   1.935  0.00  0.00    -0.171 NA
ATOM      8  C   UNL     1      -8.562  -2.871   0.995  0.00  0.00    +0.278 A 
ATOM      9  O   UNL     1      -8.213  -2.835  -0.313  0.00  0.00    -0.265 OA
ATOM     10  C   UNL     1      -9.863  -3.222   1.370  0.00  0.00    +0.040 A 
ATOM     11  C   UNL     1     -10.176  -3.251   2.708  0.00  0.00    +0.054 A 
ATOM     12  N   UNL     1      -9.235  -2.943   3.596  0.00  0.00    -0.215 NA
ATOM     13  C   UNL     1     -11.541  -3.631   3.213  0.00  0.00    +0.056 C 
ATOM     14  C   UNL     1     -12.574  -3.533   2.091  0.00  0.00    +0.006 C 
ATOM     15  C   UNL     1     -12.049  -4.310   0.878  0.00  0.00    +0.005 C 
ATOM     16  C   UNL     1     -10.860  -3.549   0.293  0.00  0.00    +0.042 C 
ENDROOT
BRANCH   1  19
ATOM     17  C   UNL     1      -3.867  -1.442   2.612  0.00  0.00    +0.254 C 
ATOM     18  O   UNL     1      -3.205  -1.306   3.623  0.00  0.00    -0.270 OA
ATOM     19  N   UNL     1      -5.161  -1.810   2.697  0.00  0.00    -0.266 N 
ATOM     20  H   UNL     1      -5.667  -1.993   1.891  0.00  0.00    +0.157 HD
BRANCH  17  23
ATOM     21  N   UNL     1      -1.378  -0.493   0.014  0.00  0.00    -0.331 N 
ATOM     22  C   UNL     1      -1.968  -0.722   1.195  0.00  0.00    +0.104 A 
ATOM     23  C   UNL     1      -3.256  -1.204   1.295  0.00  0.00    +0.100 A 
ATOM     24  C   UNL     1      -4.008  -1.476   0.059  0.00  0.00    +0.203 A 
ATOM     25  O   UNL     1      -5.149  -1.902   0.089  0.00  0.00    -0.286 OA
ATOM     26  C   UNL     1      -3.321  -1.210  -1.217  0.00  0.00    +0.065 A 
ATOM     27  C   UNL     1      -2.006  -0.714  -1.190  0.00  0.00    +0.145 A 
ATOM     28  N   UNL     1      -1.375  -0.466  -2.332  0.00  0.00    -0.234 NA
ATOM     29  C   UNL     1      -1.949  -0.667  -3.499  0.00  0.00    +0.041 A 
ATOM     30  C   UNL     1      -3.245  -1.150  -3.598  0.00  0.00    +0.024 A 
ATOM     31  C   UNL     1      -3.950  -1.438  -2.443  0.00  0.00    +0.017 A 
ATOM     32  C   UNL     1      -1.179  -0.365  -4.758  0.00  0.00    +0.065 C 
BRANCH  21  34
ATOM     33  C   UNL     1      -0.033   1.549   0.016  0.00  0.00    +0.027 C 
ATOM     34  C   UNL     1      -0.006   0.020   0.004  0.00  0.00    +0.120 C 
ENDBRANCH  21  34
ENDBRANCH  17  23
ENDBRANCH   1  19
BRANCH   3  35
ATOM     35  C   UNL     1      -5.923  -1.796   7.628  0.00  0.00    +0.006 C 
ATOM     36  C   UNL     1      -5.886  -0.313   8.005  0.00  0.00    +0.017 C 
ATOM     37  C   UNL     1      -7.066  -2.484   8.378  0.00  0.00    +0.017 C 
ATOM     38  C   UNL     1      -4.595  -2.452   8.009  0.00  0.00    +0.017 C 
ENDBRANCH   3  35
TORSDOF 4
