REMARK  Name = ZINC15728475
REMARK  7 active torsions:
REMARK  status: ('A' for Active; 'I' for Inactive)
REMARK    1  A    between atoms: C_1  and  C_2
REMARK    2  A    between atoms: C_4  and  N_9
REMARK    3  A    between atoms: C_10  and  C_12
REMARK    4  A    between atoms: C_12  and  N_13
REMARK    5  A    between atoms: N_13  and  C_14
REMARK    6  A    between atoms: N_13  and  S_15
REMARK    7  A    between atoms: S_15  and  C_18
REMARK                            x       y       z     vdW  Elec       q    Type
REMARK                         _______ _______ _______ _____ _____    ______ ____
ROOT
ATOM      1  S   UNL     1       4.041   2.531  -1.827  0.00  0.00    +0.061 S 
ATOM      2  O   UNL     1       5.286   3.193  -1.656  0.00  0.00    -0.153 OA
ATOM      3  O   UNL     1       3.926   1.290  -2.510  0.00  0.00    -0.153 OA
ENDROOT
BRANCH   1   4
ATOM      4  C   UNL     1       2.977   3.663  -2.659  0.00  0.00    +0.107 A 
ATOM      5  C   UNL     1       3.217   5.022  -2.572  0.00  0.00    +0.030 A 
ATOM      6  C   UNL     1       2.388   5.920  -3.220  0.00  0.00    +0.018 A 
ATOM      7  C   UNL     1       1.314   5.449  -3.959  0.00  0.00    +0.029 A 
ATOM      8  C   UNL     1       1.073   4.080  -4.049  0.00  0.00    +0.049 A 
ATOM      9  C   UNL     1       1.910   3.188  -3.400  0.00  0.00    +0.053 A 
ATOM     10  N   UNL     1      -0.015   3.619  -4.806  0.00  0.00    -0.284 N 
ATOM     11  C   UNL     1      -0.193   4.046  -6.062  0.00  0.00    +0.218 C 
ATOM     12  O   UNL     1      -1.233   3.796  -6.634  0.00  0.00    -0.275 OA
ATOM     13  C   UNL     1       0.870   4.826  -6.777  0.00  0.00    +0.107 C 
ATOM     14  C   UNL     1       0.674   6.335  -6.550  0.00  0.00    +0.083 C 
ATOM     15  S   UNL     1       0.238   6.570  -4.795  0.00  0.00    -0.123 S 
ATOM     16  H   UNL     1      -0.642   2.990  -4.416  0.00  0.00    +0.155 HD
ENDBRANCH   1   4
BRANCH   1  17
ATOM     17  N   UNL     1       3.417   2.296  -0.311  0.00  0.00    -0.171 NA
ATOM     18  C   UNL     1       3.833   3.162   0.794  0.00  0.00    +0.132 C 
BRANCH  17  19
ATOM     19  C   UNL     1       2.448   1.222  -0.076  0.00  0.00    +0.205 C 
BRANCH  19  21
ATOM     20  N   UNL     1      -0.011   0.966   0.007  0.00  0.00    -0.284 N 
ATOM     21  C   UNL     1       1.050   1.777  -0.174  0.00  0.00    +0.233 C 
ATOM     22  O   UNL     1       0.879   2.953  -0.417  0.00  0.00    -0.274 OA
ATOM     23  H   UNL     1       0.122   0.012   0.124  0.00  0.00    +0.155 HD
BRANCH  20  27
ATOM     24  C   UNL     1      -4.800   0.479  -0.992  0.00  0.00    +0.045 C 
ATOM     25  C   UNL     1      -3.645   1.284  -0.456  0.00  0.00    -0.035 A 
ATOM     26  C   UNL     1      -2.369   0.756  -0.472  0.00  0.00    +0.027 A 
ATOM     27  C   UNL     1      -1.305   1.499   0.022  0.00  0.00    +0.034 A 
ATOM     28  C   UNL     1      -1.528   2.770   0.536  0.00  0.00    +0.024 A 
ATOM     29  C   UNL     1      -2.805   3.295   0.545  0.00  0.00    +0.017 A 
ATOM     30  C   UNL     1      -3.864   2.553   0.052  0.00  0.00    +0.021 A 
ATOM     31 BR   UNL     1      -5.612   3.273   0.072  0.00  0.00    -0.050 Br
ENDBRANCH  20  27
ENDBRANCH  19  21
ENDBRANCH  17  19
ENDBRANCH   1  17
TORSDOF 5
