REMARK  Name = ZINC51151381
REMARK  2 active torsions:
REMARK  status: ('A' for Active; 'I' for Inactive)
REMARK    1  A    between atoms: C_6  and  C_7
REMARK    2  A    between atoms: N_20  and  N_21
REMARK                            x       y       z     vdW  Elec       q    Type
REMARK                         _______ _______ _______ _____ _____    ______ ____
ROOT
ATOM      1  C   UNL     1      -1.271  -0.784   0.179  0.00  0.00    +0.163 A 
ATOM      2  N   UNL     1      -1.217  -2.112   0.171  0.00  0.00    -0.211 NA
ATOM      3  C   UNL     1      -2.296  -2.858   0.014  0.00  0.00    +0.145 A 
ATOM      4  C   UNL     1      -3.561  -2.225  -0.152  0.00  0.00    +0.052 A 
ATOM      5  C   UNL     1      -4.874  -2.841  -0.343  0.00  0.00    -0.025 A 
ATOM      6  C   UNL     1      -5.927  -2.009  -0.476  0.00  0.00    -0.004 A 
ATOM      7  S   UNL     1      -5.246  -0.377  -0.358  0.00  0.00    -0.073 S 
ATOM      8  C   UNL     1      -3.542  -0.815  -0.132  0.00  0.00    +0.114 A 
ATOM      9  N   UNL     1      -2.422  -0.141   0.035  0.00  0.00    -0.220 NA
ATOM     10  C   UNL     1      -7.363  -2.388  -0.681  0.00  0.00    +0.043 C 
ATOM     11  C   UNL     1      -7.420  -3.866  -1.091  0.00  0.00    +0.005 C 
ATOM     12  C   UNL     1      -6.538  -4.675  -0.135  0.00  0.00    +0.005 C 
ATOM     13  C   UNL     1      -5.065  -4.355  -0.391  0.00  0.00    +0.037 C 
ATOM     14  N   UNL     1      -2.199  -4.238   0.012  0.00  0.00    -0.267 N 
ATOM     15  H   UNL     1      -2.926  -4.775  -0.339  0.00  0.00    +0.167 HD
ENDROOT
BRANCH   1  21
ATOM     16  C   UNL     1      -0.041   1.391   0.377  0.00  0.00    +0.031 A 
ATOM     17  C   UNL     1       1.145   2.076   0.547  0.00  0.00    +0.111 A 
ATOM     18  N   UNL     1       2.285   1.429   0.690  0.00  0.00    -0.263 NA
ATOM     19  C   UNL     1       2.349   0.112   0.678  0.00  0.00    +0.111 A 
ATOM     20  C   UNL     1       1.210  -0.651   0.513  0.00  0.00    +0.031 A 
ATOM     21  C   UNL     1      -0.021  -0.006   0.358  0.00  0.00    +0.022 A 
ENDBRANCH   1  21
BRANCH  14  22
ATOM     22  N   UNL     1      -1.078  -4.845   0.503  0.00  0.00    -0.255 NA
ATOM     23  H   UNL     1      -0.899  -4.558   1.454  0.00  0.00    +0.140 HD
ATOM     24  H   UNL     1      -1.151  -5.849   0.436  0.00  0.00    +0.140 HD
ENDBRANCH  14  22
TORSDOF 2
