REMARK  Name = ZINC66185281
REMARK  11 active torsions:
REMARK  status: ('A' for Active; 'I' for Inactive)
REMARK    1  A    between atoms: C_1  and  C_2
REMARK    2  A    between atoms: C_5  and  N_12
REMARK    3  A    between atoms: C_7  and  N_8
REMARK    4  A    between atoms: C_9  and  C_11
REMARK    5  A    between atoms: N_12  and  C_13
REMARK    6  A    between atoms: C_13  and  N_15
REMARK    7  A    between atoms: C_16  and  C_18
REMARK    8  A    between atoms: C_23  and  O_24
REMARK    9  A    between atoms: O_24  and  C_25
REMARK   10  A    between atoms: C_25  and  C_26
REMARK   11  A    between atoms: C_25  and  C_27
REMARK                            x       y       z     vdW  Elec       q    Type
REMARK                         _______ _______ _______ _____ _____    ______ ____
ROOT
ATOM      1  C   UNL     1       1.008  -4.217  -1.391  0.00  0.00    +0.141 C 
ATOM      2  S   UNL     1       0.676  -3.494  -2.907  0.00  0.00    -0.018 S 
ENDROOT
BRANCH   1   3
ATOM      3  N   UNL     1       1.002  -5.559  -1.268  0.00  0.00    -0.263 N 
ATOM      4  C   UNL     1       0.736  -6.332  -2.339  0.00  0.00    +0.253 C 
ATOM      5  O   UNL     1       0.500  -5.819  -3.416  0.00  0.00    -0.270 OA
ATOM      6  H   UNL     1       1.190  -5.968  -0.409  0.00  0.00    +0.157 HD
BRANCH   4   7
ATOM      7  C   UNL     1       0.730  -7.801  -2.205  0.00  0.00    +0.080 A 
ATOM      8  C   UNL     1       0.994  -8.394  -0.968  0.00  0.00    +0.032 A 
ATOM      9  C   UNL     1       0.987  -9.768  -0.849  0.00  0.00    +0.019 A 
ATOM     10  C   UNL     1       0.719 -10.563  -1.953  0.00  0.00    +0.019 A 
ATOM     11  C   UNL     1       0.456  -9.989  -3.180  0.00  0.00    +0.047 A 
ATOM     12  C   UNL     1       0.453  -8.609  -3.316  0.00  0.00    +0.133 A 
ATOM     13 BR   UNL     1       1.345 -10.570   0.825  0.00  0.00    -0.050 Br
BRANCH  12  14
ATOM     14  O   UNL     1       0.188  -8.043  -4.521  0.00  0.00    -0.489 OA
BRANCH  14  15
ATOM     15  C   UNL     1      -0.057  -8.931  -5.614  0.00  0.00    +0.167 C 
ATOM     16  C   UNL     1      -1.525  -9.360  -5.602  0.00  0.00    +0.051 C 
ATOM     17  C   UNL     1       0.255  -8.216  -6.930  0.00  0.00    +0.051 C 
ENDBRANCH  14  15
ENDBRANCH  12  14
ENDBRANCH   4   7
ENDBRANCH   1   3
BRANCH   1  18
ATOM     18  N   UNL     1       1.274  -3.443  -0.320  0.00  0.00    -0.297 N 
ATOM     19  H   UNL     1       1.414  -3.850   0.550  0.00  0.00    +0.154 HD
BRANCH  18  24
ATOM     20  C   UNL     1       1.565   2.197  -0.901  0.00  0.00    +0.045 C 
ATOM     21  C   UNL     1       1.489   0.700  -0.747  0.00  0.00    -0.029 A 
ATOM     22  C   UNL     1       0.469  -0.007  -1.355  0.00  0.00    +0.007 A 
ATOM     23  C   UNL     1       0.396  -1.379  -1.215  0.00  0.00    +0.023 A 
ATOM     24  C   UNL     1       1.349  -2.054  -0.462  0.00  0.00    +0.034 A 
ATOM     25  C   UNL     1       2.375  -1.347   0.150  0.00  0.00    +0.046 A 
ATOM     26  C   UNL     1       2.449   0.030   0.003  0.00  0.00    +0.038 A 
BRANCH  26  27
ATOM     27  N   UNL     1       3.485   0.746   0.613  0.00  0.00    -0.285 N 
ATOM     28  C   UNL     1       4.042   0.286   1.750  0.00  0.00    +0.214 C 
ATOM     29  O   UNL     1       3.692  -0.781   2.209  0.00  0.00    -0.276 OA
ATOM     30  C   UNL     1       5.101   1.097   2.452  0.00  0.00    +0.109 C 
ATOM     31  H   UNL     1       3.803   1.572   0.217  0.00  0.00    +0.155 HD
ENDBRANCH  26  27
ENDBRANCH  18  24
ENDBRANCH   1  18
TORSDOF 7
