REMARK  Name = ZINC39623718
REMARK  8 active torsions:
REMARK  status: ('A' for Active; 'I' for Inactive)
REMARK    1  A    between atoms: C_4  and  C_7
REMARK    2  A    between atoms: C_7  and  C_8
REMARK    3  A    between atoms: C_8  and  C_9
REMARK    4  A    between atoms: C_9  and  N_10
REMARK    5  A    between atoms: C_11  and  C_13
REMARK    6  A    between atoms: C_24  and  C_26
REMARK    7  A    between atoms: C_31  and  S_32
REMARK    8  A    between atoms: S_32  and  C_33
REMARK                            x       y       z     vdW  Elec       q    Type
REMARK                         _______ _______ _______ _____ _____    ______ ____
ROOT
ATOM      1  C   UNL     1       7.471  -3.331   4.788  0.00  0.00    +0.100 C 
ATOM      2  C   UNL     1       7.769  -1.898   5.282  0.00  0.00    +0.121 C 
ATOM      3  N   UNL     1       9.044  -2.017   6.029  0.00  0.00    -0.296 N 
ATOM      4  C   UNL     1       9.852  -2.968   5.229  0.00  0.00    +0.115 C 
ATOM      5  C   UNL     1       8.841  -4.030   4.754  0.00  0.00    -0.004 C 
ATOM      6  C   UNL     1       9.172  -4.474   3.332  0.00  0.00    -0.010 C 
ATOM      7  C   UNL     1      10.511  -5.218   3.333  0.00  0.00    -0.082 C 
ATOM      8  N   UNL     1      10.425  -6.381   4.223  0.00  0.00    +0.379 N 
ATOM      9  C   UNL     1      10.200  -5.939   5.605  0.00  0.00    -0.082 C 
ATOM     10  C   UNL     1       8.848  -5.226   5.700  0.00  0.00    -0.010 C 
ATOM     11  C   UNL     1       9.390  -1.400   7.176  0.00  0.00    +0.249 C 
ATOM     12  O   UNL     1      10.516  -1.526   7.619  0.00  0.00    -0.270 OA
ATOM     13  H   UNL     1       9.661  -6.972   3.931  0.00  0.00    -0.086 HD
ATOM     14  H   UNL     1      11.288  -6.904   4.176  0.00  0.00    -0.086 HD
ENDROOT
BRANCH  11  15
ATOM     15  C   UNL     1       8.404  -0.572   7.894  0.00  0.00    +0.069 A 
ATOM     16  C   UNL     1       7.463   0.188   7.189  0.00  0.00    +0.017 A 
ATOM     17  C   UNL     1       6.559   0.948   7.910  0.00  0.00    +0.020 A 
ATOM     18  C   UNL     1       6.609   0.937   9.293  0.00  0.00    +0.112 A 
ATOM     19  N   UNL     1       7.503   0.215   9.939  0.00  0.00    -0.248 NA
ATOM     20  C   UNL     1       8.388  -0.535   9.299  0.00  0.00    +0.114 A 
BRANCH  20  21
ATOM     21  S   UNL     1       9.556  -1.486  10.214  0.00  0.00    -0.069 S 
BRANCH  21  22
ATOM     22  C   UNL     1       9.273  -1.013  11.888  0.00  0.00    +0.014 A 
ATOM     23  C   UNL     1       8.429  -1.769  12.692  0.00  0.00    +0.015 A 
ATOM     24  C   UNL     1       8.210  -1.396  14.003  0.00  0.00    +0.001 A 
ATOM     25  C   UNL     1       8.829  -0.270  14.516  0.00  0.00    +0.000 A 
ATOM     26  C   UNL     1       9.669   0.485  13.718  0.00  0.00    +0.001 A 
ATOM     27  C   UNL     1       9.897   0.114  12.408  0.00  0.00    +0.015 A 
ENDBRANCH  21  22
ENDBRANCH  20  21
ENDBRANCH  11  15
BRANCH   1  29
ATOM     28  N   UNL     1       6.026  -4.274   3.016  0.00  0.00    -0.315 N 
ATOM     29  C   UNL     1       6.866  -3.295   3.409  0.00  0.00    +0.218 C 
ATOM     30  O   UNL     1       7.134  -2.386   2.652  0.00  0.00    -0.275 OA
ATOM     31  H   UNL     1       5.811  -5.000   3.621  0.00  0.00    +0.149 HD
BRANCH  28  32
ATOM     32  C   UNL     1       5.437  -4.239   1.675  0.00  0.00    +0.104 C 
BRANCH  32  33
ATOM     33  C   UNL     1       4.529  -5.455   1.485  0.00  0.00    +0.023 C 
BRANCH  33  34
ATOM     34  C   UNL     1       3.914  -5.419   0.085  0.00  0.00    +0.036 C 
BRANCH  34  38
ATOM     35  C   UNL     1       1.377  -8.815  -0.448  0.00  0.00    +0.000 A 
ATOM     36  C   UNL     1       0.860  -7.639   0.063  0.00  0.00    +0.000 A 
ATOM     37  C   UNL     1       1.681  -6.540   0.235  0.00  0.00    +0.003 A 
ATOM     38  C   UNL     1       3.019  -6.617  -0.103  0.00  0.00    -0.047 A 
ATOM     39  C   UNL     1       3.537  -7.793  -0.613  0.00  0.00    +0.003 A 
ATOM     40  C   UNL     1       2.716  -8.891  -0.786  0.00  0.00    +0.000 A 
ENDBRANCH  34  38
ENDBRANCH  33  34
ENDBRANCH  32  33
ENDBRANCH  28  32
ENDBRANCH   1  29
TORSDOF 8
