REMARK  Name = ZINC15959627
REMARK  6 active torsions:
REMARK  status: ('A' for Active; 'I' for Inactive)
REMARK    1  A    between atoms: C_1  and  C_2
REMARK    2  A    between atoms: C_5  and  C_8
REMARK    3  A    between atoms: N_26  and  C_29
REMARK    4  A    between atoms: C_32  and  C_35
REMARK    5  A    between atoms: N_37  and  C_38
REMARK    6  A    between atoms: C_38  and  C_39
REMARK                            x       y       z     vdW  Elec       q    Type
REMARK                         _______ _______ _______ _____ _____    ______ ____
ROOT
ATOM      1  C   UNL     1       3.617   1.037  -0.173  0.00  0.00    +0.155 C 
ATOM      2  C   UNL     1       4.067  -0.059  -1.119  0.00  0.00    +0.046 A 
ATOM      3  C   UNL     1       3.252  -1.031  -1.580  0.00  0.00    -0.015 A 
ATOM      4  C   UNL     1       4.056  -1.877  -2.443  0.00  0.00    +0.003 A 
ATOM      5  C   UNL     1       3.758  -3.023  -3.186  0.00  0.00    +0.010 A 
ATOM      6  C   UNL     1       4.786  -3.577  -3.908  0.00  0.00    +0.001 A 
ATOM      7  C   UNL     1       6.061  -3.036  -3.909  0.00  0.00    +0.002 A 
ATOM      8  C   UNL     1       6.383  -1.903  -3.183  0.00  0.00    +0.026 A 
ATOM      9  C   UNL     1       5.359  -1.318  -2.439  0.00  0.00    +0.047 A 
ATOM     10  N   UNL     1       5.327  -0.220  -1.630  0.00  0.00    -0.356 N 
ATOM     11  H   UNL     1       6.083   0.359  -1.444  0.00  0.00    +0.166 HD
ATOM     12  C   UNL     1       1.787  -1.182  -1.256  0.00  0.00    +0.069 C 
ATOM     13  C   UNL     1       1.466  -0.398   0.022  0.00  0.00    +0.170 C 
ATOM     14  N   UNL     1       2.159   0.907  -0.057  0.00  0.00    -0.260 N 
ATOM     15  C   UNL     1       1.222   1.857  -0.021  0.00  0.00    +0.317 C 
ATOM     16  O   UNL     1       1.464   3.048  -0.017  0.00  0.00    -0.252 OA
ATOM     17  N   UNL     1      -0.016   1.345   0.009  0.00  0.00    -0.193 N 
ATOM     18  C   UNL     1       0.002  -0.004   0.024  0.00  0.00    +0.248 C 
ATOM     19  O   UNL     1      -0.955  -0.748   0.035  0.00  0.00    -0.273 OA
ENDROOT
BRANCH   1  24
ATOM     20  C   UNL     1       4.981   6.216  -2.342  0.00  0.00    +0.044 C 
ATOM     21  C   UNL     1       4.625   4.865  -1.776  0.00  0.00    -0.050 A 
ATOM     22  C   UNL     1       5.383   4.322  -0.756  0.00  0.00    +0.004 A 
ATOM     23  C   UNL     1       5.057   3.083  -0.237  0.00  0.00    +0.006 A 
ATOM     24  C   UNL     1       3.972   2.388  -0.738  0.00  0.00    -0.021 A 
ATOM     25  C   UNL     1       3.217   2.929  -1.762  0.00  0.00    +0.006 A 
ATOM     26  C   UNL     1       3.541   4.170  -2.278  0.00  0.00    +0.004 A 
ENDBRANCH   1  24
BRANCH  17  27
ATOM     27  C   UNL     1      -1.183   2.114   0.019  0.00  0.00    +0.045 A 
ATOM     28  C   UNL     1      -1.102   3.497   0.137  0.00  0.00    +0.025 A 
ATOM     29  C   UNL     1      -2.249   4.258   0.141  0.00  0.00    +0.015 A 
ATOM     30  C   UNL     1      -3.497   3.638   0.039  0.00  0.00    +0.037 A 
ATOM     31  C   UNL     1      -3.576   2.248  -0.073  0.00  0.00    +0.015 A 
ATOM     32  C   UNL     1      -2.424   1.493  -0.083  0.00  0.00    +0.025 A 
BRANCH  30  33
ATOM     33  C   UNL     1      -4.730   4.450   0.051  0.00  0.00    +0.244 C 
ATOM     34  O   UNL     1      -5.815   3.909  -0.038  0.00  0.00    -0.270 OA
ATOM     35  N   UNL     1      -4.652   5.791   0.159  0.00  0.00    -0.308 N 
ATOM     36  H   UNL     1      -3.787   6.223   0.230  0.00  0.00    +0.149 HD
BRANCH  35  37
ATOM     37  C   UNL     1      -5.876   6.597   0.171  0.00  0.00    +0.131 C 
BRANCH  37  38
ATOM     38  C   UNL     1      -5.516   8.055   0.300  0.00  0.00    -0.016 C 
ATOM     39  C   UNL     1      -5.951   8.918  -0.583  0.00  0.00    +0.005 C 
ENDBRANCH  37  38
ENDBRANCH  35  37
ENDBRANCH  30  33
ENDBRANCH  17  27
TORSDOF 5
