REMARK  Name = ZINC28308631
REMARK  10 active torsions:
REMARK  status: ('A' for Active; 'I' for Inactive)
REMARK    1  A    between atoms: C_1  and  C_2
REMARK    2  A    between atoms: C_2  and  N_3
REMARK    3  A    between atoms: N_3  and  C_4
REMARK    4  A    between atoms: N_3  and  C_6
REMARK    5  A    between atoms: C_4  and  C_5
REMARK    6  A    between atoms: C_9  and  C_12
REMARK    7  A    between atoms: C_13  and  C_14
REMARK    8  A    between atoms: C_13  and  N_23
REMARK    9  A    between atoms: N_16  and  C_17
REMARK   10  A    between atoms: C_24  and  C_26
REMARK                            x       y       z     vdW  Elec       q    Type
REMARK                         _______ _______ _______ _____ _____    ______ ____
ROOT
ATOM      1  C   UNL     1      -0.902   1.724   0.298  0.00  0.00    +0.036 C 
ATOM      2  C   UNL     1      -0.982   3.047   0.020  0.00  0.00    +0.097 C 
ENDROOT
BRANCH   1   6
ATOM      3  C   UNL     1       2.874  -0.206   0.387  0.00  0.00    +0.030 A 
ATOM      4  C   UNL     1       1.896  -0.553   1.314  0.00  0.00    +0.024 A 
ATOM      5  C   UNL     1       0.670   0.071   1.290  0.00  0.00    +0.010 A 
ATOM      6  C   UNL     1       0.408   1.058   0.331  0.00  0.00    -0.023 A 
ATOM      7  C   UNL     1       1.395   1.404  -0.599  0.00  0.00    +0.010 A 
ATOM      8  C   UNL     1       2.618   0.773  -0.568  0.00  0.00    +0.024 A 
BRANCH   3   9
ATOM      9  N   UNL     1       4.113  -0.842   0.414  0.00  0.00    -0.330 N 
BRANCH   9  11
ATOM     10  C   UNL     1       6.001   0.658   0.003  0.00  0.00    +0.024 C 
ATOM     11  C   UNL     1       5.145  -0.478  -0.561  0.00  0.00    +0.102 C 
ENDBRANCH   9  11
BRANCH   9  12
ATOM     12  C   UNL     1       4.385  -1.873   1.418  0.00  0.00    +0.102 C 
ATOM     13  C   UNL     1       3.983  -3.242   0.865  0.00  0.00    +0.024 C 
ENDBRANCH   9  12
ENDBRANCH   3   9
ENDBRANCH   1   6
BRANCH   2  14
ATOM     14  C   UNL     1       0.243   3.847  -0.101  0.00  0.00    +0.262 C 
ATOM     15  O   UNL     1       0.710   4.082  -1.200  0.00  0.00    -0.268 OA
ATOM     16  N   UNL     1       0.850   4.321   1.005  0.00  0.00    -0.280 N 
ATOM     17  H   UNL     1       0.485   4.029   2.001  0.00  0.00    +0.155 HD
BRANCH  16  18
ATOM     18  C   UNL     1       1.943   5.185   0.887  0.00  0.00    +0.034 A 
ATOM     19  C   UNL     1       2.027   6.058  -0.190  0.00  0.00    +0.023 A 
ATOM     20  C   UNL     1       3.105   6.914  -0.301  0.00  0.00    +0.002 A 
ATOM     21  C   UNL     1       4.106   6.894   0.653  0.00  0.00    +0.000 A 
ATOM     22  C   UNL     1       4.029   6.021   1.723  0.00  0.00    +0.002 A 
ATOM     23  C   UNL     1       2.950   5.167   1.843  0.00  0.00    +0.023 A 
ENDBRANCH  16  18
ENDBRANCH   2  14
BRANCH   2  24
ATOM     24  N   UNL     1      -2.232   3.651  -0.152  0.00  0.00    -0.277 N 
ATOM     25  C   UNL     1      -2.316   4.981  -0.356  0.00  0.00    +0.248 C 
ATOM     26  O   UNL     1      -1.303   5.641  -0.486  0.00  0.00    -0.270 OA
ATOM     27  H   UNL     1      -3.147   3.041  -0.121  0.00  0.00    +0.155 HD
BRANCH  25  28
ATOM     28  C   UNL     1      -3.638   5.636  -0.422  0.00  0.00    +0.037 A 
ATOM     29  C   UNL     1      -4.803   4.880  -0.278  0.00  0.00    +0.014 A 
ATOM     30  C   UNL     1      -6.035   5.499  -0.334  0.00  0.00    +0.016 A 
ATOM     31  C   UNL     1      -6.117   6.865  -0.544  0.00  0.00    +0.018 A 
ATOM     32  C   UNL     1      -4.965   7.620  -0.693  0.00  0.00    +0.016 A 
ATOM     33  C   UNL     1      -3.728   7.014  -0.633  0.00  0.00    +0.014 A 
ATOM     34 BR   UNL     1      -7.810   7.705  -0.628  0.00  0.00    -0.050 Br
ENDBRANCH  25  28
ENDBRANCH   2  24
TORSDOF 8
