REMARK  Name = ZINC39303729
REMARK  11 active torsions:
REMARK  status: ('A' for Active; 'I' for Inactive)
REMARK    1  A    between atoms: C_1  and  C_2
REMARK    2  A    between atoms: C_2  and  C_3
REMARK    3  A    between atoms: C_2  and  C_4
REMARK    4  A    between atoms: C_7  and  O_38
REMARK    5  A    between atoms: C_8  and  C_10
REMARK    6  A    between atoms: C_10  and  N_11
REMARK    7  A    between atoms: C_16  and  C_18
REMARK    8  A    between atoms: N_23  and  C_26
REMARK    9  A    between atoms: C_26  and  C_27
REMARK   10  A    between atoms: C_30  and  N_33
REMARK   11  A    between atoms: O_38  and  C_39
REMARK                            x       y       z     vdW  Elec       q    Type
REMARK                         _______ _______ _______ _____ _____    ______ ____
ROOT
ATOM      1  C   UNL     1      -5.776  -4.292  -2.955  0.00  0.00    +0.202 C 
ATOM      2  O   UNL     1      -6.245  -3.484  -2.182  0.00  0.00    -0.277 OA
ATOM      3  N   UNL     1      -6.476  -4.669  -4.044  0.00  0.00    -0.300 N 
ATOM      4  C   UNL     1      -5.981  -5.734  -4.929  0.00  0.00    +0.123 C 
ATOM      5  C   UNL     1      -7.100  -6.760  -5.131  0.00  0.00    +0.103 C 
ATOM      6  N   UNL     1      -8.311  -6.073  -5.602  0.00  0.00    -0.295 NA
ATOM      7  C   UNL     1      -8.807  -5.120  -4.601  0.00  0.00    +0.103 C 
ATOM      8  C   UNL     1      -7.760  -4.031  -4.374  0.00  0.00    +0.123 C 
ENDROOT
BRANCH   1  14
ATOM      9  N   UNL     1      -3.599  -3.909  -1.950  0.00  0.00    +0.390 N 
ATOM     10  C   UNL     1      -2.243  -4.438  -1.761  0.00  0.00    -0.077 C 
ATOM     11  C   UNL     1      -2.301  -5.711  -0.914  0.00  0.00    -0.019 C 
ATOM     12  C   UNL     1      -3.162  -6.755  -1.630  0.00  0.00    -0.003 C 
ATOM     13  C   UNL     1      -4.552  -6.166  -1.888  0.00  0.00    -0.006 C 
ATOM     14  C   UNL     1      -4.411  -4.876  -2.699  0.00  0.00    +0.020 C 
ATOM     15  H   UNL     1      -4.022  -3.744  -1.048  0.00  0.00    -0.080 HD
BRANCH   9  16
ATOM     16  C   UNL     1      -3.531  -2.646  -2.696  0.00  0.00    -0.038 C 
BRANCH  16  21
ATOM     17  C   UNL     1      -0.858  -0.306  -1.418  0.00  0.00    -0.044 A 
ATOM     18  C   UNL     1      -1.498   0.291  -0.347  0.00  0.00    +0.007 A 
ATOM     19  C   UNL     1      -2.796  -0.060  -0.034  0.00  0.00    +0.046 A 
ATOM     20  C   UNL     1      -3.459  -1.013  -0.795  0.00  0.00    +0.121 A 
ATOM     21  C   UNL     1      -2.815  -1.611  -1.868  0.00  0.00    -0.022 A 
ATOM     22  C   UNL     1      -1.518  -1.252  -2.181  0.00  0.00    +0.009 A 
BRANCH  17  24
ATOM     23  C   UNL     1       0.620   1.575  -2.071  0.00  0.00    +0.012 C 
ATOM     24  C   UNL     1       0.559   0.078  -1.757  0.00  0.00    +0.013 C 
ATOM     25  C   UNL     1       1.470  -0.231  -0.568  0.00  0.00    +0.012 C 
ENDBRANCH  17  24
BRANCH  20  26
ATOM     26  O   UNL     1      -4.736  -1.361  -0.488  0.00  0.00    -0.495 OA
ATOM     27  C   UNL     1      -5.336  -0.705   0.631  0.00  0.00    +0.277 C 
ENDBRANCH  20  26
ENDBRANCH  16  21
ENDBRANCH   9  16
ENDBRANCH   1  14
BRANCH   6  28
ATOM     28  C   UNL     1      -9.354  -7.039  -5.972  0.00  0.00    +0.119 C 
BRANCH  28  29
ATOM     29  C   UNL     1     -10.477  -6.321  -6.675  0.00  0.00    -0.033 A 
ATOM     30  C   UNL     1     -11.530  -5.805  -5.943  0.00  0.00    +0.007 A 
ATOM     31  C   UNL     1     -12.561  -5.146  -6.584  0.00  0.00    +0.023 A 
ATOM     32  C   UNL     1     -12.539  -5.003  -7.965  0.00  0.00    +0.030 A 
ATOM     33  C   UNL     1     -11.479  -5.523  -8.697  0.00  0.00    +0.023 A 
ATOM     34  C   UNL     1     -10.449  -6.176  -8.049  0.00  0.00    +0.007 A 
BRANCH  32  35
ATOM     35  N   UNL     1     -13.580  -4.338  -8.617  0.00  0.00    -0.330 N 
ATOM     36  C   UNL     1     -14.754  -3.738  -7.966  0.00  0.00    +0.105 C 
ATOM     37  C   UNL     1     -15.641  -3.142  -9.079  0.00  0.00    +0.020 C 
ATOM     38  C   UNL     1     -15.199  -3.935 -10.337  0.00  0.00    +0.020 C 
ATOM     39  C   UNL     1     -13.681  -4.117 -10.071  0.00  0.00    +0.105 C 
ENDBRANCH  32  35
ENDBRANCH  28  29
ENDBRANCH   6  28
TORSDOF 8
