REMARK  Name = ZINC35890752
REMARK  7 active torsions:
REMARK  status: ('A' for Active; 'I' for Inactive)
REMARK    1  A    between atoms: C_1  and  C_2
REMARK    2  A    between atoms: C_5  and  C_8
REMARK    3  A    between atoms: C_10  and  C_34
REMARK    4  A    between atoms: C_11  and  C_33
REMARK    5  A    between atoms: C_12  and  N_14
REMARK    6  A    between atoms: N_22  and  C_23
REMARK    7  A    between atoms: C_28  and  C_29
REMARK                            x       y       z     vdW  Elec       q    Type
REMARK                         _______ _______ _______ _____ _____    ______ ____
ROOT
ATOM      1  N   UNL     1       0.576  -5.879  -3.001  0.00  0.00    -0.312 N 
ATOM      2  C   UNL     1       1.228  -7.192  -3.094  0.00  0.00    +0.125 C 
ATOM      3  C   UNL     1       0.198  -8.217  -3.585  0.00  0.00    +0.128 C 
ATOM      4  N   UNL     1      -0.475  -7.674  -4.774  0.00  0.00    -0.282 N 
ATOM      5  C   UNL     1      -1.127  -6.360  -4.681  0.00  0.00    +0.128 C 
ATOM      6  C   UNL     1      -0.102  -5.338  -4.188  0.00  0.00    +0.125 C 
ATOM      7  C   UNL     1      -0.492  -8.368  -5.929  0.00  0.00    +0.307 C 
ATOM      8  O   UNL     1      -0.032  -9.492  -5.970  0.00  0.00    -0.252 OA
ATOM      9  N   UNL     1      -1.021  -7.816  -7.039  0.00  0.00    -0.269 N 
ATOM     10  H   UNL     1      -1.465  -6.955  -6.988  0.00  0.00    +0.156 HD
ENDROOT
BRANCH   1  15
ATOM     11  C   UNL     1      -0.321  -4.692   0.250  0.00  0.00    +0.140 A 
ATOM     12  N   UNL     1       0.612  -3.785   0.505  0.00  0.00    -0.343 N 
ATOM     13  C   UNL     1       1.569  -3.527  -0.373  0.00  0.00    +0.021 A 
ATOM     14  C   UNL     1       1.590  -4.216  -1.572  0.00  0.00    +0.008 A 
ATOM     15  C   UNL     1       0.594  -5.165  -1.813  0.00  0.00    +0.128 A 
ATOM     16  N   UNL     1      -0.333  -5.377  -0.885  0.00  0.00    -0.214 NA
ATOM     17  C   UNL     1       2.663  -3.948  -2.595  0.00  0.00    +0.049 C 
ATOM     18  C   UNL     1       2.623  -2.494  -0.070  0.00  0.00    +0.064 C 
ATOM     19  H   UNL     1       0.594  -3.304   1.347  0.00  0.00    +0.167 HD
BRANCH  11  24
ATOM     20  C   UNL     1      -4.410  -5.694   4.178  0.00  0.00    +0.044 C 
ATOM     21  C   UNL     1      -3.340  -5.432   3.150  0.00  0.00    -0.050 A 
ATOM     22  C   UNL     1      -3.339  -6.139   1.961  0.00  0.00    +0.004 A 
ATOM     23  C   UNL     1      -2.362  -5.902   1.016  0.00  0.00    +0.012 A 
ATOM     24  C   UNL     1      -1.375  -4.950   1.261  0.00  0.00    +0.017 A 
ATOM     25  C   UNL     1      -1.381  -4.241   2.461  0.00  0.00    +0.012 A 
ATOM     26  C   UNL     1      -2.366  -4.481   3.397  0.00  0.00    +0.004 A 
ENDBRANCH  11  24
ENDBRANCH   1  15
BRANCH   9  27
ATOM     27  C   UNL     1      -0.929  -8.484  -8.265  0.00  0.00    +0.046 A 
ATOM     28  C   UNL     1      -1.161  -9.852  -8.331  0.00  0.00    +0.024 A 
ATOM     29  C   UNL     1      -1.070 -10.509  -9.542  0.00  0.00    +0.002 A 
ATOM     30  C   UNL     1      -0.748  -9.806 -10.689  0.00  0.00    +0.001 A 
ATOM     31  C   UNL     1      -0.517  -8.444 -10.627  0.00  0.00    +0.014 A 
ATOM     32  C   UNL     1      -0.612  -7.780  -9.419  0.00  0.00    +0.076 A 
BRANCH  32  33
ATOM     33  C   UNL     1      -0.366  -6.295  -9.353  0.00  0.00    +0.419 C 
ATOM     34  F   UNL     1      -0.067  -5.815 -10.633  0.00  0.00    -0.166 F 
ATOM     35  F   UNL     1      -1.512  -5.653  -8.871  0.00  0.00    -0.166 F 
ATOM     36  F   UNL     1       0.709  -6.038  -8.495  0.00  0.00    -0.166 F 
ENDBRANCH  32  33
ENDBRANCH   9  27
TORSDOF 4
