REMARK  Name = ZINC12530333
REMARK  7 active torsions:
REMARK  status: ('A' for Active; 'I' for Inactive)
REMARK    1  A    between atoms: C_7  and  C_11
REMARK    2  A    between atoms: C_11  and  C_12
REMARK    3  A    between atoms: N_16  and  C_20
REMARK    4  A    between atoms: C_20  and  C_21
REMARK    5  A    between atoms: N_23  and  C_24
REMARK    6  A    between atoms: C_27  and  S_30
REMARK    7  A    between atoms: S_30  and  N_33
REMARK                            x       y       z     vdW  Elec       q    Type
REMARK                         _______ _______ _______ _____ _____    ______ ____
ROOT
ATOM      1  C   UNL     1       2.942   9.625   0.198  0.00  0.00    +0.165 C 
ATOM      2  C   UNL     1       3.249   8.252   0.763  0.00  0.00    +0.244 C 
ATOM      3  O   UNL     1       3.383   7.954   1.930  0.00  0.00    -0.273 OA
ATOM      4  N   UNL     1       3.340   7.432  -0.303  0.00  0.00    -0.216 N 
ATOM      5  C   UNL     1       3.141   8.090  -1.451  0.00  0.00    +0.310 C 
ATOM      6  O   UNL     1       3.178   7.565  -2.546  0.00  0.00    -0.252 OA
ATOM      7  N   UNL     1       2.892   9.398  -1.257  0.00  0.00    -0.287 N 
ATOM      8  H   UNL     1       2.717  10.063  -1.941  0.00  0.00    +0.151 HD
ENDROOT
BRANCH   1   9
ATOM      9  C   UNL     1       1.592  10.129   0.711  0.00  0.00    +0.069 C 
BRANCH   9  16
ATOM     10  C   UNL     1      -0.132  11.942  -3.253  0.00  0.00    +0.001 A 
ATOM     11  C   UNL     1      -0.150  13.330  -3.250  0.00  0.00    +0.002 A 
ATOM     12  C   UNL     1       0.308  14.036  -2.159  0.00  0.00    +0.026 A 
ATOM     13  C   UNL     1       0.794  13.354  -1.049  0.00  0.00    +0.047 A 
ATOM     14  C   UNL     1       0.810  11.947  -1.057  0.00  0.00    +0.003 A 
ATOM     15  C   UNL     1       0.341  11.252  -2.173  0.00  0.00    +0.010 A 
ATOM     16  C   UNL     1       1.369  11.541   0.235  0.00  0.00    -0.020 A 
ATOM     17  C   UNL     1       1.639  12.666   0.916  0.00  0.00    +0.087 A 
ATOM     18  N   UNL     1       1.307  13.759   0.163  0.00  0.00    -0.360 N 
ATOM     19  H   UNL     1       1.414  14.682   0.442  0.00  0.00    +0.165 HD
ENDBRANCH   9  16
ENDBRANCH   1   9
BRANCH   4  20
ATOM     20  C   UNL     1       3.628   5.998  -0.216  0.00  0.00    +0.214 C 
BRANCH  20  21
ATOM     21  C   UNL     1       2.336   5.233  -0.094  0.00  0.00    +0.235 C 
ATOM     22  O   UNL     1       1.278   5.827  -0.082  0.00  0.00    -0.274 OA
ATOM     23  N   UNL     1       2.356   3.889   0.001  0.00  0.00    -0.284 N 
ATOM     24  H   UNL     1       3.202   3.419   0.068  0.00  0.00    +0.155 HD
BRANCH  23  25
ATOM     25  C   UNL     1       1.155   3.170   0.002  0.00  0.00    +0.034 A 
ATOM     26  C   UNL     1       0.070   3.626  -0.736  0.00  0.00    +0.025 A 
ATOM     27  C   UNL     1      -1.113   2.914  -0.733  0.00  0.00    +0.030 A 
ATOM     28  C   UNL     1      -1.220   1.751   0.008  0.00  0.00    +0.106 A 
ATOM     29  C   UNL     1      -0.141   1.292   0.740  0.00  0.00    +0.030 A 
ATOM     30  C   UNL     1       1.046   1.999   0.741  0.00  0.00    +0.025 A 
BRANCH  28  31
ATOM     31  S   UNL     1      -2.734   0.850   0.015  0.00  0.00    +0.061 S 
ATOM     32  O   UNL     1      -2.751   0.093   1.217  0.00  0.00    -0.153 OA
ATOM     33  O   UNL     1      -3.760   1.775  -0.318  0.00  0.00    -0.153 OA
BRANCH  31  34
ATOM     34  N   UNL     1      -2.660  -0.241  -1.230  0.00  0.00    -0.177 NA
ATOM     35  C   UNL     1      -3.111  -0.000  -2.608  0.00  0.00    +0.109 C 
ATOM     36  C   UNL     1      -2.869  -1.300  -3.403  0.00  0.00    +0.018 C 
ATOM     37  C   UNL     1      -2.828  -2.382  -2.292  0.00  0.00    +0.018 C 
ATOM     38  C   UNL     1      -2.136  -1.616  -1.137  0.00  0.00    +0.109 C 
ENDBRANCH  31  34
ENDBRANCH  28  31
ENDBRANCH  23  25
ENDBRANCH  20  21
ENDBRANCH   4  20
TORSDOF 7
