REMARK  Name = ZINC22195979
REMARK  6 active torsions:
REMARK  status: ('A' for Active; 'I' for Inactive)
REMARK    1  A    between atoms: C_1  and  C_2
REMARK    2  A    between atoms: C_2  and  C_4
REMARK    3  A    between atoms: C_2  and  N_10
REMARK    4  A    between atoms: N_6  and  C_7
REMARK    5  A    between atoms: C_23  and  C_25
REMARK    6  A    between atoms: C_26  and  C_27
REMARK                            x       y       z     vdW  Elec       q    Type
REMARK                         _______ _______ _______ _____ _____    ______ ____
ROOT
ATOM      1  N   UNL     1      -3.278   5.178  -1.762  0.00  0.00    +0.389 N 
ATOM      2  C   UNL     1      -2.449   5.306  -0.555  0.00  0.00    -0.059 C 
ATOM      3  C   UNL     1      -1.055   5.801  -0.947  0.00  0.00    +0.088 C 
ATOM      4  N   UNL     1      -0.453   4.858  -1.898  0.00  0.00    -0.318 N 
ATOM      5  C   UNL     1      -1.281   4.730  -3.105  0.00  0.00    +0.088 C 
ATOM      6  C   UNL     1      -2.675   4.235  -2.713  0.00  0.00    -0.059 C 
ATOM      7  C   UNL     1       0.839   5.236  -2.221  0.00  0.00    +0.134 A 
ATOM      8  C   UNL     1       1.966   4.419  -1.909  0.00  0.00    +0.051 A 
ATOM      9  C   UNL     1       1.953   3.129  -1.241  0.00  0.00    -0.025 A 
ATOM     10  C   UNL     1       3.152   2.532  -1.049  0.00  0.00    -0.004 A 
ATOM     11  S   UNL     1       4.347   3.647  -1.743  0.00  0.00    -0.073 S 
ATOM     12  C   UNL     1       3.243   4.910  -2.288  0.00  0.00    +0.114 A 
ATOM     13  N   UNL     1       3.424   6.060  -2.901  0.00  0.00    -0.221 NA
ATOM     14  C   UNL     1       2.328   6.781  -3.167  0.00  0.00    +0.156 A 
ATOM     15  N   UNL     1       1.103   6.381  -2.840  0.00  0.00    -0.213 NA
ATOM     16  C   UNL     1       3.413   1.212  -0.392  0.00  0.00    +0.043 C 
ATOM     17  C   UNL     1       2.149   0.789   0.371  0.00  0.00    +0.005 C 
ATOM     18  C   UNL     1       0.938   0.968  -0.550  0.00  0.00    +0.005 C 
ATOM     19  C   UNL     1       0.667   2.456  -0.768  0.00  0.00    +0.037 C 
ATOM     20  H   UNL     1      -3.327   6.165  -2.246  0.00  0.00    -0.081 HD
ENDROOT
BRANCH   1  22
ATOM     21  C   UNL     1      -4.606   3.600  -0.442  0.00  0.00    -0.004 C 
ATOM     22  C   UNL     1      -4.649   4.777  -1.419  0.00  0.00    +0.016 C 
BRANCH  22  23
ATOM     23  C   UNL     1      -5.366   5.936  -0.777  0.00  0.00    +0.199 C 
ATOM     24  O   UNL     1      -4.737   6.894  -0.380  0.00  0.00    -0.278 OA
ATOM     25  N   UNL     1      -6.707   5.909  -0.645  0.00  0.00    -0.314 N 
ATOM     26  H   UNL     1      -7.278   5.041  -1.005  0.00  0.00    +0.149 HD
BRANCH  25  27
ATOM     27  C   UNL     1      -7.405   7.037  -0.021  0.00  0.00    +0.073 C 
ATOM     28  C   UNL     1      -8.509   6.714   0.988  0.00  0.00    +0.024 C 
ATOM     29  C   UNL     1      -8.872   7.255  -0.397  0.00  0.00    +0.024 C 
ENDBRANCH  25  27
ENDBRANCH  22  23
ENDBRANCH   1  22
BRANCH  14  30
ATOM     30  C   UNL     1       2.486   8.074  -3.852  0.00  0.00    +0.049 C 
ATOM     31  C   UNL     1       3.711   8.507  -4.196  0.00  0.00    +0.011 C 
BRANCH  31  32
ATOM     32  C   UNL     1       3.869   9.801  -4.882  0.00  0.00    -0.025 A 
ATOM     33  C   UNL     1       2.748  10.579  -5.182  0.00  0.00    +0.008 A 
ATOM     34  C   UNL     1       2.904  11.792  -5.819  0.00  0.00    +0.001 A 
ATOM     35  C   UNL     1       4.167  12.234  -6.172  0.00  0.00    +0.000 A 
ATOM     36  C   UNL     1       5.282  11.467  -5.883  0.00  0.00    +0.001 A 
ATOM     37  C   UNL     1       5.142  10.254  -5.241  0.00  0.00    +0.008 A 
ENDBRANCH  31  32
ENDBRANCH  14  30
TORSDOF 5
