REMARK  Name = ZINC39998036
REMARK  10 active torsions:
REMARK  status: ('A' for Active; 'I' for Inactive)
REMARK    1  A    between atoms: C_1  and  C_2
REMARK    2  A    between atoms: C_2  and  C_3
REMARK    3  A    between atoms: C_3  and  S_4
REMARK    4  A    between atoms: S_4  and  C_5
REMARK    5  A    between atoms: C_8  and  N_10
REMARK    6  A    between atoms: C_11  and  C_13
REMARK    7  A    between atoms: C_13  and  C_35
REMARK    8  A    between atoms: C_14  and  C_15
REMARK    9  A    between atoms: N_17  and  C_29
REMARK   10  A    between atoms: C_19  and  C_20
REMARK                            x       y       z     vdW  Elec       q    Type
REMARK                         _______ _______ _______ _____ _____    ______ ____
ROOT
ATOM      1  C   UNL     1       5.889  -4.596  10.050  0.00  0.00    +0.025 A 
ATOM      2  C   UNL     1       5.972  -5.976  10.135  0.00  0.00    +0.123 A 
ATOM      3  N   UNL     1       6.547  -6.282  11.311  0.00  0.00    -0.239 N 
ATOM      4  N   UNL     1       6.847  -5.109  12.009  0.00  0.00    -0.163 NA
ATOM      5  C   UNL     1       6.477  -4.071  11.291  0.00  0.00    +0.135 A 
ENDROOT
BRANCH   5   6
ATOM      6  C   UNL     1       6.621  -2.650  11.662  0.00  0.00    +0.157 A 
ATOM      7  C   UNL     1       6.517  -2.159  12.921  0.00  0.00    +0.060 A 
ATOM      8  C   UNL     1       6.729  -0.714  12.812  0.00  0.00    +0.021 A 
ATOM      9  C   UNL     1       6.748   0.339  13.728  0.00  0.00    +0.011 A 
ATOM     10  C   UNL     1       6.982   1.613  13.291  0.00  0.00    +0.001 A 
ATOM     11  C   UNL     1       7.199   1.865  11.944  0.00  0.00    +0.004 A 
ATOM     12  C   UNL     1       7.184   0.838  11.024  0.00  0.00    +0.047 A 
ATOM     13  C   UNL     1       6.950  -0.465  11.445  0.00  0.00    +0.136 A 
ATOM     14  O   UNL     1       6.882  -1.647  10.800  0.00  0.00    -0.453 OA
ENDBRANCH   5   6
BRANCH   3  15
ATOM     15  C   UNL     1       6.806  -7.580  11.768  0.00  0.00    +0.065 A 
ATOM     16  C   UNL     1       6.467  -8.675  10.983  0.00  0.00    +0.028 A 
ATOM     17  C   UNL     1       6.724  -9.954  11.436  0.00  0.00    +0.002 A 
ATOM     18  C   UNL     1       7.318 -10.146  12.671  0.00  0.00    +0.000 A 
ATOM     19  C   UNL     1       7.655  -9.058  13.455  0.00  0.00    +0.002 A 
ATOM     20  C   UNL     1       7.407  -7.776  13.005  0.00  0.00    +0.028 A 
ENDBRANCH   3  15
BRANCH   1  22
ATOM     21  C   UNL     1       5.143  -4.408   7.711  0.00  0.00    +0.119 C 
ATOM     22  C   UNL     1       5.333  -3.817   8.944  0.00  0.00    +0.036 C 
BRANCH  21  24
ATOM     23  N   UNL     1       4.268  -4.237   5.470  0.00  0.00    -0.180 NA
ATOM     24  C   UNL     1       4.449  -3.674   6.645  0.00  0.00    +0.290 C 
ATOM     25  O   UNL     1       3.997  -2.419   6.871  0.00  0.00    -0.264 OA
BRANCH  23  29
ATOM     26  C   UNL     1       2.423  -2.533   2.339  0.00  0.00    +0.160 A 
ATOM     27  N   UNL     1       2.538  -1.850   3.470  0.00  0.00    -0.133 NA
ATOM     28  N   UNL     1       3.107  -2.333   4.487  0.00  0.00    -0.120 NA
ATOM     29  C   UNL     1       3.626  -3.558   4.484  0.00  0.00    +0.219 A 
ATOM     30  S   UNL     1       3.232  -4.059   2.811  0.00  0.00    -0.020 S 
BRANCH  26  31
ATOM     31  S   UNL     1       1.678  -2.073   0.810  0.00  0.00    -0.097 S 
BRANCH  31  32
ATOM     32  C   UNL     1       1.078  -0.387   1.104  0.00  0.00    +0.076 C 
BRANCH  32  34
ATOM     33  C   UNL     1      -0.107   1.564   0.087  0.00  0.00    +0.004 C 
ATOM     34  C   UNL     1       0.400   0.141  -0.162  0.00  0.00    +0.008 C 
ENDBRANCH  32  34
ENDBRANCH  31  32
ENDBRANCH  26  31
ENDBRANCH  23  29
ENDBRANCH  21  24
BRANCH  21  35
ATOM     35  C   UNL     1       5.623  -5.736   7.472  0.00  0.00    +0.105 C 
ATOM     36  N   UNL     1       6.003  -6.789   7.282  0.00  0.00    -0.191 NA
ENDBRANCH  21  35
ENDBRANCH   1  22
TORSDOF 9
