REMARK  Name = ZINC01003086
REMARK  12 active torsions:
REMARK  status: ('A' for Active; 'I' for Inactive)
REMARK    1  A    between atoms: C_1  and  C_2
REMARK    2  A    between atoms: C_2  and  O_3
REMARK    3  A    between atoms: O_3  and  C_4
REMARK    4  A    between atoms: C_4  and  C_6
REMARK    5  A    between atoms: C_7  and  N_35
REMARK    6  A    between atoms: C_11  and  C_13
REMARK    7  A    between atoms: C_16  and  O_28
REMARK    8  A    between atoms: C_17  and  C_19
REMARK    9  A    between atoms: C_19  and  O_20
REMARK   10  A    between atoms: O_20  and  C_21
REMARK   11  A    between atoms: C_24  and  C_27
REMARK   12  A    between atoms: O_28  and  C_29
REMARK                            x       y       z     vdW  Elec       q    Type
REMARK                         _______ _______ _______ _____ _____    ______ ____
ROOT
ATOM      1  C   UNL     1      -0.775   1.581   3.566  0.00  0.00    +0.105 C 
ATOM      2  C   UNL     1      -0.287   1.149   4.758  0.00  0.00    +0.195 C 
ATOM      3  O   UNL     1      -0.826   1.550   5.919  0.00  0.00    -0.446 OA
ATOM      4  C   UNL     1      -1.553   2.683   5.966  0.00  0.00    +0.115 C 
ATOM      5  C   UNL     1      -2.122   3.197   4.860  0.00  0.00    +0.045 C 
ATOM      6  C   UNL     1      -1.946   2.522   3.521  0.00  0.00    +0.097 C 
ATOM      7  C   UNL     1      -2.897   4.372   4.914  0.00  0.00    +0.163 C 
ATOM      8  O   UNL     1      -3.383   4.813   3.892  0.00  0.00    -0.292 OA
ATOM      9  C   UNL     1      -3.133   5.091   6.215  0.00  0.00    +0.080 C 
ATOM     10  C   UNL     1      -3.066   4.076   7.361  0.00  0.00    +0.016 C 
ATOM     11  C   UNL     1      -1.711   3.368   7.303  0.00  0.00    +0.075 C 
ENDROOT
BRANCH   6  12
ATOM     12  C   UNL     1      -3.196   1.750   3.186  0.00  0.00    -0.034 A 
ATOM     13  C   UNL     1      -3.615   0.723   4.012  0.00  0.00    +0.008 A 
ATOM     14  C   UNL     1      -4.764   0.018   3.709  0.00  0.00    +0.046 A 
ATOM     15  C   UNL     1      -5.490   0.332   2.570  0.00  0.00    +0.126 A 
ATOM     16  C   UNL     1      -5.064   1.358   1.740  0.00  0.00    +0.032 A 
ATOM     17  C   UNL     1      -3.918   2.065   2.050  0.00  0.00    +0.015 A 
BRANCH  15  18
ATOM     18  O   UNL     1      -6.616  -0.366   2.267  0.00  0.00    -0.495 OA
ATOM     19  C   UNL     1      -6.995  -1.409   3.167  0.00  0.00    +0.277 C 
ENDBRANCH  15  18
BRANCH  16  20
ATOM     20  C   UNL     1      -5.850   1.702   0.501  0.00  0.00    +0.268 C 
BRANCH  20  21
ATOM     21  O   UNL     1      -5.215   2.785  -0.181  0.00  0.00    -0.487 OA
BRANCH  21  22
ATOM     22  C   UNL     1      -5.801   3.221  -1.327  0.00  0.00    +0.121 A 
ATOM     23  C   UNL     1      -6.961   2.616  -1.788  0.00  0.00    +0.046 A 
ATOM     24  C   UNL     1      -7.559   3.065  -2.950  0.00  0.00    +0.007 A 
ATOM     25  C   UNL     1      -6.995   4.109  -3.659  0.00  0.00    -0.050 A 
ATOM     26  C   UNL     1      -5.836   4.711  -3.205  0.00  0.00    +0.007 A 
ATOM     27  C   UNL     1      -5.238   4.269  -2.041  0.00  0.00    +0.046 A 
ATOM     28  C   UNL     1      -7.645   4.593  -4.930  0.00  0.00    +0.044 C 
ENDBRANCH  21  22
ENDBRANCH  20  21
ENDBRANCH  16  20
ENDBRANCH   6  12
BRANCH   2  29
ATOM     29  N   UNL     1       0.779   0.290   4.775  0.00  0.00    -0.329 N 
ATOM     30  H   UNL     1       1.236   0.069   3.948  0.00  0.00    +0.145 HD
ATOM     31  H   UNL     1       1.077  -0.096   5.613  0.00  0.00    +0.145 HD
ENDBRANCH   2  29
BRANCH   1  32
ATOM     32  C   UNL     1      -0.186   1.142   2.370  0.00  0.00    +0.341 C 
ATOM     33  O   UNL     1       0.577   1.872   1.763  0.00  0.00    -0.245 OA
BRANCH  32  34
ATOM     34  O   UNL     1      -0.466  -0.090   1.893  0.00  0.00    -0.462 OA
BRANCH  34  36
ATOM     35  C   UNL     1      -0.266  -1.889   0.291  0.00  0.00    +0.048 C 
ATOM     36  C   UNL     1       0.169  -0.472   0.671  0.00  0.00    +0.229 C 
ENDBRANCH  34  36
ENDBRANCH  32  34
ENDBRANCH   1  32
TORSDOF 9
