REMARK  Name = ZINC64893868
REMARK  4 active torsions:
REMARK  status: ('A' for Active; 'I' for Inactive)
REMARK    1  A    between atoms: C_1  and  N_2
REMARK    2  A    between atoms: C_5  and  C_7
REMARK    3  A    between atoms: N_9  and  C_10
REMARK    4  A    between atoms: N_22  and  C_23
REMARK                            x       y       z     vdW  Elec       q    Type
REMARK                         _______ _______ _______ _____ _____    ______ ____
ROOT
ATOM      1  C   UNL     1       0.040   1.158   0.640  0.00  0.00    +0.172 C 
ATOM      2  N   UNL     1       0.195  -0.276   0.380  0.00  0.00    -0.270 N 
ATOM      3  C   UNL     1      -0.016  -0.870  -0.807  0.00  0.00    +0.046 A 
ATOM      4  C   UNL     1       0.235  -2.192  -0.641  0.00  0.00    +0.023 A 
ATOM      5  C   UNL     1       0.601  -2.352   0.705  0.00  0.00    +0.152 A 
ATOM      6  N   UNL     1       0.559  -1.149   1.254  0.00  0.00    -0.166 NA
ATOM      7  C   UNL     1       0.126  -3.221  -1.734  0.00  0.00    +0.148 C 
ATOM      8  N   UNL     1      -0.546  -2.572  -2.876  0.00  0.00    -0.281 N 
ATOM      9  C   UNL     1      -0.127  -1.214  -3.253  0.00  0.00    +0.116 C 
ATOM     10  C   UNL     1      -0.452  -0.246  -2.108  0.00  0.00    +0.074 C 
ATOM     11  C   UNL     1      -1.521  -3.208  -3.556  0.00  0.00    +0.307 C 
ATOM     12  O   UNL     1      -2.001  -2.698  -4.550  0.00  0.00    -0.252 OA
ATOM     13  N   UNL     1      -1.963  -4.410  -3.134  0.00  0.00    -0.267 N 
ATOM     14  H   UNL     1      -1.563  -4.828  -2.355  0.00  0.00    +0.156 HD
ENDROOT
BRANCH  13  15
ATOM     15  C   UNL     1      -3.001  -5.055  -3.820  0.00  0.00    +0.070 A 
ATOM     16  C   UNL     1      -3.297  -4.696  -5.128  0.00  0.00    +0.027 A 
ATOM     17  C   UNL     1      -4.321  -5.334  -5.803  0.00  0.00    +0.017 A 
ATOM     18  C   UNL     1      -5.050  -6.329  -5.177  0.00  0.00    +0.021 A 
ATOM     19  C   UNL     1      -4.758  -6.689  -3.873  0.00  0.00    +0.055 A 
ATOM     20  C   UNL     1      -3.731  -6.059  -3.195  0.00  0.00    +0.146 A 
ATOM     21  F   UNL     1      -3.442  -6.414  -1.924  0.00  0.00    -0.204 F 
ATOM     22 BR   UNL     1      -6.450  -7.198  -6.105  0.00  0.00    -0.050 Br
ENDBRANCH  13  15
BRANCH   5  23
ATOM     23  C   UNL     1       0.966  -3.616   1.376  0.00  0.00    +0.269 C 
ATOM     24  O   UNL     1       0.969  -4.658   0.750  0.00  0.00    -0.268 OA
ATOM     25  N   UNL     1       1.297  -3.614   2.683  0.00  0.00    -0.280 N 
ATOM     26  H   UNL     1       1.370  -2.774   3.164  0.00  0.00    +0.155 HD
BRANCH  25  27
ATOM     27  C   UNL     1       1.535  -4.822   3.346  0.00  0.00    +0.034 A 
ATOM     28  C   UNL     1       1.148  -4.977   4.671  0.00  0.00    +0.023 A 
ATOM     29  C   UNL     1       1.384  -6.171   5.322  0.00  0.00    +0.002 A 
ATOM     30  C   UNL     1       2.006  -7.213   4.657  0.00  0.00    +0.000 A 
ATOM     31  C   UNL     1       2.393  -7.061   3.338  0.00  0.00    +0.002 A 
ATOM     32  C   UNL     1       2.154  -5.872   2.679  0.00  0.00    +0.023 A 
ENDBRANCH  25  27
ENDBRANCH   5  23
TORSDOF 3
