REMARK  Name = ZINC17157807
REMARK  7 active torsions:
REMARK  status: ('A' for Active; 'I' for Inactive)
REMARK    1  A    between atoms: C_1  and  C_2
REMARK    2  A    between atoms: C_5  and  C_35
REMARK    3  A    between atoms: N_8  and  S_10
REMARK    4  A    between atoms: S_10  and  C_13
REMARK    5  A    between atoms: C_16  and  C_19
REMARK    6  A    between atoms: N_21  and  N_22
REMARK    7  A    between atoms: C_23  and  C_25
REMARK                            x       y       z     vdW  Elec       q    Type
REMARK                         _______ _______ _______ _____ _____    ______ ____
ROOT
ATOM      1  C   UNL     1      -7.644   1.501   0.083  0.00  0.00    +0.260 C 
ATOM      2  O   UNL     1      -8.149   1.172   1.139  0.00  0.00    -0.269 OA
ATOM      3  N   UNL     1      -8.227   1.150  -1.081  0.00  0.00    -0.230 N 
ATOM      4  H   UNL     1      -7.824   1.412  -1.923  0.00  0.00    +0.173 HD
ENDROOT
BRANCH   1   8
ATOM      5  C   UNL     1      -4.043   3.754   0.061  0.00  0.00    +0.106 A 
ATOM      6  C   UNL     1      -4.642   3.400  -1.135  0.00  0.00    +0.029 A 
ATOM      7  C   UNL     1      -5.809   2.664  -1.135  0.00  0.00    +0.015 A 
ATOM      8  C   UNL     1      -6.391   2.285   0.075  0.00  0.00    +0.038 A 
ATOM      9  C   UNL     1      -5.785   2.651   1.279  0.00  0.00    +0.015 A 
ATOM     10  C   UNL     1      -4.616   3.382   1.264  0.00  0.00    +0.029 A 
BRANCH   5  11
ATOM     11  S   UNL     1      -2.550   4.688   0.052  0.00  0.00    +0.061 S 
ATOM     12  O   UNL     1      -2.485   5.364   1.300  0.00  0.00    -0.153 OA
ATOM     13  O   UNL     1      -2.509   5.377  -1.190  0.00  0.00    -0.153 OA
BRANCH  11  19
ATOM     14  C   UNL     1      -2.198   1.093  -1.204  0.00  0.00    +0.009 C 
ATOM     15  C   UNL     1      -0.752   1.593  -1.232  0.00  0.00    +0.002 C 
ATOM     16  C   UNL     1      -0.013   1.086   0.008  0.00  0.00    +0.009 C 
ATOM     17  C   UNL     1      -0.729   1.579   1.268  0.00  0.00    +0.002 C 
ATOM     18  C   UNL     1      -0.717   3.111   1.290  0.00  0.00    +0.112 C 
ATOM     19  N   UNL     1      -1.296   3.606   0.034  0.00  0.00    -0.176 NA
ATOM     20  C   UNL     1      -0.741   3.124  -1.238  0.00  0.00    +0.112 C 
ATOM     21  C   UNL     1      -0.008   1.045   2.507  0.00  0.00    +0.009 C 
ENDBRANCH  11  19
ENDBRANCH   5  11
ENDBRANCH   1   8
BRANCH   3  22
ATOM     22  N   UNL     1      -9.414   0.406  -1.073  0.00  0.00    -0.234 N 
ATOM     23  C   UNL     1      -9.997   0.056  -2.237  0.00  0.00    +0.235 C 
ATOM     24  O   UNL     1      -9.493   0.384  -3.291  0.00  0.00    -0.274 OA
ATOM     25  H   UNL     1      -9.817   0.144  -0.231  0.00  0.00    +0.173 HD
BRANCH  23  26
ATOM     26  C   UNL     1     -11.274  -0.744  -2.229  0.00  0.00    +0.049 C 
ATOM     27  C   UNL     1     -11.036  -2.078  -1.518  0.00  0.00    +0.019 C 
ATOM     28  C   UNL     1     -12.333  -2.890  -1.510  0.00  0.00    -0.009 C 
ATOM     29  C   UNL     1     -12.779  -3.152  -2.950  0.00  0.00    +0.007 C 
ATOM     30  C   UNL     1     -13.017  -1.818  -3.661  0.00  0.00    -0.009 C 
ATOM     31  C   UNL     1     -11.720  -1.006  -3.669  0.00  0.00    +0.019 C 
ATOM     32  C   UNL     1     -14.105  -1.034  -2.925  0.00  0.00    +0.007 C 
ATOM     33  C   UNL     1     -13.659  -0.772  -1.485  0.00  0.00    -0.009 C 
ATOM     34  C   UNL     1     -13.421  -2.106  -0.774  0.00  0.00    +0.007 C 
ATOM     35  C   UNL     1     -12.362   0.040  -1.493  0.00  0.00    +0.019 C 
ENDBRANCH  23  26
ENDBRANCH   3  22
TORSDOF 5
