REMARK  Name = ZINC13028199
REMARK  6 active torsions:
REMARK  status: ('A' for Active; 'I' for Inactive)
REMARK    1  A    between atoms: C_6  and  C_7
REMARK    2  A    between atoms: N_9  and  N_10
REMARK    3  A    between atoms: C_11  and  C_13
REMARK    4  A    between atoms: C_13  and  O_14
REMARK    5  A    between atoms: O_14  and  C_15
REMARK    6  A    between atoms: C_15  and  C_17
REMARK                            x       y       z     vdW  Elec       q    Type
REMARK                         _______ _______ _______ _____ _____    ______ ____
ROOT
ATOM      1  C   UNL     1       4.832   4.587   1.724  0.00  0.00    +0.329 C 
ENDROOT
BRANCH   1   3
ATOM      2  N   UNL     1       6.368   6.155   2.865  0.00  0.00    -0.231 N 
ATOM      3  C   UNL     1       5.182   5.513   2.859  0.00  0.00    +0.267 C 
ATOM      4  O   UNL     1       4.397   5.682   3.768  0.00  0.00    -0.271 OA
ATOM      5  H   UNL     1       7.079   6.002   2.040  0.00  0.00    +0.173 HD
BRANCH   2   8
ATOM      6  C   UNL     1       7.878   7.657   3.926  0.00  0.00    +0.260 C 
ATOM      7  O   UNL     1       8.665   7.489   3.014  0.00  0.00    -0.269 OA
ATOM      8  N   UNL     1       6.693   7.016   3.920  0.00  0.00    -0.230 N 
ATOM      9  H   UNL     1       5.981   7.169   4.745  0.00  0.00    +0.173 HD
BRANCH   6  15
ATOM     10  C   UNL     1       7.318   8.767   6.085  0.00  0.00    +0.014 A 
ATOM     11  C   UNL     1       7.647   9.612   7.124  0.00  0.00    +0.016 A 
ATOM     12  C   UNL     1       8.865  10.270   7.126  0.00  0.00    +0.018 A 
ATOM     13  C   UNL     1       9.764  10.079   6.090  0.00  0.00    +0.016 A 
ATOM     14  C   UNL     1       9.449   9.232   5.048  0.00  0.00    +0.014 A 
ATOM     15  C   UNL     1       8.222   8.566   5.040  0.00  0.00    +0.038 A 
ATOM     16 BR   UNL     1       9.305  11.432   8.552  0.00  0.00    -0.050 Br
ENDBRANCH   6  15
ENDBRANCH   2   8
ENDBRANCH   1   3
BRANCH   1  17
ATOM     17  O   UNL     1       3.513   4.023   1.948  0.00  0.00    -0.455 OA
BRANCH  17  18
ATOM     18  C   UNL     1       3.049   3.170   1.021  0.00  0.00    +0.311 C 
ATOM     19  O   UNL     1       3.722   2.904   0.054  0.00  0.00    -0.251 OA
BRANCH  18  20
ATOM     20  C   UNL     1       1.680   2.542   1.187  0.00  0.00    +0.098 C 
ATOM     21  C   UNL     1       0.641   3.654   1.278  0.00  0.00    +0.020 C 
ATOM     22  C   UNL     1      -0.781   3.096   1.277  0.00  0.00    +0.016 C 
ATOM     23  C   UNL     1      -1.513   3.616   0.031  0.00  0.00    +0.006 C 
ATOM     24  C   UNL     1      -0.804   3.119  -1.228  0.00  0.00    +0.001 C 
ATOM     25  C   UNL     1      -0.740   1.592  -1.248  0.00  0.00    +0.006 C 
ATOM     26  C   UNL     1      -0.013   1.088   0.008  0.00  0.00    +0.016 C 
ATOM     27  C   UNL     1       1.416   1.627  -0.003  0.00  0.00    +0.020 C 
ATOM     28  C   UNL     1      -0.767   1.579   1.230  0.00  0.00    +0.068 C 
ATOM     29  S   UNL     1      -0.086   0.867   2.769  0.00  0.00    -0.142 S 
ATOM     30  C   UNL     1      -1.595   0.493   3.747  0.00  0.00    +0.081 C 
ATOM     31  C   UNL     1      -2.601  -0.096   2.725  0.00  0.00    +0.081 C 
ATOM     32  S   UNL     1      -2.480   0.932   1.216  0.00  0.00    -0.142 S 
ENDBRANCH  18  20
ENDBRANCH  17  18
ENDBRANCH   1  17
TORSDOF 6
