REMARK  Name = ZINC58949384
REMARK  9 active torsions:
REMARK  status: ('A' for Active; 'I' for Inactive)
REMARK    1  A    between atoms: C_1  and  C_2
REMARK    2  A    between atoms: C_2  and  O_3
REMARK    3  A    between atoms: O_3  and  C_4
REMARK    4  A    between atoms: C_4  and  C_6
REMARK    5  A    between atoms: C_7  and  N_23
REMARK    6  A    between atoms: C_9  and  C_22
REMARK    7  A    between atoms: C_10  and  C_19
REMARK    8  A    between atoms: C_11  and  C_13
REMARK    9  A    between atoms: C_16  and  C_18
REMARK                            x       y       z     vdW  Elec       q    Type
REMARK                         _______ _______ _______ _____ _____    ______ ____
ROOT
ATOM      1  C   UNL     1      -2.787  -2.393   0.011  0.00  0.00    +0.106 C 
ATOM      2  C   UNL     1      -2.940  -3.740  -0.087  0.00  0.00    +0.195 C 
ATOM      3  O   UNL     1      -4.158  -4.309  -0.077  0.00  0.00    -0.446 OA
ATOM      4  C   UNL     1      -5.246  -3.568  -0.343  0.00  0.00    +0.113 C 
ATOM      5  C   UNL     1      -5.230  -2.233  -0.262  0.00  0.00    +0.064 C 
ATOM      6  C   UNL     1      -3.983  -1.491   0.141  0.00  0.00    +0.106 C 
ATOM      7  C   UNL     1      -6.522  -4.261  -0.745  0.00  0.00    +0.087 C 
ENDROOT
BRANCH   6   8
ATOM      8  C   UNL     1      -4.109  -1.030   1.570  0.00  0.00    +0.002 A 
ATOM      9  C   UNL     1      -4.090   0.232   2.065  0.00  0.00    +0.012 A 
ATOM     10  C   UNL     1      -4.225   0.420   3.428  0.00  0.00    +0.011 A 
ATOM     11  C   UNL     1      -4.373  -0.663   4.229  0.00  0.00    -0.013 A 
ATOM     12  S   UNL     1      -4.331  -2.003   3.050  0.00  0.00    -0.097 S 
ATOM     13  C   UNL     1      -4.537  -0.721   5.726  0.00  0.00    +0.051 C 
ENDBRANCH   6   8
BRANCH   5  14
ATOM     14  C   UNL     1      -6.447  -1.481  -0.564  0.00  0.00    +0.242 C 
ATOM     15  O   UNL     1      -7.462  -2.071  -0.886  0.00  0.00    -0.271 OA
ATOM     16  N   UNL     1      -6.445  -0.136  -0.486  0.00  0.00    -0.325 N 
ATOM     17  H   UNL     1      -5.637   0.334  -0.230  0.00  0.00    +0.145 HD
ATOM     18  H   UNL     1      -7.253   0.363  -0.687  0.00  0.00    +0.145 HD
ENDBRANCH   5  14
BRANCH   2  19
ATOM     19  N   UNL     1      -1.830  -4.534  -0.198  0.00  0.00    -0.329 N 
ATOM     20  H   UNL     1      -0.945  -4.143  -0.130  0.00  0.00    +0.145 HD
ATOM     21  H   UNL     1      -1.929  -5.488  -0.345  0.00  0.00    +0.145 HD
ENDBRANCH   2  19
BRANCH   1  22
ATOM     22  C   UNL     1      -1.498  -1.839  -0.004  0.00  0.00    +0.341 C 
ATOM     23  O   UNL     1      -1.065  -1.329  -1.022  0.00  0.00    -0.245 OA
BRANCH  22  24
ATOM     24  O   UNL     1      -0.737  -1.871   1.112  0.00  0.00    -0.462 OA
BRANCH  24  26
ATOM     25  C   UNL     1       1.273  -1.418   2.376  0.00  0.00    +0.048 C 
ATOM     26  C   UNL     1       0.565  -1.288   1.025  0.00  0.00    +0.229 C 
ENDBRANCH  24  26
ENDBRANCH  22  24
ENDBRANCH   1  22
TORSDOF 6
