REMARK  Name = ZINC39657161
REMARK  8 active torsions:
REMARK  status: ('A' for Active; 'I' for Inactive)
REMARK    1  A    between atoms: C_1  and  C_2
REMARK    2  A    between atoms: C_2  and  O_3
REMARK    3  A    between atoms: O_3  and  C_4
REMARK    4  A    between atoms: C_8  and  C_10
REMARK    5  A    between atoms: C_14  and  C_23
REMARK    6  A    between atoms: N_25  and  C_26
REMARK    7  A    between atoms: C_26  and  C_28
REMARK    8  A    between atoms: C_26  and  C_29
REMARK                            x       y       z     vdW  Elec       q    Type
REMARK                         _______ _______ _______ _____ _____    ______ ____
ROOT
ATOM      1  C   UNL     1       2.211  -4.263  -3.807  0.00  0.00    +0.247 C 
ATOM      2  O   UNL     1       2.585  -3.525  -4.698  0.00  0.00    -0.270 OA
ATOM      3  N   UNL     1       2.401  -5.593  -3.910  0.00  0.00    -0.296 N 
ATOM      4  C   UNL     1       1.907  -6.654  -3.001  0.00  0.00    +0.121 C 
ATOM      5  C   UNL     1       1.492  -7.810  -3.940  0.00  0.00    +0.100 C 
ATOM      6  C   UNL     1       2.315  -7.589  -5.220  0.00  0.00    -0.004 C 
ATOM      7  C   UNL     1       3.148  -6.326  -4.961  0.00  0.00    +0.115 C 
ATOM      8  C   UNL     1       1.388  -7.367  -6.412  0.00  0.00    -0.010 C 
ATOM      9  C   UNL     1       2.228  -7.207  -7.683  0.00  0.00    -0.082 C 
ATOM     10  N   UNL     1       3.042  -8.412  -7.888  0.00  0.00    +0.379 N 
ATOM     11  C   UNL     1       3.994  -8.566  -6.782  0.00  0.00    -0.082 C 
ATOM     12  C   UNL     1       3.230  -8.784  -5.473  0.00  0.00    -0.010 C 
ATOM     13  H   UNL     1       2.440  -9.220  -7.927  0.00  0.00    -0.086 HD
ATOM     14  H   UNL     1       3.547  -8.330  -8.757  0.00  0.00    -0.086 HD
ENDROOT
BRANCH   1  19
ATOM     15  C   UNL     1       0.944  -3.868  -0.290  0.00  0.00    +0.121 A 
ATOM     16  C   UNL     1       0.296  -2.643  -0.375  0.00  0.00    +0.046 A 
ATOM     17  C   UNL     1       0.272  -1.949  -1.570  0.00  0.00    +0.004 A 
ATOM     18  C   UNL     1       0.892  -2.470  -2.688  0.00  0.00    +0.013 A 
ATOM     19  C   UNL     1       1.546  -3.701  -2.612  0.00  0.00    +0.040 A 
ATOM     20  C   UNL     1       1.574  -4.397  -1.403  0.00  0.00    +0.058 A 
BRANCH  15  21
ATOM     21  O   UNL     1       0.964  -4.545   0.888  0.00  0.00    -0.492 OA
BRANCH  21  23
ATOM     22  C   UNL     1       0.423  -4.843   3.225  0.00  0.00    +0.048 C 
ATOM     23  C   UNL     1       0.294  -3.941   1.996  0.00  0.00    +0.225 C 
ENDBRANCH  21  23
ENDBRANCH  15  21
ENDBRANCH   1  19
BRANCH   5  24
ATOM     24  C   UNL     1       0.018  -7.737  -4.241  0.00  0.00    +0.219 C 
ATOM     25  O   UNL     1      -0.528  -6.659  -4.346  0.00  0.00    -0.275 OA
ATOM     26  N   UNL     1      -0.695  -8.871  -4.395  0.00  0.00    -0.308 N 
ATOM     27  H   UNL     1      -0.259  -9.733  -4.312  0.00  0.00    +0.149 HD
BRANCH  26  28
ATOM     28  C   UNL     1      -2.129  -8.801  -4.688  0.00  0.00    +0.100 C 
ATOM     29  C   UNL     1      -2.910  -8.661  -3.381  0.00  0.00    +0.033 C 
BRANCH  28  30
ATOM     30  C   UNL     1      -2.558 -10.059  -5.398  0.00  0.00    -0.027 A 
ATOM     31  C   UNL     1      -2.055 -11.283  -5.000  0.00  0.00    +0.006 A 
ATOM     32  C   UNL     1      -2.449 -12.437  -5.650  0.00  0.00    +0.015 A 
ATOM     33  C   UNL     1      -3.347 -12.367  -6.700  0.00  0.00    +0.018 A 
ATOM     34  C   UNL     1      -3.851 -11.142  -7.098  0.00  0.00    +0.015 A 
ATOM     35  C   UNL     1      -3.460  -9.989  -6.444  0.00  0.00    +0.006 A 
ATOM     36 BR   UNL     1      -3.887 -13.946  -7.590  0.00  0.00    -0.050 Br
ENDBRANCH  28  30
ENDBRANCH  26  28
ENDBRANCH   5  24
TORSDOF 6
