REMARK  Name = ZINC59092630
REMARK  16 active torsions:
REMARK  status: ('A' for Active; 'I' for Inactive)
REMARK    1  A    between atoms: C_1  and  C_2
REMARK    2  A    between atoms: C_2  and  C_34
REMARK    3  A    between atoms: C_4  and  N_10
REMARK    4  A    between atoms: C_6  and  C_8
REMARK    5  A    between atoms: C_6  and  C_9
REMARK    6  A    between atoms: N_10  and  C_11
REMARK    7  A    between atoms: N_10  and  C_21
REMARK    8  A    between atoms: C_11  and  C_12
REMARK    9  A    between atoms: C_15  and  N_18
REMARK   10  A    between atoms: N_18  and  C_19
REMARK   11  A    between atoms: N_18  and  C_20
REMARK   12  A    between atoms: C_21  and  N_23
REMARK   13  A    between atoms: N_23  and  C_24
REMARK   14  A    between atoms: C_29  and  C_30
REMARK   15  A    between atoms: C_30  and  O_32
REMARK   16  A    between atoms: O_32  and  C_33
REMARK                            x       y       z     vdW  Elec       q    Type
REMARK                         _______ _______ _______ _____ _____    ______ ____
ROOT
ATOM      1  N   UNL     1      -3.033  -2.271   0.053  0.00  0.00    -0.305 N 
ENDROOT
BRANCH   1   5
ATOM      2  C   UNL     1       0.286   1.333   0.361  0.00  0.00    -0.010 C 
ATOM      3  C   UNL     1       0.142  -0.197   0.189  0.00  0.00    -0.072 C 
ATOM      4  C   UNL     1      -1.347  -0.502   0.061  0.00  0.00    +0.009 C 
ATOM      5  C   UNL     1      -1.592  -2.008   0.147  0.00  0.00    +0.073 C 
ATOM      6  C   UNL     1      -1.078  -2.498   1.501  0.00  0.00    +0.009 C 
ATOM      7  C   UNL     1       0.413  -2.208   1.640  0.00  0.00    -0.072 C 
ATOM      8  N   UNL     1       0.762  -0.831   1.339  0.00  0.00    +0.386 N 
ATOM      9  C   UNL     1       1.213  -3.188   0.775  0.00  0.00    -0.010 C 
ATOM     10  C   UNL     1       0.802  -2.482   3.111  0.00  0.00    -0.010 C 
ATOM     11  C   UNL     1       0.862  -0.573  -1.110  0.00  0.00    -0.010 C 
ATOM     12  H   UNL     1       1.779  -0.775   1.227  0.00  0.00    -0.084 HD
ATOM     13  H   UNL     1       0.559  -0.262   2.167  0.00  0.00    -0.084 HD
ENDBRANCH   1   5
BRANCH   1  14
ATOM     14  C   UNL     1      -3.864  -1.826   1.016  0.00  0.00    +0.138 C 
ATOM     15  S   UNL     1      -5.524  -2.240   0.973  0.00  0.00    -0.018 S 
BRANCH  14  16
ATOM     16  N   UNL     1      -3.387  -1.056   2.014  0.00  0.00    -0.296 N 
ATOM     17  H   UNL     1      -2.460  -0.771   2.006  0.00  0.00    +0.154 HD
BRANCH  16  18
ATOM     18  C   UNL     1      -4.224  -0.670   3.057  0.00  0.00    +0.047 A 
ATOM     19  C   UNL     1      -4.694   0.635   3.128  0.00  0.00    +0.024 A 
ATOM     20  C   UNL     1      -5.524   1.016   4.162  0.00  0.00    +0.002 A 
ATOM     21  C   UNL     1      -5.897   0.102   5.136  0.00  0.00    +0.001 A 
ATOM     22  C   UNL     1      -5.441  -1.197   5.082  0.00  0.00    +0.017 A 
ATOM     23  C   UNL     1      -4.604  -1.599   4.038  0.00  0.00    +0.080 A 
BRANCH  23  24
ATOM     24  C   UNL     1      -4.117  -2.988   3.971  0.00  0.00    +0.341 C 
ATOM     25  O   UNL     1      -3.307  -3.308   3.123  0.00  0.00    -0.245 OA
BRANCH  24  26
ATOM     26  O   UNL     1      -4.570  -3.904   4.850  0.00  0.00    -0.464 OA
ATOM     27  C   UNL     1      -4.056  -5.231   4.726  0.00  0.00    +0.280 C 
ENDBRANCH  24  26
ENDBRANCH  23  24
ENDBRANCH  16  18
ENDBRANCH  14  16
ENDBRANCH   1  14
BRANCH   1  28
ATOM     28  C   UNL     1      -3.569  -3.016  -1.089  0.00  0.00    +0.142 C 
BRANCH  28  29
ATOM     29  C   UNL     1      -3.578  -4.488  -0.769  0.00  0.00    -0.030 A 
ATOM     30  C   UNL     1      -2.474  -5.266  -1.067  0.00  0.00    +0.007 A 
ATOM     31  C   UNL     1      -2.478  -6.616  -0.775  0.00  0.00    +0.023 A 
ATOM     32  C   UNL     1      -3.594  -7.192  -0.180  0.00  0.00    +0.029 A 
ATOM     33  C   UNL     1      -4.701  -6.408   0.118  0.00  0.00    +0.023 A 
ATOM     34  C   UNL     1      -4.687  -5.058  -0.172  0.00  0.00    +0.007 A 
BRANCH  32  35
ATOM     35  N   UNL     1      -3.602  -8.557   0.116  0.00  0.00    -0.336 N 
ATOM     36  C   UNL     1      -2.433  -9.382  -0.200  0.00  0.00    +0.129 C 
ATOM     37  C   UNL     1      -4.779  -9.163   0.743  0.00  0.00    +0.129 C 
ENDBRANCH  32  35
ENDBRANCH  28  29
ENDBRANCH   1  28
TORSDOF 9
