REMARK  Name = ZINC09428054
REMARK  5 active torsions:
REMARK  status: ('A' for Active; 'I' for Inactive)
REMARK    1  A    between atoms: C_4  and  N_30
REMARK    2  A    between atoms: C_6  and  C_7
REMARK    3  A    between atoms: N_9  and  C_10
REMARK    4  A    between atoms: C_11  and  C_19
REMARK    5  A    between atoms: N_21  and  C_22
REMARK                            x       y       z     vdW  Elec       q    Type
REMARK                         _______ _______ _______ _____ _____    ______ ____
ROOT
ATOM      1  C   UNL     1      -1.363   5.325  -1.991  0.00  0.00    +0.085 A 
ATOM      2  C   UNL     1      -1.227   3.967  -2.245  0.00  0.00    +0.069 A 
ATOM      3  C   UNL     1      -0.928   3.100  -1.118  0.00  0.00    -0.023 A 
ATOM      4  C   UNL     1      -0.813   3.724   0.074  0.00  0.00    -0.004 A 
ATOM      5  S   UNL     1      -1.096   5.435  -0.283  0.00  0.00    -0.077 S 
ATOM      6  C   UNL     1      -0.514   3.094   1.399  0.00  0.00    +0.043 C 
ATOM      7  C   UNL     1      -0.726   1.578   1.271  0.00  0.00    +0.005 C 
ATOM      8  C   UNL     1      -0.013   1.086   0.008  0.00  0.00    +0.005 C 
ATOM      9  C   UNL     1      -0.749   1.591  -1.234  0.00  0.00    +0.037 C 
ENDROOT
BRANCH   1  12
ATOM     10  C   UNL     1      -1.738   7.616  -2.451  0.00  0.00    +0.249 C 
ATOM     11  O   UNL     1      -1.577   7.869  -1.273  0.00  0.00    -0.270 OA
ATOM     12  N   UNL     1      -1.644   6.344  -2.886  0.00  0.00    -0.275 N 
ATOM     13  H   UNL     1      -1.772   6.142  -3.826  0.00  0.00    +0.156 HD
BRANCH  10  19
ATOM     14  C   UNL     1      -2.218   8.416  -4.760  0.00  0.00    +0.014 A 
ATOM     15  C   UNL     1      -2.503   9.435  -5.646  0.00  0.00    +0.023 A 
ATOM     16  C   UNL     1      -2.600  10.741  -5.196  0.00  0.00    +0.071 A 
ATOM     17  C   UNL     1      -2.416  11.032  -3.854  0.00  0.00    +0.145 A 
ATOM     18  C   UNL     1      -2.137  10.022  -2.958  0.00  0.00    +0.047 A 
ATOM     19  C   UNL     1      -2.038   8.703  -3.406  0.00  0.00    +0.039 A 
ATOM     20 CL   UNL     1      -2.952  12.018  -6.317  0.00  0.00    -0.081 Cl
BRANCH  17  21
ATOM     21  N   UNL     1      -2.522  12.431  -3.380  0.00  0.00    +0.058 N 
ATOM     22  O   UNL     1      -2.361  12.688  -2.201  0.00  0.00    -0.126 OA
ATOM     23  O   UNL     1      -2.769  13.324  -4.171  0.00  0.00    -0.126 OA
ENDBRANCH  17  21
ENDBRANCH  10  19
ENDBRANCH   1  12
BRANCH   2  24
ATOM     24  C   UNL     1      -1.381   3.428  -3.600  0.00  0.00    +0.247 C 
ATOM     25  O   UNL     1      -2.476   3.069  -3.992  0.00  0.00    -0.270 OA
ATOM     26  N   UNL     1      -0.309   3.329  -4.411  0.00  0.00    -0.307 N 
ATOM     27  H   UNL     1       0.564   3.615  -4.099  0.00  0.00    +0.149 HD
BRANCH  26  28
ATOM     28  C   UNL     1      -0.462   2.790  -5.765  0.00  0.00    +0.096 C 
ATOM     29  C   UNL     1      -0.907   3.914  -6.715  0.00  0.00    +0.046 C 
ATOM     30  C   UNL     1      -0.759   3.402  -8.175  0.00  0.00    +0.168 C 
ATOM     31  S   UNL     1       0.841   2.497  -8.055  0.00  0.00    -0.029 S 
ATOM     32  O   UNL     1       1.899   3.379  -8.407  0.00  0.00    -0.174 OA
ATOM     33  O   UNL     1       0.719   1.249  -8.723  0.00  0.00    -0.174 OA
ATOM     34  C   UNL     1       0.888   2.202  -6.240  0.00  0.00    +0.188 C 
ENDBRANCH  26  28
ENDBRANCH   2  24
TORSDOF 5
