REMARK  Name = ZINC39883116
REMARK  8 active torsions:
REMARK  status: ('A' for Active; 'I' for Inactive)
REMARK    1  A    between atoms: C_1  and  C_2
REMARK    2  A    between atoms: C_9  and  N_22
REMARK    3  A    between atoms: C_10  and  C_11
REMARK    4  A    between atoms: N_13  and  C_14
REMARK    5  A    between atoms: C_23  and  C_25
REMARK    6  A    between atoms: C_25  and  C_26
REMARK    7  A    between atoms: C_32  and  O_35
REMARK    8  A    between atoms: O_35  and  C_36
REMARK                            x       y       z     vdW  Elec       q    Type
REMARK                         _______ _______ _______ _____ _____    ______ ____
ROOT
ATOM      1  C   UNL     1      -0.019   1.526   0.010  0.00  0.00    +0.008 C 
ATOM      2  C   UNL     1       0.002  -0.004   0.002  0.00  0.00    -0.009 C 
ATOM      3  C   UNL     1      -1.434  -0.537   0.019  0.00  0.00    +0.008 C 
ATOM      4  C   UNL     1      -1.433  -2.045  -0.237  0.00  0.00    +0.037 C 
ATOM      5  C   UNL     1      -0.464  -2.704   0.734  0.00  0.00    -0.023 A 
ATOM      6  C   UNL     1       0.485  -1.986   1.374  0.00  0.00    -0.004 A 
ATOM      7  S   UNL     1       1.343  -3.167   2.373  0.00  0.00    -0.077 S 
ATOM      8  C   UNL     1       0.492  -4.557   1.968  0.00  0.00    +0.084 A 
ATOM      9  C   UNL     1      -0.459  -4.119   1.061  0.00  0.00    +0.069 A 
ATOM     10  C   UNL     1       0.739  -0.515   1.248  0.00  0.00    +0.046 C 
ENDROOT
BRANCH   9  11
ATOM     11  C   UNL     1      -1.421  -5.045   0.456  0.00  0.00    +0.247 C 
ATOM     12  O   UNL     1      -1.149  -5.611  -0.587  0.00  0.00    -0.270 OA
ATOM     13  N   UNL     1      -2.608  -5.271   1.055  0.00  0.00    -0.307 N 
ATOM     14  H   UNL     1      -2.825  -4.821   1.886  0.00  0.00    +0.149 HD
BRANCH  13  15
ATOM     15  C   UNL     1      -3.569  -6.197   0.450  0.00  0.00    +0.096 C 
ATOM     16  C   UNL     1      -3.247  -7.632   0.899  0.00  0.00    +0.046 C 
ATOM     17  C   UNL     1      -4.447  -8.542   0.509  0.00  0.00    +0.168 C 
ATOM     18  S   UNL     1      -5.859  -7.439   0.938  0.00  0.00    -0.029 S 
ATOM     19  O   UNL     1      -6.269  -7.711   2.272  0.00  0.00    -0.174 OA
ATOM     20  O   UNL     1      -6.817  -7.485  -0.111  0.00  0.00    -0.174 OA
ATOM     21  C   UNL     1      -5.001  -5.814   0.897  0.00  0.00    +0.188 C 
ENDBRANCH  13  15
ENDBRANCH   9  11
BRANCH   8  22
ATOM     22  N   UNL     1       0.696  -5.847   2.434  0.00  0.00    -0.279 N 
ATOM     23  C   UNL     1       1.677  -6.096   3.324  0.00  0.00    +0.222 C 
ATOM     24  O   UNL     1       2.383  -5.191   3.716  0.00  0.00    -0.275 OA
ATOM     25  H   UNL     1       0.131  -6.571   2.120  0.00  0.00    +0.155 HD
BRANCH  23  26
ATOM     26  C   UNL     1       1.898  -7.498   3.830  0.00  0.00    +0.135 C 
BRANCH  26  27
ATOM     27  C   UNL     1       3.047  -7.504   4.806  0.00  0.00    +0.007 A 
ATOM     28  C   UNL     1       4.331  -7.776   4.536  0.00  0.00    +0.200 A 
ATOM     29  O   UNL     1       5.069  -7.685   5.655  0.00  0.00    -0.463 OA
ATOM     30  C   UNL     1       4.301  -7.347   6.712  0.00  0.00    +0.135 A 
ATOM     31  C   UNL     1       2.985  -7.207   6.242  0.00  0.00    +0.027 A 
ATOM     32  C   UNL     1       1.961  -6.854   7.120  0.00  0.00    +0.057 A 
ATOM     33  C   UNL     1       2.250  -6.639   8.454  0.00  0.00    +0.121 A 
ATOM     34  C   UNL     1       3.556  -6.774   8.917  0.00  0.00    +0.049 A 
ATOM     35  C   UNL     1       4.572  -7.132   8.057  0.00  0.00    +0.050 A 
BRANCH  33  36
ATOM     36  O   UNL     1       1.257  -6.294   9.316  0.00  0.00    -0.495 OA
ATOM     37  C   UNL     1       1.626  -6.087  10.681  0.00  0.00    +0.277 C 
ENDBRANCH  33  36
ENDBRANCH  26  27
ENDBRANCH  23  26
ENDBRANCH   8  22
TORSDOF 6
