REMARK  Name = ZINC28526626
REMARK  8 active torsions:
REMARK  status: ('A' for Active; 'I' for Inactive)
REMARK    1  A    between atoms: C_1  and  C_2
REMARK    2  A    between atoms: C_5  and  C_8
REMARK    3  A    between atoms: N_10  and  C_11
REMARK    4  A    between atoms: C_16  and  N_17
REMARK    5  A    between atoms: C_18  and  O_20
REMARK    6  A    between atoms: O_20  and  C_21
REMARK    7  A    between atoms: C_21  and  C_22
REMARK    8  A    between atoms: N_25  and  C_28
REMARK                            x       y       z     vdW  Elec       q    Type
REMARK                         _______ _______ _______ _____ _____    ______ ____
ROOT
ATOM      1  N   UNL     1       2.500  -0.442   0.273  0.00  0.00    -0.249 N 
ATOM      2  C   UNL     1       3.638  -1.134   0.478  0.00  0.00    +0.405 C 
ATOM      3  O   UNL     1       4.705  -0.555   0.503  0.00  0.00    -0.226 OA
ATOM      4  H   UNL     1       1.542  -0.975   0.173  0.00  0.00    +0.158 HD
ENDROOT
BRANCH   1  10
ATOM      5  C   UNL     1       1.478   1.715   0.685  0.00  0.00    +0.055 A 
ATOM      6  C   UNL     1       1.517   3.099   0.591  0.00  0.00    +0.025 A 
ATOM      7  C   UNL     1       2.608   3.721   0.014  0.00  0.00    +0.002 A 
ATOM      8  C   UNL     1       3.658   2.968  -0.480  0.00  0.00    +0.002 A 
ATOM      9  C   UNL     1       3.624   1.589  -0.395  0.00  0.00    +0.025 A 
ATOM     10  C   UNL     1       2.536   0.956   0.187  0.00  0.00    +0.058 A 
BRANCH   5  13
ATOM     11  C   UNL     1      -0.823   1.699   1.295  0.00  0.00    +0.248 C 
ATOM     12  O   UNL     1      -0.972   2.759   0.718  0.00  0.00    -0.270 OA
ATOM     13  N   UNL     1       0.376   1.083   1.274  0.00  0.00    -0.280 N 
ATOM     14  H   UNL     1       0.488   0.083   1.718  0.00  0.00    +0.155 HD
BRANCH  11  19
ATOM     15  C   UNL     1      -5.233  -0.685   4.121  0.00  0.00    +0.044 C 
ATOM     16  C   UNL     1      -4.078  -0.061   3.380  0.00  0.00    -0.050 A 
ATOM     17  C   UNL     1      -4.251   1.145   2.725  0.00  0.00    +0.004 A 
ATOM     18  C   UNL     1      -3.198   1.722   2.046  0.00  0.00    +0.013 A 
ATOM     19  C   UNL     1      -1.955   1.087   2.021  0.00  0.00    +0.037 A 
ATOM     20  C   UNL     1      -1.789  -0.133   2.680  0.00  0.00    +0.013 A 
ATOM     21  C   UNL     1      -2.849  -0.696   3.360  0.00  0.00    +0.004 A 
ENDBRANCH  11  19
ENDBRANCH   5  13
ENDBRANCH   1  10
BRANCH   2  22
ATOM     22  O   UNL     1       3.591  -2.468   0.655  0.00  0.00    -0.450 OA
BRANCH  22  23
ATOM     23  C   UNL     1       4.856  -3.149   0.871  0.00  0.00    +0.237 C 
BRANCH  23  24
ATOM     24  C   UNL     1       4.604  -4.647   1.051  0.00  0.00    +0.030 C 
ATOM     25  C   UNL     1       3.803  -4.881   2.334  0.00  0.00    +0.026 C 
ATOM     26  C   UNL     1       3.607  -6.385   2.541  0.00  0.00    +0.105 C 
ATOM     27  N   UNL     1       4.917  -7.042   2.634  0.00  0.00    -0.330 N 
ATOM     28  C   UNL     1       5.686  -6.871   1.394  0.00  0.00    +0.105 C 
ATOM     29  C   UNL     1       5.944  -5.382   1.154  0.00  0.00    +0.026 C 
BRANCH  27  30
ATOM     30  C   UNL     1       4.777  -8.390   2.952  0.00  0.00    +0.032 A 
ATOM     31  C   UNL     1       5.326  -9.379   2.135  0.00  0.00    +0.040 A 
ATOM     32  C   UNL     1       5.170 -10.702   2.489  0.00  0.00    +0.084 A 
ATOM     33  N   UNL     1       4.503 -11.038   3.578  0.00  0.00    -0.367 N 
ATOM     34  C   UNL     1       3.964 -10.132   4.373  0.00  0.00    +0.084 A 
ATOM     35  C   UNL     1       4.080  -8.787   4.093  0.00  0.00    +0.040 A 
ATOM     36  H   UNL     1       4.383 -12.098   3.845  0.00  0.00    +0.165 HD
ENDBRANCH  27  30
ENDBRANCH  23  24
ENDBRANCH  22  23
ENDBRANCH   2  22
TORSDOF 7
