REMARK  Name = ZINC03770429
REMARK  10 active torsions:
REMARK  status: ('A' for Active; 'I' for Inactive)
REMARK    1  A    between atoms: C_1  and  C_2
REMARK    2  A    between atoms: C_6  and  N_8
REMARK    3  A    between atoms: C_9  and  C_11
REMARK    4  A    between atoms: C_16  and  C_19
REMARK    5  A    between atoms: C_19  and  C_20
REMARK    6  A    between atoms: C_20  and  O_22
REMARK    7  A    between atoms: O_22  and  C_23
REMARK    8  A    between atoms: C_24  and  N_37
REMARK    9  A    between atoms: C_25  and  C_35
REMARK   10  A    between atoms: C_26  and  C_28
REMARK                            x       y       z     vdW  Elec       q    Type
REMARK                         _______ _______ _______ _____ _____    ______ ____
ROOT
ATOM      1  C   UNL     1       4.696   5.901   3.100  0.00  0.00    +0.055 C 
ATOM      2  C   UNL     1       4.365   5.438   1.866  0.00  0.00    +0.086 C 
ATOM      3  N   UNL     1       3.868   6.227   0.845  0.00  0.00    -0.220 N 
ATOM      4  C   UNL     1       3.574   5.655  -0.342  0.00  0.00    +0.239 C 
ATOM      5  O   UNL     1       3.137   6.309  -1.264  0.00  0.00    -0.274 OA
ATOM      6  C   UNL     1       3.812   4.168  -0.477  0.00  0.00    +0.150 C 
ATOM      7  S   UNL     1       4.454   3.786   1.198  0.00  0.00    -0.096 S 
ATOM      8  C   UNL     1       3.686   7.598   1.077  0.00  0.00    +0.110 C 
ATOM      9  C   UNL     1       3.967   8.208   2.248  0.00  0.00    +0.077 C 
ATOM     10  C   UNL     1       4.513   7.377   3.390  0.00  0.00    +0.100 C 
ENDROOT
BRANCH  10  11
ATOM     11  C   UNL     1       3.578   7.515   4.564  0.00  0.00    -0.032 A 
ATOM     12  C   UNL     1       4.004   8.146   5.717  0.00  0.00    +0.005 A 
ATOM     13  C   UNL     1       3.146   8.273   6.794  0.00  0.00    +0.003 A 
ATOM     14  C   UNL     1       1.862   7.769   6.718  0.00  0.00    +0.038 A 
ATOM     15  C   UNL     1       1.434   7.137   5.564  0.00  0.00    +0.124 A 
ATOM     16  C   UNL     1       2.292   7.015   4.484  0.00  0.00    +0.043 A 
ATOM     17  F   UNL     1       0.178   6.644   5.489  0.00  0.00    -0.205 F 
ENDBRANCH  10  11
BRANCH   1  19
ATOM     18  N   UNL     1       5.518   5.507   5.302  0.00  0.00    -0.282 N 
ATOM     19  C   UNL     1       5.195   5.032   4.083  0.00  0.00    +0.248 C 
ATOM     20  O   UNL     1       5.335   3.846   3.835  0.00  0.00    -0.270 OA
ATOM     21  H   UNL     1       5.348   6.437   5.521  0.00  0.00    +0.155 HD
BRANCH  18  27
ATOM     22  C   UNL     1       8.676   4.844   9.011  0.00  0.00    +0.044 C 
ATOM     23  C   UNL     1       7.633   4.313   8.062  0.00  0.00    -0.049 A 
ATOM     24  C   UNL     1       7.249   2.986   8.130  0.00  0.00    +0.003 A 
ATOM     25  C   UNL     1       6.292   2.494   7.261  0.00  0.00    +0.002 A 
ATOM     26  C   UNL     1       5.712   3.329   6.327  0.00  0.00    +0.023 A 
ATOM     27  C   UNL     1       6.099   4.661   6.252  0.00  0.00    +0.034 A 
ATOM     28  C   UNL     1       7.061   5.151   7.126  0.00  0.00    +0.026 A 
ENDBRANCH  18  27
ENDBRANCH   1  19
BRANCH   8  29
ATOM     29  N   UNL     1       3.192   8.367   0.051  0.00  0.00    -0.345 N 
ATOM     30  H   UNL     1       2.583   7.978  -0.597  0.00  0.00    +0.144 HD
ATOM     31  H   UNL     1       3.451   9.298  -0.026  0.00  0.00    +0.144 HD
ENDBRANCH   8  29
BRANCH   9  32
ATOM     32  C   UNL     1       3.754   9.615   2.406  0.00  0.00    +0.099 C 
ATOM     33  N   UNL     1       3.584  10.732   2.533  0.00  0.00    -0.191 NA
ENDBRANCH   9  32
BRANCH   6  34
ATOM     34  C   UNL     1       2.506   3.421  -0.754  0.00  0.00    +0.144 C 
BRANCH  34  35
ATOM     35  C   UNL     1       2.793   1.950  -0.909  0.00  0.00    +0.308 C 
ATOM     36  O   UNL     1       3.926   1.541  -0.808  0.00  0.00    -0.251 OA
BRANCH  35  37
ATOM     37  O   UNL     1       1.790   1.093  -1.160  0.00  0.00    -0.468 OA
ATOM     38  C   UNL     1       2.140  -0.309  -1.297  0.00  0.00    +0.280 C 
ENDBRANCH  35  37
ENDBRANCH  34  35
ENDBRANCH   6  34
TORSDOF 8
