REMARK  Name = ZINC36309751
REMARK  15 active torsions:
REMARK  status: ('A' for Active; 'I' for Inactive)
REMARK    1  A    between atoms: C_1  and  C_2
REMARK    2  A    between atoms: C_2  and  C_3
REMARK    3  A    between atoms: C_2  and  N_4
REMARK    4  A    between atoms: N_4  and  C_5
REMARK    5  A    between atoms: N_4  and  C_18
REMARK    6  A    between atoms: C_5  and  C_6
REMARK    7  A    between atoms: C_6  and  C_8
REMARK    8  A    between atoms: C_6  and  O_17
REMARK    9  A    between atoms: C_8  and  O_9
REMARK   10  A    between atoms: O_9  and  C_10
REMARK   11  A    between atoms: C_10  and  C_11
REMARK   12  A    between atoms: C_18  and  C_19
REMARK   13  A    between atoms: C_29  and  C_31
REMARK   14  A    between atoms: C_31  and  O_32
REMARK   15  A    between atoms: O_32  and  C_33
REMARK                            x       y       z     vdW  Elec       q    Type
REMARK                         _______ _______ _______ _____ _____    ______ ____
ROOT
ATOM      1  C   UNL     1      -3.024   1.335  -0.268  0.00  0.00    +0.200 C 
ATOM      2  O   UNL     1      -2.351   1.966   0.520  0.00  0.00    -0.278 OA
ATOM      3  N   UNL     1      -4.007   1.948  -0.956  0.00  0.00    -0.292 N 
ATOM      4  C   UNL     1      -4.832   1.193  -1.910  0.00  0.00    +0.113 C 
ATOM      5  C   UNL     1      -6.278   1.175  -1.389  0.00  0.00    +0.061 C 
ATOM      6  C   UNL     1      -6.624   2.541  -0.892  0.00  0.00    -0.004 A 
ATOM      7  C   UNL     1      -5.776   3.562  -0.591  0.00  0.00    -0.014 A 
ATOM      8  C   UNL     1      -6.356   4.744  -0.134  0.00  0.00    +0.013 A 
ATOM      9  C   UNL     1      -7.700   4.835  -0.015  0.00  0.00    +0.046 A 
ATOM     10  S   UNL     1      -8.229   3.216  -0.554  0.00  0.00    -0.101 S 
ATOM     11  C   UNL     1      -4.273   3.380  -0.760  0.00  0.00    +0.144 C 
ENDROOT
BRANCH   1  12
ATOM     12  C   UNL     1      -2.760  -0.134  -0.477  0.00  0.00    +0.019 C 
BRANCH  12  13
ATOM     13  N   UNL     1      -1.549  -0.523   0.257  0.00  0.00    +0.389 N 
ATOM     14  H   UNL     1      -1.514  -0.026   1.135  0.00  0.00    -0.081 HD
BRANCH  13  16
ATOM     15  C   UNL     1      -0.431  -0.924  -1.884  0.00  0.00    -0.014 C 
ATOM     16  C   UNL     1      -0.363  -0.191  -0.542  0.00  0.00    -0.074 C 
ATOM     17  C   UNL     1      -0.319   1.318  -0.787  0.00  0.00    -0.014 C 
ENDBRANCH  13  16
BRANCH  13  18
ATOM     18  C   UNL     1      -1.577  -1.970   0.515  0.00  0.00    -0.044 C 
BRANCH  18  19
ATOM     19  C   UNL     1      -0.393  -2.352   1.405  0.00  0.00    +0.124 C 
BRANCH  19  20
ATOM     20  O   UNL     1      -0.492  -1.661   2.652  0.00  0.00    -0.391 OA
ATOM     21  H   UNL     1      -1.298  -1.858   3.149  0.00  0.00    +0.210 HD
ENDBRANCH  19  20
BRANCH  19  22
ATOM     22  C   UNL     1      -0.410  -3.861   1.656  0.00  0.00    +0.189 C 
BRANCH  22  23
ATOM     23  O   UNL     1       0.758  -4.235   2.390  0.00  0.00    -0.373 OA
BRANCH  23  24
ATOM     24  C   UNL     1       0.840  -5.632   2.678  0.00  0.00    +0.195 C 
BRANCH  24  25
ATOM     25  C   UNL     1       2.104  -5.912   3.450  0.00  0.00    -0.022 A 
ATOM     26  C   UNL     1       3.273  -6.212   2.777  0.00  0.00    +0.006 A 
ATOM     27  C   UNL     1       4.432  -6.469   3.485  0.00  0.00    +0.000 A 
ATOM     28  C   UNL     1       4.422  -6.425   4.867  0.00  0.00    +0.000 A 
ATOM     29  C   UNL     1       3.253  -6.124   5.540  0.00  0.00    +0.000 A 
ATOM     30  C   UNL     1       2.095  -5.863   4.832  0.00  0.00    +0.006 A 
ENDBRANCH  24  25
ENDBRANCH  23  24
ENDBRANCH  22  23
ENDBRANCH  19  22
ENDBRANCH  18  19
ENDBRANCH  13  18
ENDBRANCH  12  13
ENDBRANCH   1  12
BRANCH  11  31
ATOM     31  C   UNL     1      -3.794   4.168  -1.981  0.00  0.00    +0.256 C 
BRANCH  31  32
ATOM     32  O   UNL     1      -4.570   3.796  -3.122  0.00  0.00    -0.490 OA
BRANCH  32  33
ATOM     33  C   UNL     1      -4.270   4.409  -4.298  0.00  0.00    +0.121 A 
ATOM     34  C   UNL     1      -3.247   5.344  -4.353  0.00  0.00    +0.048 A 
ATOM     35  C   UNL     1      -2.944   5.965  -5.549  0.00  0.00    +0.042 A 
ATOM     36  C   UNL     1      -3.661   5.656  -6.692  0.00  0.00    +0.124 A 
ATOM     37  C   UNL     1      -4.683   4.723  -6.639  0.00  0.00    +0.042 A 
ATOM     38  C   UNL     1      -4.984   4.095  -5.446  0.00  0.00    +0.048 A 
ATOM     39  F   UNL     1      -3.364   6.265  -7.861  0.00  0.00    -0.205 F 
ENDBRANCH  32  33
ENDBRANCH  31  32
ENDBRANCH  11  31
TORSDOF 13
