REMARK  Name = ZINC18049604
REMARK  8 active torsions:
REMARK  status: ('A' for Active; 'I' for Inactive)
REMARK    1  A    between atoms: C_1  and  C_2
REMARK    2  A    between atoms: C_5  and  C_35
REMARK    3  A    between atoms: N_8  and  S_10
REMARK    4  A    between atoms: S_10  and  C_13
REMARK    5  A    between atoms: C_17  and  C_19
REMARK    6  A    between atoms: N_21  and  C_22
REMARK    7  A    between atoms: C_22  and  C_23
REMARK    8  A    between atoms: N_25  and  C_26
REMARK                            x       y       z     vdW  Elec       q    Type
REMARK                         _______ _______ _______ _____ _____    ______ ____
ROOT
ATOM      1  C   UNL     1       4.071  -6.021  -0.493  0.00  0.00    +0.245 C 
ATOM      2  O   UNL     1       3.157  -6.822  -0.508  0.00  0.00    -0.270 OA
ATOM      3  N   UNL     1       3.811  -4.704  -0.373  0.00  0.00    -0.303 N 
ATOM      4  H   UNL     1       4.541  -4.065  -0.361  0.00  0.00    +0.150 HD
ENDROOT
BRANCH   1   9
ATOM      5  C   UNL     1       7.046  -8.288  -0.838  0.00  0.00    +0.106 A 
ATOM      6  C   UNL     1       8.084  -7.373  -0.822  0.00  0.00    +0.028 A 
ATOM      7  C   UNL     1       7.821  -6.021  -0.698  0.00  0.00    +0.003 A 
ATOM      8  C   UNL     1       6.519  -5.574  -0.596  0.00  0.00    +0.013 A 
ATOM      9  C   UNL     1       5.468  -6.492  -0.607  0.00  0.00    +0.039 A 
ATOM     10  C   UNL     1       5.740  -7.855  -0.732  0.00  0.00    +0.041 A 
BRANCH   5  11
ATOM     11  S   UNL     1       7.392 -10.008  -0.996  0.00  0.00    +0.061 S 
ATOM     12  O   UNL     1       8.721 -10.199  -0.531  0.00  0.00    -0.153 OA
ATOM     13  O   UNL     1       6.282 -10.698  -0.438  0.00  0.00    -0.153 OA
BRANCH  11  19
ATOM     14  C   UNL     1       5.693  -8.431  -4.038  0.00  0.00    +0.009 C 
ATOM     15  C   UNL     1       5.951  -9.863  -4.512  0.00  0.00    +0.002 C 
ATOM     16  C   UNL     1       7.200  -9.890  -5.396  0.00  0.00    +0.009 C 
ATOM     17  C   UNL     1       8.399  -9.361  -4.606  0.00  0.00    +0.002 C 
ATOM     18  C   UNL     1       8.645 -10.264  -3.393  0.00  0.00    +0.112 C 
ATOM     19  N   UNL     1       7.402 -10.359  -2.615  0.00  0.00    -0.176 NA
ATOM     20  C   UNL     1       6.170 -10.777  -3.298  0.00  0.00    +0.112 C 
ATOM     21  C   UNL     1       9.640  -9.358  -5.500  0.00  0.00    +0.009 C 
ENDBRANCH  11  19
ENDBRANCH   5  11
ENDBRANCH   1   9
BRANCH   3  22
ATOM     22  C   UNL     1       2.427  -4.238  -0.260  0.00  0.00    +0.200 C 
BRANCH  22  23
ATOM     23  C   UNL     1       2.411  -2.736  -0.138  0.00  0.00    +0.234 C 
ATOM     24  O   UNL     1       3.454  -2.116  -0.144  0.00  0.00    -0.274 OA
ATOM     25  N   UNL     1       1.239  -2.082  -0.021  0.00  0.00    -0.282 N 
ATOM     26  H   UNL     1       0.411  -2.580   0.065  0.00  0.00    +0.155 HD
BRANCH  25  27
ATOM     27  C   UNL     1       1.215  -0.680  -0.024  0.00  0.00    +0.072 A 
ATOM     28  C   UNL     1       2.237   0.031  -0.638  0.00  0.00    +0.029 A 
ATOM     29  C   UNL     1       2.213   1.412  -0.641  0.00  0.00    +0.043 A 
ATOM     30  C   UNL     1       1.170   2.090  -0.033  0.00  0.00    +0.161 A 
ATOM     31  C   UNL     1       0.147   1.384   0.581  0.00  0.00    +0.195 A 
ATOM     32  C   UNL     1       0.168  -0.001   0.586  0.00  0.00    +0.182 A 
ATOM     33  F   UNL     1      -0.829  -0.690   1.184  0.00  0.00    -0.200 F 
ATOM     34  F   UNL     1      -0.873   2.047   1.169  0.00  0.00    -0.199 F 
ATOM     35  F   UNL     1       1.150   3.441  -0.037  0.00  0.00    -0.202 F 
ENDBRANCH  25  27
ENDBRANCH  22  23
ENDBRANCH   3  22
TORSDOF 6
