REMARK  Name = ZINC64774544
REMARK  9 active torsions:
REMARK  status: ('A' for Active; 'I' for Inactive)
REMARK    1  A    between atoms: C_1  and  C_2
REMARK    2  A    between atoms: C_4  and  C_34
REMARK    3  A    between atoms: C_5  and  N_30
REMARK    4  A    between atoms: C_6  and  C_8
REMARK    5  A    between atoms: C_12  and  S_15
REMARK    6  A    between atoms: S_15  and  C_16
REMARK    7  A    between atoms: C_16  and  C_18
REMARK    8  A    between atoms: C_16  and  C_19
REMARK    9  A    between atoms: C_31  and  C_33
REMARK                            x       y       z     vdW  Elec       q    Type
REMARK                         _______ _______ _______ _____ _____    ______ ____
ROOT
ATOM      1  C   UNL     1       0.619  -3.263   1.833  0.00  0.00    +0.161 A 
ATOM      2  C   UNL     1       0.893  -2.926   3.171  0.00  0.00    +0.300 A 
ATOM      3  O   UNL     1       0.860  -1.635   3.580  0.00  0.00    -0.263 OA
ATOM      4  N   UNL     1       1.185  -3.900   4.024  0.00  0.00    -0.180 NA
ATOM      5  C   UNL     1       1.210  -5.157   3.596  0.00  0.00    +0.213 A 
ATOM      6  N   UNL     1       0.948  -5.453   2.329  0.00  0.00    -0.122 NA
ATOM      7  N   UNL     1       0.656  -4.540   1.470  0.00  0.00    -0.141 NA
ENDROOT
BRANCH   1  13
ATOM      8  C   UNL     1       1.564   1.191  -0.209  0.00  0.00    +0.044 C 
ATOM      9  C   UNL     1       0.738  -0.067  -0.141  0.00  0.00    -0.049 A 
ATOM     10  C   UNL     1      -0.331  -0.237  -1.004  0.00  0.00    +0.008 A 
ATOM     11  C   UNL     1      -1.095  -1.387  -0.950  0.00  0.00    -0.028 A 
ATOM     12  C   UNL     1      -0.793  -2.380  -0.028  0.00  0.00    +0.046 A 
ATOM     13  C   UNL     1       0.288  -2.210   0.845  0.00  0.00    +0.029 A 
ATOM     14  C   UNL     1       1.054  -1.048   0.777  0.00  0.00    +0.015 A 
ATOM     15  C   UNL     1      -2.258  -1.564  -1.892  0.00  0.00    +0.046 C 
BRANCH  12  16
ATOM     16  N   UNL     1      -1.565  -3.543   0.028  0.00  0.00    -0.285 N 
ATOM     17  C   UNL     1      -1.938  -4.047   1.221  0.00  0.00    +0.214 C 
ATOM     18  O   UNL     1      -1.652  -3.460   2.244  0.00  0.00    -0.276 OA
ATOM     19  C   UNL     1      -2.711  -5.339   1.285  0.00  0.00    +0.109 C 
ATOM     20  H   UNL     1      -1.833  -3.988  -0.791  0.00  0.00    +0.155 HD
ENDBRANCH  12  16
ENDBRANCH   1  13
BRANCH   5  21
ATOM     21  S   UNL     1       1.597  -6.451   4.727  0.00  0.00    -0.072 S 
BRANCH  21  22
ATOM     22  C   UNL     1       1.514  -7.956   3.718  0.00  0.00    +0.137 C 
ATOM     23  C   UNL     1       2.613  -7.919   2.655  0.00  0.00    +0.029 C 
BRANCH  22  24
ATOM     24  C   UNL     1       1.707  -9.163   4.599  0.00  0.00    +0.233 C 
ATOM     25  O   UNL     1       2.328  -9.063   5.637  0.00  0.00    -0.274 OA
ATOM     26  N   UNL     1       1.192 -10.354   4.234  0.00  0.00    -0.270 N 
ATOM     27  C   UNL     1       0.516 -10.622   2.962  0.00  0.00    +0.118 C 
ATOM     28  C   UNL     1       0.116 -12.105   3.022  0.00  0.00    +0.056 C 
ATOM     29  C   UNL     1       0.612 -12.578   4.370  0.00  0.00    -0.024 A 
ATOM     30  C   UNL     1       1.228 -11.515   5.012  0.00  0.00    +0.040 A 
ATOM     31  C   UNL     1       1.774 -11.714   6.281  0.00  0.00    +0.024 A 
ATOM     32  C   UNL     1       1.703 -12.953   6.882  0.00  0.00    +0.002 A 
ATOM     33  C   UNL     1       1.091 -14.008   6.232  0.00  0.00    +0.000 A 
ATOM     34  C   UNL     1       0.540 -13.817   4.978  0.00  0.00    +0.005 A 
ENDBRANCH  22  24
ENDBRANCH  21  22
ENDBRANCH   5  21
TORSDOF 5
