REMARK  Name = ZINC11097523
REMARK  7 active torsions:
REMARK  status: ('A' for Active; 'I' for Inactive)
REMARK    1  A    between atoms: C_1  and  C_2
REMARK    2  A    between atoms: C_2  and  C_3
REMARK    3  A    between atoms: C_2  and  N_4
REMARK    4  A    between atoms: C_6  and  C_11
REMARK    5  A    between atoms: N_13  and  C_14
REMARK    6  A    between atoms: C_17  and  C_20
REMARK    7  A    between atoms: N_22  and  C_23
REMARK                            x       y       z     vdW  Elec       q    Type
REMARK                         _______ _______ _______ _____ _____    ______ ____
ROOT
ATOM      1  C   UNL     1       0.022   1.216   0.233  0.00  0.00    +0.033 A 
ATOM      2  C   UNL     1      -0.971   1.835  -0.519  0.00  0.00    +0.024 A 
ATOM      3  C   UNL     1      -1.072   3.208  -0.531  0.00  0.00    +0.015 A 
ATOM      4  C   UNL     1      -0.170   3.980   0.206  0.00  0.00    +0.037 A 
ATOM      5  C   UNL     1       0.830   3.355   0.956  0.00  0.00    +0.015 A 
ATOM      6  C   UNL     1       0.923   1.981   0.967  0.00  0.00    +0.024 A 
ENDROOT
BRANCH   1   9
ATOM      7  C   UNL     1      -0.998  -0.928   0.207  0.00  0.00    +0.222 C 
ATOM      8  O   UNL     1      -2.082  -0.400   0.076  0.00  0.00    -0.275 OA
ATOM      9  N   UNL     1       0.119  -0.175   0.247  0.00  0.00    -0.285 N 
ATOM     10  H   UNL     1       0.989  -0.601   0.285  0.00  0.00    +0.155 HD
BRANCH   7  13
ATOM     11  N   UNL     1      -2.166  -4.193   1.343  0.00  0.00    -0.298 N 
ATOM     12  C   UNL     1      -2.304  -3.068   0.411  0.00  0.00    +0.121 C 
ATOM     13  C   UNL     1      -0.901  -2.428   0.327  0.00  0.00    +0.101 C 
ATOM     14  C   UNL     1      -0.286  -2.836   1.686  0.00  0.00    +0.110 C 
ATOM     15  C   UNL     1      -1.044  -4.086   2.075  0.00  0.00    +0.217 C 
ATOM     16  O   UNL     1      -0.691  -4.875   2.926  0.00  0.00    -0.276 OA
BRANCH  11  18
ATOM     17  C   UNL     1      -2.427  -6.617   1.146  0.00  0.00    +0.028 C 
ATOM     18  C   UNL     1      -3.127  -5.293   1.459  0.00  0.00    +0.070 C 
ATOM     19  C   UNL     1      -3.684  -5.335   2.883  0.00  0.00    +0.028 C 
ENDBRANCH  11  18
ENDBRANCH   7  13
ENDBRANCH   1   9
BRANCH   4  20
ATOM     20  C   UNL     1      -0.272   5.452   0.192  0.00  0.00    +0.248 C 
ATOM     21  O   UNL     1       0.514   6.122   0.833  0.00  0.00    -0.270 OA
ATOM     22  N   UNL     1      -1.237   6.054  -0.532  0.00  0.00    -0.282 N 
ATOM     23  H   UNL     1      -1.909   5.519  -0.984  0.00  0.00    +0.155 HD
BRANCH  22  24
ATOM     24  C   UNL     1      -1.270   7.449  -0.631  0.00  0.00    +0.034 A 
ATOM     25  C   UNL     1      -2.487   8.111  -0.729  0.00  0.00    +0.024 A 
ATOM     26  C   UNL     1      -2.516   9.488  -0.821  0.00  0.00    +0.016 A 
ATOM     27  C   UNL     1      -1.335  10.208  -0.828  0.00  0.00    +0.013 A 
ATOM     28  C   UNL     1      -0.121   9.551  -0.737  0.00  0.00    +0.016 A 
ATOM     29  C   UNL     1      -0.085   8.174  -0.638  0.00  0.00    +0.024 A 
ATOM     30  I   UNL     1      -1.384  12.297  -0.975  0.00  0.00    -0.044 I 
ENDBRANCH  22  24
ENDBRANCH   4  20
TORSDOF 5
