REMARK  Name = ZINC13243388
REMARK  10 active torsions:
REMARK  status: ('A' for Active; 'I' for Inactive)
REMARK    1  A    between atoms: C_1  and  C_2
REMARK    2  A    between atoms: C_5  and  N_8
REMARK    3  A    between atoms: C_9  and  C_27
REMARK    4  A    between atoms: C_12  and  S_13
REMARK    5  A    between atoms: S_13  and  C_14
REMARK    6  A    between atoms: C_14  and  C_15
REMARK    7  A    between atoms: N_17  and  C_18
REMARK    8  A    between atoms: C_19  and  C_26
REMARK    9  A    between atoms: C_23  and  C_24
REMARK   10  A    between atoms: C_31  and  C_33
REMARK                            x       y       z     vdW  Elec       q    Type
REMARK                         _______ _______ _______ _____ _____    ______ ____
ROOT
ATOM      1  N   UNL     1       1.035  -3.383   1.796  0.00  0.00    -0.270 N 
ATOM      2  C   UNL     1      -0.011  -2.631   1.308  0.00  0.00    +0.169 A 
ATOM      3  N   UNL     1      -0.609  -3.354   0.389  0.00  0.00    -0.128 NA
ATOM      4  N   UNL     1      -0.022  -4.491   0.273  0.00  0.00    -0.122 NA
ATOM      5  C   UNL     1       0.989  -4.567   1.111  0.00  0.00    +0.197 A 
ENDROOT
BRANCH   1  10
ATOM      6  C   UNL     1       4.753  -1.890   5.816  0.00  0.00    +0.044 C 
ATOM      7  C   UNL     1       3.766  -2.286   4.748  0.00  0.00    -0.050 A 
ATOM      8  C   UNL     1       2.855  -3.298   4.992  0.00  0.00    +0.005 A 
ATOM      9  C   UNL     1       1.949  -3.663   4.016  0.00  0.00    +0.026 A 
ATOM     10  C   UNL     1       1.954  -3.014   2.789  0.00  0.00    +0.051 A 
ATOM     11  C   UNL     1       2.873  -2.003   2.545  0.00  0.00    +0.026 A 
ATOM     12  C   UNL     1       3.773  -1.638   3.527  0.00  0.00    +0.005 A 
ENDBRANCH   1  10
BRANCH   2  13
ATOM     13  C   UNL     1      -0.386  -1.266   1.734  0.00  0.00    +0.020 A 
ATOM     14  C   UNL     1      -1.207  -0.480   0.923  0.00  0.00    +0.011 A 
ATOM     15  C   UNL     1      -1.553   0.793   1.327  0.00  0.00    +0.001 A 
ATOM     16  C   UNL     1      -1.087   1.291   2.531  0.00  0.00    +0.003 A 
ATOM     17  C   UNL     1      -0.273   0.517   3.338  0.00  0.00    -0.050 A 
ATOM     18  C   UNL     1       0.080  -0.758   2.947  0.00  0.00    +0.015 A 
ATOM     19  C   UNL     1       0.224   1.065   4.651  0.00  0.00    +0.044 C 
ENDBRANCH   2  13
BRANCH   5  20
ATOM     20  S   UNL     1       2.082  -5.934   1.310  0.00  0.00    -0.076 S 
BRANCH  20  21
ATOM     21  C   UNL     1       1.392  -7.070   0.082  0.00  0.00    +0.173 C 
BRANCH  21  22
ATOM     22  C   UNL     1       2.191  -8.347   0.074  0.00  0.00    +0.228 C 
ATOM     23  O   UNL     1       3.135  -8.477   0.824  0.00  0.00    -0.275 OA
ATOM     24  N   UNL     1       1.857  -9.346  -0.768  0.00  0.00    -0.284 N 
ATOM     25  H   UNL     1       1.154  -9.214  -1.423  0.00  0.00    +0.155 HD
BRANCH  24  26
ATOM     26  C   UNL     1       2.522 -10.568  -0.697  0.00  0.00    +0.051 A 
ATOM     27  C   UNL     1       3.903 -10.620  -0.830  0.00  0.00    -0.028 A 
ATOM     28  C   UNL     1       4.560 -11.831  -0.754  0.00  0.00    +0.005 A 
ATOM     29  C   UNL     1       3.849 -13.004  -0.556  0.00  0.00    +0.001 A 
ATOM     30  C   UNL     1       2.477 -12.973  -0.427  0.00  0.00    +0.017 A 
ATOM     31  C   UNL     1       1.798 -11.753  -0.496  0.00  0.00    +0.085 A 
ATOM     32  C   UNL     1       4.686  -9.351  -1.051  0.00  0.00    +0.046 C 
BRANCH  31  33
ATOM     33  C   UNL     1       0.331 -11.713  -0.358  0.00  0.00    +0.388 C 
ATOM     34  O   UNL     1      -0.264 -10.665  -0.511  0.00  0.00    -0.241 OA
ATOM     35  O   UNL     1      -0.349 -12.837  -0.063  0.00  0.00    -0.241 OA
ENDBRANCH  31  33
ENDBRANCH  24  26
ENDBRANCH  21  22
ENDBRANCH  20  21
ENDBRANCH   5  20
TORSDOF 7
