REMARK  Name = ZINC09846786
REMARK  5 active torsions:
REMARK  status: ('A' for Active; 'I' for Inactive)
REMARK    1  A    between atoms: C_3  and  C_6
REMARK    2  A    between atoms: C_16  and  C_18
REMARK    3  A    between atoms: C_23  and  C_25
REMARK    4  A    between atoms: C_25  and  N_60
REMARK    5  A    between atoms: C_28  and  C_31
REMARK                            x       y       z     vdW  Elec       q    Type
REMARK                         _______ _______ _______ _____ _____    ______ ____
ROOT
ATOM      1  C   UNL     1      -2.357   1.712   0.228  0.00  0.00    +0.020 C 
ATOM      2  C   UNL     1      -1.113   2.173  -0.041  0.00  0.00    -0.023 C 
ATOM      3  C   UNL     1      -0.919   3.617  -0.388  0.00  0.00    +0.037 C 
ATOM      4  C   UNL     1       0.531   4.046  -0.480  0.00  0.00    +0.005 C 
ATOM      5  C   UNL     1       1.457   2.948  -0.997  0.00  0.00    +0.012 C 
ATOM      6  C   UNL     1       1.425   1.786  -0.002  0.00  0.00    +0.067 C 
ATOM      7  C   UNL     1      -0.015   1.285   0.009  0.00  0.00    +0.068 C 
ATOM      8  N   UNL     1       0.002  -0.004   0.002  0.00  0.00    -0.181 NA
ATOM      9  N   UNL     1       1.284  -0.544  -0.159  0.00  0.00    -0.186 N 
ATOM     10  C   UNL     1       2.194   0.563  -0.528  0.00  0.00    +0.146 C 
ATOM     11  C   UNL     1       1.626  -1.839  -0.004  0.00  0.00    +0.219 C 
ATOM     12  O   UNL     1       2.777  -2.186  -0.172  0.00  0.00    -0.276 OA
ENDROOT
BRANCH   1  15
ATOM     13  C   UNL     1      -5.740   3.391   0.310  0.00  0.00    +0.008 A 
ATOM     14  C   UNL     1      -4.842   2.356   0.413  0.00  0.00    +0.015 A 
ATOM     15  C   UNL     1      -3.501   2.623   0.180  0.00  0.00    +0.012 A 
ATOM     16  S   UNL     1      -3.536   4.366  -0.203  0.00  0.00    -0.097 S 
ATOM     17  C   UNL     1      -5.293   4.630  -0.026  0.00  0.00    +0.046 A 
ENDBRANCH   1  15
BRANCH  10  18
ATOM     18  C   UNL     1       3.525   0.422   0.166  0.00  0.00    +0.013 A 
ATOM     19  C   UNL     1       4.768   0.678  -0.312  0.00  0.00    +0.013 A 
ATOM     20  C   UNL     1       5.857   0.475   0.514  0.00  0.00    +0.008 A 
ATOM     21  C   UNL     1       5.651   0.026   1.776  0.00  0.00    +0.045 A 
ATOM     22  S   UNL     1       3.873  -0.117   1.831  0.00  0.00    -0.100 S 
ENDBRANCH  10  18
BRANCH  11  23
ATOM     23  C   UNL     1       0.581  -2.855   0.376  0.00  0.00    +0.021 C 
BRANCH  23  29
ATOM     24  C   UNL     1       1.685  -4.642  -0.828  0.00  0.00    -0.077 C 
ATOM     25  C   UNL     1       2.452  -5.955  -0.657  0.00  0.00    -0.006 C 
ATOM     26  C   UNL     1       1.527  -7.004  -0.036  0.00  0.00    +0.071 C 
ATOM     27  C   UNL     1       1.000  -6.480   1.303  0.00  0.00    -0.006 C 
ATOM     28  C   UNL     1       0.275  -5.152   1.076  0.00  0.00    -0.077 C 
ATOM     29  N   UNL     1       1.226  -4.178   0.499  0.00  0.00    +0.385 N 
ATOM     30  H   UNL     1       2.038  -4.097   1.122  0.00  0.00    -0.081 HD
BRANCH  26  31
ATOM     31  C   UNL     1       2.294  -8.282   0.190  0.00  0.00    +0.213 C 
ATOM     32  O   UNL     1       2.409  -8.730   1.311  0.00  0.00    -0.276 OA
ATOM     33  N   UNL     1       2.852  -8.926  -0.854  0.00  0.00    -0.329 N 
ATOM     34  H   UNL     1       2.760  -8.567  -1.751  0.00  0.00    +0.145 HD
ATOM     35  H   UNL     1       3.346  -9.748  -0.709  0.00  0.00    +0.145 HD
ENDBRANCH  26  31
ENDBRANCH  23  29
ENDBRANCH  11  23
TORSDOF 5
