REMARK  Name = ZINC10149126
REMARK  8 active torsions:
REMARK  status: ('A' for Active; 'I' for Inactive)
REMARK    1  A    between atoms: C_1  and  C_2
REMARK    2  A    between atoms: C_2  and  C_3
REMARK    3  A    between atoms: C_4  and  C_23
REMARK    4  A    between atoms: C_6  and  N_11
REMARK    5  A    between atoms: C_7  and  C_8
REMARK    6  A    between atoms: C_12  and  C_14
REMARK    7  A    between atoms: C_17  and  O_21
REMARK    8  A    between atoms: O_21  and  C_22
REMARK                            x       y       z     vdW  Elec       q    Type
REMARK                         _______ _______ _______ _____ _____    ______ ____
ROOT
ATOM      1  C   UNL     1      -3.979  -4.672   0.014  0.00  0.00    -0.024 A 
ATOM      2  C   UNL     1      -4.952  -3.744   0.029  0.00  0.00    -0.008 A 
ATOM      3  S   UNL     1      -4.053  -2.207   0.035  0.00  0.00    -0.078 S 
ATOM      4  C   UNL     1      -2.433  -2.820   0.009  0.00  0.00    +0.085 A 
ATOM      5  C   UNL     1      -2.616  -4.198   0.004  0.00  0.00    +0.068 A 
ATOM      6  C   UNL     1      -6.444  -3.953   0.042  0.00  0.00    +0.052 C 
ENDROOT
BRANCH   5   7
ATOM      7  C   UNL     1      -1.479  -5.124  -0.013  0.00  0.00    +0.244 C 
ATOM      8  O   UNL     1      -0.997  -5.514   1.034  0.00  0.00    -0.270 OA
ATOM      9  N   UNL     1      -0.969  -5.543  -1.188  0.00  0.00    -0.325 N 
ATOM     10  H   UNL     1      -1.353  -5.231  -2.022  0.00  0.00    +0.145 HD
ATOM     11  H   UNL     1      -0.217  -6.155  -1.199  0.00  0.00    +0.145 HD
ENDBRANCH   5   7
BRANCH   4  12
ATOM     12  N   UNL     1      -1.244  -2.109   0.002  0.00  0.00    -0.275 N 
ATOM     13  C   UNL     1      -1.264  -0.761   0.010  0.00  0.00    +0.249 C 
ATOM     14  O   UNL     1      -2.326  -0.169   0.022  0.00  0.00    -0.270 OA
ATOM     15  H   UNL     1      -0.397  -2.581  -0.008  0.00  0.00    +0.156 HD
BRANCH  13  16
ATOM     16  C   UNL     1       0.002  -0.004   0.002  0.00  0.00    +0.038 A 
ATOM     17  C   UNL     1       1.224  -0.683  -0.013  0.00  0.00    +0.017 A 
ATOM     18  C   UNL     1       2.404   0.027  -0.021  0.00  0.00    +0.047 A 
ATOM     19  C   UNL     1       2.381   1.417  -0.013  0.00  0.00    +0.133 A 
ATOM     20  C   UNL     1       1.168   2.096   0.002  0.00  0.00    +0.056 A 
ATOM     21  C   UNL     1      -0.017   1.393   0.010  0.00  0.00    +0.031 A 
ATOM     22  I   UNL     1       1.142   4.191   0.013  0.00  0.00    -0.040 I 
BRANCH  19  23
ATOM     23  O   UNL     1       3.546   2.113  -0.022  0.00  0.00    -0.494 OA
ATOM     24  C   UNL     1       4.756   1.353  -0.038  0.00  0.00    +0.277 C 
ENDBRANCH  19  23
ENDBRANCH  13  16
ENDBRANCH   4  12
BRANCH   1  26
ATOM     25  C   UNL     1      -4.392  -6.652   1.449  0.00  0.00    +0.009 C 
ATOM     26  C   UNL     1      -4.298  -6.145   0.009  0.00  0.00    +0.033 C 
ENDBRANCH   1  26
TORSDOF 5
