REMARK  Name = ZINC03618800
REMARK  9 active torsions:
REMARK  status: ('A' for Active; 'I' for Inactive)
REMARK    1  A    between atoms: C_1  and  C_2
REMARK    2  A    between atoms: C_4  and  C_33
REMARK    3  A    between atoms: C_5  and  C_9
REMARK    4  A    between atoms: C_6  and  C_8
REMARK    5  A    between atoms: C_9  and  C_11
REMARK    6  A    between atoms: C_14  and  C_17
REMARK    7  A    between atoms: N_19  and  N_20
REMARK    8  A    between atoms: N_23  and  C_24
REMARK    9  A    between atoms: C_24  and  C_27
REMARK                            x       y       z     vdW  Elec       q    Type
REMARK                         _______ _______ _______ _____ _____    ______ ____
ROOT
ATOM      1  C   UNL     1       0.197   0.940   0.015  0.00  0.00    +0.260 C 
ATOM      2  O   UNL     1       0.273  -0.273   0.032  0.00  0.00    -0.269 OA
ATOM      3  N   UNL     1       1.319   1.686   0.031  0.00  0.00    -0.229 N 
ATOM      4  H   UNL     1       1.259   2.654   0.017  0.00  0.00    +0.173 HD
ENDROOT
BRANCH   1   8
ATOM      5  C   UNL     1      -3.612   2.831  -0.116  0.00  0.00    +0.022 A 
ATOM      6  C   UNL     1      -3.524   1.437  -0.096  0.00  0.00    +0.012 A 
ATOM      7  C   UNL     1      -2.290   0.825  -0.054  0.00  0.00    +0.014 A 
ATOM      8  C   UNL     1      -1.128   1.598  -0.031  0.00  0.00    +0.038 A 
ATOM      9  C   UNL     1      -1.216   2.991  -0.045  0.00  0.00    +0.014 A 
ATOM     10  C   UNL     1      -2.449   3.604  -0.094  0.00  0.00    +0.012 A 
BRANCH   5  11
ATOM     11  C   UNL     1      -4.936   3.488  -0.162  0.00  0.00    +0.194 C 
ATOM     12  O   UNL     1      -5.943   2.818  -0.281  0.00  0.00    -0.287 OA
BRANCH  11  17
ATOM     13  C   UNL     1      -5.321   9.216   0.220  0.00  0.00    +0.044 C 
ATOM     14  C   UNL     1      -5.220   7.716   0.119  0.00  0.00    -0.050 A 
ATOM     15  C   UNL     1      -5.190   7.109  -1.124  0.00  0.00    +0.007 A 
ATOM     16  C   UNL     1      -5.097   5.737  -1.223  0.00  0.00    -0.039 A 
ATOM     17  C   UNL     1      -5.035   4.959  -0.064  0.00  0.00    +0.028 A 
ATOM     18  C   UNL     1      -5.071   5.578   1.188  0.00  0.00    -0.039 A 
ATOM     19  C   UNL     1      -5.157   6.952   1.272  0.00  0.00    +0.007 A 
ATOM     20  C   UNL     1      -5.010   4.747   2.443  0.00  0.00    +0.044 C 
ATOM     21  C   UNL     1      -5.064   5.078  -2.578  0.00  0.00    +0.044 C 
ENDBRANCH  11  17
ENDBRANCH   5  11
ENDBRANCH   1   8
BRANCH   3  22
ATOM     22  N   UNL     1       2.574   1.063   0.068  0.00  0.00    -0.218 N 
ATOM     23  C   UNL     1       3.696   1.809   0.085  0.00  0.00    +0.317 C 
ATOM     24  O   UNL     1       4.785   1.269   0.117  0.00  0.00    -0.251 OA
ATOM     25  N   UNL     1       3.612   3.154   0.065  0.00  0.00    -0.289 N 
ATOM     26  H   UNL     1       2.635   0.095   0.082  0.00  0.00    +0.174 HD
ATOM     27  H   UNL     1       2.749   3.584  -0.039  0.00  0.00    +0.151 HD
BRANCH  25  28
ATOM     28  C   UNL     1       4.824   3.966   0.201  0.00  0.00    +0.061 C 
ATOM     29  C   UNL     1       5.014   5.121  -0.784  0.00  0.00    +0.033 C 
ATOM     30  C   UNL     1       5.873   3.861  -0.908  0.00  0.00    +0.033 C 
BRANCH  28  31
ATOM     31  C   UNL     1       5.318   4.165   1.611  0.00  0.00    -0.024 A 
ATOM     32  C   UNL     1       4.682   3.532   2.662  0.00  0.00    +0.006 A 
ATOM     33  C   UNL     1       5.139   3.710   3.954  0.00  0.00    +0.000 A 
ATOM     34  C   UNL     1       6.226   4.529   4.197  0.00  0.00    +0.000 A 
ATOM     35  C   UNL     1       6.859   5.166   3.146  0.00  0.00    +0.000 A 
ATOM     36  C   UNL     1       6.405   4.984   1.853  0.00  0.00    +0.006 A 
ENDBRANCH  28  31
ENDBRANCH  25  28
ENDBRANCH   3  22
TORSDOF 6
