REMARK  Name = ZINC62566729
REMARK  9 active torsions:
REMARK  status: ('A' for Active; 'I' for Inactive)
REMARK    1  A    between atoms: C_1  and  O_2
REMARK    2  A    between atoms: O_2  and  C_3
REMARK    3  A    between atoms: C_8  and  C_9
REMARK    4  A    between atoms: C_9  and  N_10
REMARK    5  A    between atoms: C_13  and  N_16
REMARK    6  A    between atoms: C_17  and  C_19
REMARK    7  A    between atoms: C_22  and  S_25
REMARK    8  A    between atoms: S_25  and  N_28
REMARK    9  A    between atoms: N_28  and  C_29
REMARK                            x       y       z     vdW  Elec       q    Type
REMARK                         _______ _______ _______ _____ _____    ______ ____
ROOT
ATOM      1  N   UNL     1       3.411  -4.176  -4.321  0.00  0.00    -0.309 N 
ATOM      2  C   UNL     1       3.329  -5.095  -5.304  0.00  0.00    +0.244 C 
ATOM      3  O   UNL     1       2.510  -5.990  -5.232  0.00  0.00    -0.270 OA
ATOM      4  H   UNL     1       4.064  -3.461  -4.379  0.00  0.00    +0.149 HD
ENDROOT
BRANCH   1   8
ATOM      5  N   UNL     1       0.953  -2.876  -1.154  0.00  0.00    +0.383 N 
ATOM      6  C   UNL     1       2.186  -3.581  -0.786  0.00  0.00    -0.077 C 
ATOM      7  C   UNL     1       3.161  -3.562  -1.965  0.00  0.00    +0.004 C 
ATOM      8  C   UNL     1       2.513  -4.257  -3.166  0.00  0.00    +0.070 C 
ATOM      9  C   UNL     1       1.191  -3.559  -3.495  0.00  0.00    +0.004 C 
ATOM     10  C   UNL     1       0.289  -3.578  -2.259  0.00  0.00    -0.077 C 
ATOM     11  H   UNL     1       1.179  -1.935  -1.442  0.00  0.00    -0.081 HD
BRANCH   5  12
ATOM     12  C   UNL     1       0.052  -2.828   0.005  0.00  0.00    -0.039 C 
BRANCH  12  18
ATOM     13  C   UNL     1       0.626  -0.618   1.042  0.00  0.00    +0.121 A 
ATOM     14  C   UNL     1       1.202   0.139   2.051  0.00  0.00    +0.046 A 
ATOM     15  C   UNL     1       1.835  -0.488   3.107  0.00  0.00    +0.004 A 
ATOM     16  C   UNL     1       1.895  -1.869   3.158  0.00  0.00    +0.000 A 
ATOM     17  C   UNL     1       1.321  -2.625   2.153  0.00  0.00    +0.005 A 
ATOM     18  C   UNL     1       0.682  -2.003   1.097  0.00  0.00    -0.022 A 
BRANCH  13  20
ATOM     19  C   UNL     1      -0.017   1.425   0.010  0.00  0.00    +0.277 C 
ATOM     20  O   UNL     1       0.002  -0.004   0.002  0.00  0.00    -0.495 OA
ENDBRANCH  13  20
ENDBRANCH  12  18
ENDBRANCH   5  12
ENDBRANCH   1   8
BRANCH   2  21
ATOM     21  C   UNL     1       4.234  -5.013  -6.470  0.00  0.00    +0.037 A 
ATOM     22  C   UNL     1       5.179  -3.989  -6.553  0.00  0.00    +0.015 A 
ATOM     23  C   UNL     1       6.022  -3.918  -7.643  0.00  0.00    +0.029 A 
ATOM     24  C   UNL     1       5.931  -4.860  -8.653  0.00  0.00    +0.110 A 
ATOM     25  C   UNL     1       4.997  -5.877  -8.577  0.00  0.00    +0.029 A 
ATOM     26  C   UNL     1       4.152  -5.963  -7.489  0.00  0.00    +0.015 A 
BRANCH  24  27
ATOM     27  S   UNL     1       7.011  -4.762 -10.042  0.00  0.00    +0.092 S 
ATOM     28  O   UNL     1       6.361  -5.440 -11.110  0.00  0.00    -0.148 OA
ATOM     29  O   UNL     1       7.425  -3.407 -10.140  0.00  0.00    -0.148 OA
BRANCH  27  30
ATOM     30  N   UNL     1       8.363  -5.645  -9.675  0.00  0.00    -0.098 NA
BRANCH  30  31
ATOM     31  C   UNL     1       9.404  -5.747 -10.602  0.00  0.00    +0.074 A 
ATOM     32  C   UNL     1       9.308  -5.105 -11.830  0.00  0.00    +0.029 A 
ATOM     33  C   UNL     1      10.338  -5.207 -12.744  0.00  0.00    +0.040 A 
ATOM     34  C   UNL     1      11.466  -5.950 -12.438  0.00  0.00    +0.124 A 
ATOM     35  C   UNL     1      11.564  -6.591 -11.214  0.00  0.00    +0.040 A 
ATOM     36  C   UNL     1      10.539  -6.487 -10.295  0.00  0.00    +0.029 A 
ATOM     37  F   UNL     1      12.472  -6.049 -13.334  0.00  0.00    -0.205 F 
ENDBRANCH  30  31
ENDBRANCH  27  30
ENDBRANCH  24  27
ENDBRANCH   2  21
TORSDOF 8
