REMARK  Name = ZINC21522696
REMARK  12 active torsions:
REMARK  status: ('A' for Active; 'I' for Inactive)
REMARK    1  A    between atoms: C_1  and  C_2
REMARK    2  A    between atoms: C_3  and  C_35
REMARK    3  A    between atoms: C_7  and  N_31
REMARK    4  A    between atoms: C_11  and  C_20
REMARK    5  A    between atoms: C_11  and  C_21
REMARK    6  A    between atoms: N_12  and  C_15
REMARK    7  A    between atoms: C_15  and  C_16
REMARK    8  A    between atoms: C_16  and  C_17
REMARK    9  A    between atoms: C_17  and  C_18
REMARK   10  A    between atoms: C_17  and  C_19
REMARK   11  A    between atoms: N_23  and  C_24
REMARK   12  A    between atoms: C_32  and  C_34
REMARK                            x       y       z     vdW  Elec       q    Type
REMARK                         _______ _______ _______ _____ _____    ______ ____
ROOT
ATOM      1  C   UNL     1       2.070   3.178  -2.102  0.00  0.00    +0.045 C 
ATOM      2  C   UNL     1       1.517   1.841  -1.680  0.00  0.00    -0.029 A 
ATOM      3  C   UNL     1       0.227   1.544  -1.890  0.00  0.00    -0.008 A 
ATOM      4  S   UNL     1       0.074  -0.105  -1.232  0.00  0.00    -0.075 S 
ATOM      5  C   UNL     1       1.749  -0.346  -0.693  0.00  0.00    +0.090 A 
ATOM      6  C   UNL     1       2.377   0.856  -1.039  0.00  0.00    +0.032 A 
ATOM      7  C   UNL     1       3.744   0.714  -0.626  0.00  0.00    +0.072 A 
ATOM      8  C   UNL     1       3.883  -0.527  -0.069  0.00  0.00    +0.128 A 
ATOM      9  N   UNL     1       2.640  -1.172  -0.107  0.00  0.00    -0.327 N 
ATOM     10  C   UNL     1       2.457  -2.521   0.443  0.00  0.00    +0.158 C 
ATOM     11  C   UNL     1       3.779  -3.283   0.328  0.00  0.00    +0.128 C 
ATOM     12  N   UNL     1       4.915  -2.481   0.768  0.00  0.00    -0.281 N 
ATOM     13  C   UNL     1       5.026  -1.166   0.474  0.00  0.00    +0.266 C 
ATOM     14  O   UNL     1       6.062  -0.557   0.668  0.00  0.00    -0.268 OA
ATOM     15  C   UNL     1       3.701  -4.545   1.188  0.00  0.00    +0.043 C 
ATOM     16  C   UNL     1      -0.836   2.396  -2.534  0.00  0.00    +0.052 C 
ENDROOT
BRANCH   7  17
ATOM     17  N   UNL     1       4.747   1.669  -0.767  0.00  0.00    -0.283 N 
ATOM     18  C   UNL     1       4.508   2.953  -0.435  0.00  0.00    +0.214 C 
ATOM     19  O   UNL     1       3.445   3.263   0.060  0.00  0.00    -0.276 OA
ATOM     20  C   UNL     1       5.560   4.003  -0.680  0.00  0.00    +0.109 C 
ATOM     21  H   UNL     1       5.736   1.375  -1.149  0.00  0.00    +0.155 HD
ENDBRANCH   7  17
BRANCH  11  22
ATOM     22  C   UNL     1       3.990  -3.683  -1.109  0.00  0.00    +0.238 C 
ATOM     23  O   UNL     1       3.651  -4.784  -1.488  0.00  0.00    -0.273 OA
ATOM     24  N   UNL     1       4.556  -2.817  -1.974  0.00  0.00    -0.311 N 
ATOM     25  H   UNL     1       4.863  -1.818  -1.630  0.00  0.00    +0.149 HD
BRANCH  24  26
ATOM     26  C   UNL     1       4.761  -3.206  -3.371  0.00  0.00    +0.073 C 
ATOM     27  C   UNL     1       6.057  -4.036  -3.474  0.00  0.00    +0.022 C 
ATOM     28  C   UNL     1       6.008  -4.845  -4.742  0.00  0.00    +0.002 C 
ATOM     29  C   UNL     1       6.706  -4.138  -5.919  0.00  0.00    +0.000 C 
ATOM     30  C   UNL     1       6.398  -2.630  -5.978  0.00  0.00    +0.000 C 
ATOM     31  C   UNL     1       4.952  -2.326  -5.694  0.00  0.00    +0.002 C 
ATOM     32  C   UNL     1       4.804  -2.005  -4.193  0.00  0.00    +0.022 C 
ENDBRANCH  24  26
ENDBRANCH  11  22
BRANCH  12  33
ATOM     33  C   UNL     1       5.972  -3.122   1.556  0.00  0.00    +0.109 C 
BRANCH  33  34
ATOM     34  C   UNL     1       7.043  -3.676   0.615  0.00  0.00    +0.022 C 
BRANCH  34  35
ATOM     35  C   UNL     1       8.147  -4.345   1.437  0.00  0.00    -0.016 C 
ATOM     36  C   UNL     1       7.574  -5.565   2.161  0.00  0.00    +0.007 C 
ATOM     37  C   UNL     1       9.278  -4.789   0.507  0.00  0.00    +0.007 C 
ENDBRANCH  34  35
ENDBRANCH  33  34
ENDBRANCH  12  33
TORSDOF 6
