REMARK  Name = ZINC57888136
REMARK  8 active torsions:
REMARK  status: ('A' for Active; 'I' for Inactive)
REMARK    1  A    between atoms: CB_1  and  CA_2
REMARK    2  A    between atoms: CA_2  and  C_4
REMARK    3  A    between atoms: CA_2  and  N_6
REMARK    4  A    between atoms: C_4  and  O_5
REMARK    5  A    between atoms: N_9  and  C_10
REMARK    6  A    between atoms: C_13  and  N_20
REMARK    7  A    between atoms: C_15  and  C_16
REMARK    8  A    between atoms: C_21  and  C_23
REMARK                            x       y       z     vdW  Elec       q    Type
REMARK                         _______ _______ _______ _____ _____    ______ ____
ROOT
ATOM      1  C   UNK A   0       0.078  -1.137   4.700  0.00  0.00    +0.047 A 
ATOM      2  C   UNK A   0      -1.274  -0.849   4.835  0.00  0.00    +0.026 A 
ATOM      3  C   UNK A   0      -1.879  -0.937   6.072  0.00  0.00    +0.025 A 
ATOM      4  C   UNK A   0      -1.136  -1.315   7.183  0.00  0.00    +0.034 A 
ATOM      5  C   UNK A   0       0.216  -1.603   7.049  0.00  0.00    +0.037 A 
ATOM      6  C   UNK A   0       0.820  -1.519   5.810  0.00  0.00    +0.078 A 
ENDROOT
BRANCH   1  10
ATOM      7  N   ALA A   1       0.951   0.046   1.398  0.00  0.00    -0.294 N 
ATOM      8  C   UNK A   0       0.300  -0.100   2.568  0.00  0.00    +0.304 C 
ATOM      9  O   UNK A   0      -0.641   0.622   2.835  0.00  0.00    -0.252 OA
ATOM     10  N   UNK A   0       0.692  -1.047   3.444  0.00  0.00    -0.269 N 
ATOM     11  H   ALA A   1       1.702  -0.530   1.185  0.00  0.00    +0.151 HD
ATOM     12  H   UNK A   0       1.399  -1.666   3.205  0.00  0.00    +0.156 HD
BRANCH   7  14
ATOM     13  CB  ALA A   1       1.181   2.409   0.809  0.00  0.00    +0.030 C 
ATOM     14  CA  ALA A   1       0.525   1.075   0.446  0.00  0.00    +0.097 C 
BRANCH  14  15
ATOM     15  C   ALA A   1       0.946   0.668  -0.968  0.00  0.00    +0.177 C 
BRANCH  15  16
ATOM     16  O   ALA A   1       2.372   0.643  -1.052  0.00  0.00    -0.393 OA
ATOM     17  H   ALA A   1       2.710   0.392  -1.922  0.00  0.00    +0.209 HD
ENDBRANCH  15  16
ENDBRANCH  14  15
ENDBRANCH   7  14
ENDBRANCH   1  10
BRANCH   6  18
ATOM     18  C   UNK A   0       2.285  -1.837   5.663  0.00  0.00    +0.419 C 
ATOM     19  F   UNK A   0       2.812  -2.195   6.909  0.00  0.00    -0.166 F 
ATOM     20  F   UNK A   0       2.444  -2.900   4.767  0.00  0.00    -0.166 F 
ATOM     21  F   UNK A   0       2.960  -0.713   5.177  0.00  0.00    -0.166 F 
ENDBRANCH   6  18
BRANCH   4  22
ATOM     22  N   UNK A   0      -1.749  -1.404   8.438  0.00  0.00    -0.281 N 
ATOM     23  C   UNK A   0      -3.026  -1.826   8.536  0.00  0.00    +0.248 C 
ATOM     24  O   UNK A   0      -3.671  -2.049   7.530  0.00  0.00    -0.270 OA
ATOM     25  H   UNK A   0      -1.256  -1.162   9.238  0.00  0.00    +0.155 HD
BRANCH  23  26
ATOM     26  C   UNK A   0      -3.640  -2.017   9.866  0.00  0.00    +0.037 A 
ATOM     27  C   UNK A   0      -2.903  -1.756  11.023  0.00  0.00    +0.016 A 
ATOM     28  C   UNK A   0      -3.482  -1.936  12.261  0.00  0.00    +0.039 A 
ATOM     29  C   UNK A   0      -4.793  -2.376  12.359  0.00  0.00    +0.123 A 
ATOM     30  C   UNK A   0      -5.529  -2.637  11.213  0.00  0.00    +0.039 A 
ATOM     31  C   UNK A   0      -4.963  -2.454   9.970  0.00  0.00    +0.016 A 
ATOM     32  F   UNK A   0      -5.355  -2.551  13.575  0.00  0.00    -0.205 F 
ENDBRANCH  23  26
ENDBRANCH   4  22
TORSDOF 7
