REMARK  Name = ZINC58326913
REMARK  9 active torsions:
REMARK  status: ('A' for Active; 'I' for Inactive)
REMARK    1  A    between atoms: C_1  and  C_2
REMARK    2  A    between atoms: C_2  and  C_3
REMARK    3  A    between atoms: C_2  and  C_4
REMARK    4  A    between atoms: C_4  and  N_5
REMARK    5  A    between atoms: C_12  and  N_14
REMARK    6  A    between atoms: N_17  and  C_18
REMARK    7  A    between atoms: C_18  and  C_19
REMARK    8  A    between atoms: C_19  and  C_21
REMARK    9  A    between atoms: C_19  and  O_29
REMARK                            x       y       z     vdW  Elec       q    Type
REMARK                         _______ _______ _______ _____ _____    ______ ____
ROOT
ATOM      1  N   UNL     1      -2.402  -2.278  -6.332  0.00  0.00    -0.269 N 
ATOM      2  C   UNL     1      -2.686  -1.433  -7.343  0.00  0.00    +0.304 C 
ATOM      3  O   UNL     1      -2.752  -0.236  -7.134  0.00  0.00    -0.253 OA
ATOM      4  N   UNL     1      -2.897  -1.913  -8.584  0.00  0.00    -0.296 N 
ATOM      5  H   UNL     1      -2.274  -3.223  -6.511  0.00  0.00    +0.156 HD
ATOM      6  H   UNL     1      -2.845  -2.867  -8.750  0.00  0.00    +0.150 HD
ENDROOT
BRANCH   1  14
ATOM      7  N   UNL     1      -2.162  -0.176  -1.216  0.00  0.00    -0.346 N 
ATOM      8  C   UNL     1      -3.097   0.816  -1.321  0.00  0.00    +0.087 A 
ATOM      9  C   UNL     1      -3.622   0.822  -2.557  0.00  0.00    +0.027 A 
ATOM     10  C   UNL     1      -2.970  -0.256  -3.305  0.00  0.00    +0.002 A 
ATOM     11  C   UNL     1      -2.055  -0.849  -2.415  0.00  0.00    +0.049 A 
ATOM     12  C   UNL     1      -1.271  -1.913  -2.846  0.00  0.00    +0.028 A 
ATOM     13  C   UNL     1      -1.391  -2.379  -4.136  0.00  0.00    +0.025 A 
ATOM     14  C   UNL     1      -2.293  -1.792  -5.022  0.00  0.00    +0.035 A 
ATOM     15  C   UNL     1      -3.087  -0.738  -4.610  0.00  0.00    +0.033 A 
BRANCH   7  16
ATOM     16  C   UNL     1      -1.384  -0.476  -0.011  0.00  0.00    +0.124 C 
BRANCH  16  18
ATOM     17  C   UNL     1      -0.271   1.761  -0.045  0.00  0.00    +0.009 C 
ATOM     18  C   UNL     1      -0.038   0.249  -0.079  0.00  0.00    +0.003 C 
ATOM     19  C   UNL     1       0.823  -0.162   1.117  0.00  0.00    +0.009 C 
ENDBRANCH  16  18
ENDBRANCH   7  16
ENDBRANCH   1  14
BRANCH   4  20
ATOM     20  C   UNL     1      -3.205  -0.994  -9.683  0.00  0.00    +0.141 C 
BRANCH  20  21
ATOM     21  C   UNL     1      -3.398  -1.791 -10.975  0.00  0.00    +0.162 C 
BRANCH  21  22
ATOM     22  C   UNL     1      -3.593  -0.839 -12.127  0.00  0.00    -0.015 A 
ATOM     23  C   UNL     1      -4.828  -0.254 -12.338  0.00  0.00    +0.009 A 
ATOM     24  C   UNL     1      -5.009   0.619 -13.393  0.00  0.00    +0.041 A 
ATOM     25  C   UNL     1      -3.954   0.909 -14.241  0.00  0.00    +0.158 A 
ATOM     26  C   UNL     1      -2.716   0.322 -14.030  0.00  0.00    +0.159 A 
ATOM     27  C   UNL     1      -2.536  -0.548 -12.969  0.00  0.00    +0.047 A 
ATOM     28  F   UNL     1      -1.685   0.603 -14.856  0.00  0.00    -0.202 F 
ATOM     29  F   UNL     1      -4.131   1.762 -15.274  0.00  0.00    -0.202 F 
ENDBRANCH  21  22
BRANCH  21  30
ATOM     30  O   UNL     1      -4.547  -2.630 -10.850  0.00  0.00    -0.386 OA
ATOM     31  H   UNL     1      -5.370  -2.149 -10.686  0.00  0.00    +0.210 HD
ENDBRANCH  21  30
ENDBRANCH  20  21
ENDBRANCH   4  20
TORSDOF 7
