REMARK  Name = ZINC43666597
REMARK  6 active torsions:
REMARK  status: ('A' for Active; 'I' for Inactive)
REMARK    1  A    between atoms: C_1  and  C_2
REMARK    2  A    between atoms: C_6  and  C_18
REMARK    3  A    between atoms: C_8  and  N_11
REMARK    4  A    between atoms: C_12  and  N_17
REMARK    5  A    between atoms: C_18  and  C_19
REMARK    6  A    between atoms: C_18  and  C_20
REMARK                            x       y       z     vdW  Elec       q    Type
REMARK                         _______ _______ _______ _____ _____    ______ ____
ROOT
ATOM      1  C   UNL     1      -0.086   1.465   0.143  0.00  0.00    +0.007 C 
ATOM      2  C   UNL     1      -0.034  -0.064   0.133  0.00  0.00    -0.012 C 
ATOM      3  C   UNL     1       0.613  -0.543  -1.168  0.00  0.00    +0.004 C 
ATOM      4  C   UNL     1       2.034   0.017  -1.268  0.00  0.00    +0.006 C 
ATOM      5  C   UNL     1       2.860  -0.474  -0.077  0.00  0.00    +0.016 C 
ATOM      6  C   UNL     1       2.213   0.005   1.224  0.00  0.00    +0.113 C 
ATOM      7  C   UNL     1       0.792  -0.554   1.324  0.00  0.00    +0.030 C 
ENDROOT
BRANCH   6   8
ATOM      8  N   UNL     1       3.004  -0.464   2.364  0.00  0.00    -0.247 N 
ATOM      9  C   UNL     1       3.519   0.310   3.354  0.00  0.00    +0.128 A 
ATOM     10  C   UNL     1       4.182  -0.512   4.213  0.00  0.00    +0.072 A 
ATOM     11  C   UNL     1       4.066  -1.819   3.731  0.00  0.00    +0.150 A 
ATOM     12  N   UNL     1       3.358  -1.793   2.631  0.00  0.00    -0.177 NA
ATOM     13  I   UNL     1       5.197   0.078   5.949  0.00  0.00    -0.039 I 
BRANCH   9  14
ATOM     14  N   UNL     1       3.392   1.692   3.469  0.00  0.00    -0.343 N 
ATOM     15  H   UNL     1       2.896   2.191   2.800  0.00  0.00    +0.144 HD
ATOM     16  H   UNL     1       3.799   2.156   4.217  0.00  0.00    +0.144 HD
ENDBRANCH   9  14
ENDBRANCH   6   8
BRANCH   5  17
ATOM     17  C   UNL     1       4.280   0.086  -0.177  0.00  0.00    -0.012 C 
ATOM     18  C   UNL     1       4.975  -0.503  -1.407  0.00  0.00    +0.007 C 
ATOM     19  C   UNL     1       4.220   1.609  -0.305  0.00  0.00    +0.007 C 
ENDBRANCH   5  17
TORSDOF 3
