REMARK  Name = ZINC38904841
REMARK  10 active torsions:
REMARK  status: ('A' for Active; 'I' for Inactive)
REMARK    1  A    between atoms: C_3  and  C_8
REMARK    2  A    between atoms: C_10  and  C_13
REMARK    3  A    between atoms: C_13  and  N_14
REMARK    4  A    between atoms: C_18  and  C_21
REMARK    5  A    between atoms: N_23  and  C_24
REMARK    6  A    between atoms: C_24  and  C_25
REMARK    7  A    between atoms: C_25  and  C_26
REMARK    8  A    between atoms: C_26  and  S_27
REMARK    9  A    between atoms: S_27  and  C_28
REMARK   10  A    between atoms: C_28  and  C_29
REMARK                            x       y       z     vdW  Elec       q    Type
REMARK                         _______ _______ _______ _____ _____    ______ ____
ROOT
ATOM      1  N   UNL     1       7.752   2.308  -1.456  0.00  0.00    +0.386 N 
ATOM      2  C   UNL     1       7.523   3.607  -2.099  0.00  0.00    -0.078 C 
ATOM      3  C   UNL     1       7.934   3.530  -3.571  0.00  0.00    -0.018 C 
ATOM      4  C   UNL     1       9.419   3.168  -3.663  0.00  0.00    +0.009 C 
ATOM      5  C   UNL     1       9.659   1.849  -2.924  0.00  0.00    +0.058 C 
ATOM      6  C   UNL     1       9.184   1.987  -1.476  0.00  0.00    -0.065 C 
ATOM      7  H   UNL     1       7.242   1.593  -1.953  0.00  0.00    -0.081 HD
ENDROOT
BRANCH   5   8
ATOM      8  C   UNL     1      11.130   1.522  -2.943  0.00  0.00    +0.214 C 
ATOM      9  O   UNL     1      11.739   1.407  -1.901  0.00  0.00    -0.276 OA
ATOM     10  N   UNL     1      11.769   1.357  -4.118  0.00  0.00    -0.315 N 
ATOM     11  H   UNL     1      11.282   1.449  -4.952  0.00  0.00    +0.149 HD
BRANCH  10  12
ATOM     12  C   UNL     1      13.199   1.039  -4.137  0.00  0.00    +0.105 C 
BRANCH  12  13
ATOM     13  C   UNL     1      13.673   0.906  -5.585  0.00  0.00    +0.029 C 
BRANCH  13  14
ATOM     14  C   UNL     1      15.167   0.574  -5.604  0.00  0.00    +0.071 C 
BRANCH  14  15
ATOM     15  S   UNL     1      15.729   0.416  -7.322  0.00  0.00    -0.153 S 
BRANCH  15  16
ATOM     16  C   UNL     1      17.495   0.027  -7.171  0.00  0.00    +0.143 C 
BRANCH  16  17
ATOM     17  C   UNL     1      18.093  -0.132  -8.546  0.00  0.00    +0.115 A 
ATOM     18  C   UNL     1      18.646   0.849  -9.281  0.00  0.00    +0.045 A 
ATOM     19  C   UNL     1      19.075   0.260 -10.493  0.00  0.00    +0.041 A 
ATOM     20  C   UNL     1      18.758  -1.046 -10.425  0.00  0.00    +0.195 A 
ATOM     21  O   UNL     1      18.169  -1.279  -9.241  0.00  0.00    -0.467 OA
ENDBRANCH  16  17
ENDBRANCH  15  16
ENDBRANCH  14  15
ENDBRANCH  13  14
ENDBRANCH  12  13
ENDBRANCH  10  12
ENDBRANCH   5   8
BRANCH   1  22
ATOM     22  C   UNL     1       7.284   2.363  -0.064  0.00  0.00    +0.022 C 
BRANCH  22  25
ATOM     23  C   UNL     1       3.660   2.166  -0.022  0.00  0.00    +0.202 A 
ATOM     24  N   UNL     1       4.892   1.627  -0.042  0.00  0.00    -0.193 NA
ATOM     25  C   UNL     1       5.791   2.570  -0.044  0.00  0.00    +0.211 A 
ATOM     26  O   UNL     1       5.165   3.753  -0.026  0.00  0.00    -0.340 OA
ATOM     27  N   UNL     1       3.774   3.471  -0.017  0.00  0.00    -0.056 NA
BRANCH  23  30
ATOM     28  C   UNL     1      -0.017   1.379   0.010  0.00  0.00    +0.002 A 
ATOM     29  C   UNL     1       1.168   2.088   0.002  0.00  0.00    +0.012 A 
ATOM     30  C   UNL     1       2.384   1.408  -0.013  0.00  0.00    +0.023 A 
ATOM     31  C   UNL     1       2.398   0.015  -0.021  0.00  0.00    +0.027 A 
ATOM     32  C   UNL     1       1.207  -0.685  -0.013  0.00  0.00    +0.019 A 
ATOM     33  C   UNL     1       0.002  -0.004   0.002  0.00  0.00    +0.015 A 
ATOM     34 BR   UNL     1       1.224  -2.576  -0.024  0.00  0.00    -0.050 Br
ENDBRANCH  23  30
ENDBRANCH  22  25
ENDBRANCH   1  22
TORSDOF 10
