REMARK  Name = ZINC36586109
REMARK  14 active torsions:
REMARK  status: ('A' for Active; 'I' for Inactive)
REMARK    1  A    between atoms: C_1  and  C_2
REMARK    2  A    between atoms: C_5  and  S_8
REMARK    3  A    between atoms: S_8  and  C_11
REMARK    4  A    between atoms: C_11  and  N_12
REMARK    5  A    between atoms: C_13  and  C_15
REMARK    6  A    between atoms: C_15  and  C_17
REMARK    7  A    between atoms: C_15  and  N_24
REMARK    8  A    between atoms: C_22  and  O_23
REMARK    9  A    between atoms: N_24  and  C_35
REMARK   10  A    between atoms: C_25  and  C_27
REMARK   11  A    between atoms: C_28  and  C_29
REMARK   12  A    between atoms: C_35  and  C_36
REMARK   13  A    between atoms: C_35  and  C_37
REMARK   14  A    between atoms: C_35  and  C_38
REMARK                            x       y       z     vdW  Elec       q    Type
REMARK                         _______ _______ _______ _____ _____    ______ ____
ROOT
ATOM      1  C   UNL     1       3.093  -4.812   3.667  0.00  0.00    +0.197 C 
ENDROOT
BRANCH   1   2
ATOM      2  C   UNL     1       4.507  -4.291   3.697  0.00  0.00    +0.023 A 
ATOM      3  C   UNL     1       5.558  -5.157   3.930  0.00  0.00    +0.009 A 
ATOM      4  C   UNL     1       6.855  -4.681   3.959  0.00  0.00    +0.001 A 
ATOM      5  C   UNL     1       7.105  -3.336   3.754  0.00  0.00    +0.004 A 
ATOM      6  C   UNL     1       6.058  -2.466   3.520  0.00  0.00    +0.046 A 
ATOM      7  C   UNL     1       4.755  -2.943   3.486  0.00  0.00    +0.122 A 
BRANCH   7   8
ATOM      8  O   UNL     1       3.724  -2.090   3.250  0.00  0.00    -0.506 OA
ATOM      9  H   UNL     1       3.351  -1.693   4.049  0.00  0.00    +0.292 HD
ENDBRANCH   7   8
ENDBRANCH   1   2
BRANCH   1  11
ATOM     10  N   UNL     1       2.640  -4.021   1.367  0.00  0.00    -0.294 N 
ATOM     11  C   UNL     1       2.676  -5.049   2.238  0.00  0.00    +0.239 C 
ATOM     12  O   UNL     1       2.373  -6.165   1.872  0.00  0.00    -0.273 OA
ATOM     13  H   UNL     1       2.882  -3.129   1.660  0.00  0.00    +0.150 HD
BRANCH  10  14
ATOM     14  C   UNL     1       2.234  -4.252  -0.022  0.00  0.00    +0.278 C 
BRANCH  14  15
ATOM     15  S   UNL     1       0.463  -3.900  -0.201  0.00  0.00    +0.013 S 
ATOM     16  O   UNL     1      -0.268  -4.526   0.845  0.00  0.00    -0.168 OA
ATOM     17  O   UNL     1       0.068  -4.059  -1.556  0.00  0.00    -0.168 OA
BRANCH  15  22
ATOM     18  C   UNL     1      -0.064   2.013   0.876  0.00  0.00    +0.044 C 
ATOM     19  C   UNL     1       0.068   0.536   0.607  0.00  0.00    -0.050 A 
ATOM     20  C   UNL     1       0.292   0.085  -0.680  0.00  0.00    +0.005 A 
ATOM     21  C   UNL     1       0.413  -1.270  -0.927  0.00  0.00    +0.027 A 
ATOM     22  C   UNL     1       0.310  -2.173   0.114  0.00  0.00    +0.090 A 
ATOM     23  C   UNL     1       0.087  -1.722   1.401  0.00  0.00    +0.027 A 
ATOM     24  C   UNL     1      -0.029  -0.367   1.649  0.00  0.00    +0.005 A 
ENDBRANCH  15  22
ENDBRANCH  14  15
ENDBRANCH  10  14
ENDBRANCH   1  11
BRANCH   1  25
ATOM     25  N   UNL     1       3.020  -6.071   4.412  0.00  0.00    -0.270 N 
ATOM     26  C   UNL     1       3.674  -7.160   3.961  0.00  0.00    +0.293 C 
ATOM     27  O   UNL     1       4.253  -7.123   2.891  0.00  0.00    -0.260 OA
BRANCH  25  28
ATOM     28  C   UNL     1       2.237  -6.146   5.648  0.00  0.00    +0.031 C 
ATOM     29  C   UNL     1       1.530  -4.810   5.885  0.00  0.00    +0.031 C 
ATOM     30  C   UNL     1       1.195  -7.260   5.524  0.00  0.00    +0.031 C 
ATOM     31  C   UNL     1       3.168  -6.447   6.824  0.00  0.00    +0.031 C 
ENDBRANCH  25  28
BRANCH  26  32
ATOM     32  C   UNL     1       3.688  -8.361   4.741  0.00  0.00    -0.003 C 
ATOM     33  C   UNL     1       3.699  -9.345   5.381  0.00  0.00    -0.057 C 
BRANCH  33  34
ATOM     34  C   UNL     1       3.712 -10.546   6.161  0.00  0.00    +0.025 A 
ATOM     35  C   UNL     1       3.044 -10.595   7.388  0.00  0.00    +0.017 A 
ATOM     36  C   UNL     1       3.061 -11.755   8.133  0.00  0.00    +0.001 A 
ATOM     37  C   UNL     1       3.739 -12.869   7.669  0.00  0.00    +0.000 A 
ATOM     38  C   UNL     1       4.403 -12.829   6.456  0.00  0.00    +0.001 A 
ATOM     39  C   UNL     1       4.389 -11.678   5.696  0.00  0.00    +0.017 A 
ENDBRANCH  33  34
ENDBRANCH  26  32
ENDBRANCH   1  25
TORSDOF 10
