REMARK  Name = ZINC36053552
REMARK  12 active torsions:
REMARK  status: ('A' for Active; 'I' for Inactive)
REMARK    1  A    between atoms: C_1  and  C_2
REMARK    2  A    between atoms: C_3  and  C_32
REMARK    3  A    between atoms: C_4  and  C_23
REMARK    4  A    between atoms: C_7  and  C_12
REMARK    5  A    between atoms: C_13  and  N_15
REMARK    6  A    between atoms: N_15  and  C_16
REMARK    7  A    between atoms: C_16  and  C_17
REMARK    8  A    between atoms: C_26  and  C_29
REMARK    9  A    between atoms: C_29  and  C_30
REMARK   10  A    between atoms: C_29  and  C_31
REMARK   11  A    between atoms: C_32  and  O_34
REMARK   12  A    between atoms: O_34  and  C_35
REMARK                            x       y       z     vdW  Elec       q    Type
REMARK                         _______ _______ _______ _____ _____    ______ ____
ROOT
ATOM      1  C   UNL     1       0.333   1.160   0.893  0.00  0.00    +0.066 C 
ATOM      2  C   UNL     1       0.264  -0.296   0.512  0.00  0.00    +0.053 C 
ATOM      3  C   UNL     1      -0.962  -0.931   0.446  0.00  0.00    +0.082 C 
ATOM      4  C   UNL     1      -0.979  -2.393   0.058  0.00  0.00    +0.150 C 
ATOM      5  N   UNL     1       0.333  -3.034  -0.223  0.00  0.00    -0.267 N 
ATOM      6  C   UNL     1       0.555  -4.346  -0.591  0.00  0.00    +0.048 C 
ATOM      7  C   UNL     1       1.833  -4.730  -0.801  0.00  0.00    +0.072 C 
ATOM      8  S   UNL     1       2.729  -3.225  -0.476  0.00  0.00    -0.060 S 
ATOM      9  C   UNL     1       1.431  -2.229  -0.101  0.00  0.00    +0.166 C 
ATOM     10  N   UNL     1       1.377  -0.957   0.237  0.00  0.00    -0.230 NA
ENDROOT
BRANCH   4  11
ATOM     11  C   UNL     1      -1.640  -3.160   1.173  0.00  0.00    -0.022 A 
ATOM     12  C   UNL     1      -0.962  -3.381   2.358  0.00  0.00    +0.006 A 
ATOM     13  C   UNL     1      -1.569  -4.085   3.381  0.00  0.00    +0.004 A 
ATOM     14  C   UNL     1      -2.854  -4.569   3.220  0.00  0.00    -0.045 A 
ATOM     15  C   UNL     1      -3.532  -4.348   2.036  0.00  0.00    +0.004 A 
ATOM     16  C   UNL     1      -2.927  -3.640   1.014  0.00  0.00    +0.006 A 
BRANCH  14  17
ATOM     17  C   UNL     1      -3.515  -5.338   4.335  0.00  0.00    +0.013 C 
ATOM     18  C   UNL     1      -4.789  -4.611   4.769  0.00  0.00    +0.012 C 
ATOM     19  C   UNL     1      -3.871  -6.742   3.844  0.00  0.00    +0.012 C 
ENDBRANCH  14  17
ENDBRANCH   4  11
BRANCH   6  20
ATOM     20  C   UNL     1      -0.559  -5.291  -0.749  0.00  0.00    +0.091 C 
ATOM     21  C   UNL     1      -0.310  -6.594  -0.981  0.00  0.00    +0.239 C 
ATOM     22  O   UNL     1       0.964  -7.056  -0.947  0.00  0.00    -0.271 OA
BRANCH  21  23
ATOM     23  N   UNL     1      -1.354  -7.461  -1.255  0.00  0.00    -0.309 N 
ATOM     24  H   UNL     1      -2.271  -7.146  -1.207  0.00  0.00    +0.149 HD
BRANCH  23  25
ATOM     25  C   UNL     1      -1.075  -8.852  -1.618  0.00  0.00    +0.136 C 
BRANCH  25  26
ATOM     26  C   UNL     1      -2.383  -9.555  -1.987  0.00  0.00    +0.135 C 
ATOM     27  C   UNL     1      -2.115 -11.040  -2.341  0.00  0.00    +0.035 C 
ATOM     28  C   UNL     1      -3.501 -11.671  -2.037  0.00  0.00    +0.031 C 
ATOM     29  C   UNL     1      -3.988 -10.830  -0.837  0.00  0.00    +0.160 C 
ATOM     30  O   UNL     1      -3.266  -9.592  -0.854  0.00  0.00    -0.375 OA
ENDBRANCH  25  26
ENDBRANCH  23  25
ENDBRANCH  21  23
ENDBRANCH   6  20
BRANCH   3  31
ATOM     31  C   UNL     1      -2.148  -0.243   0.729  0.00  0.00    +0.339 C 
ATOM     32  O   UNL     1      -2.111   0.934   1.040  0.00  0.00    -0.245 OA
BRANCH  31  33
ATOM     33  O   UNL     1      -3.335  -0.886   0.658  0.00  0.00    -0.465 OA
ATOM     34  C   UNL     1      -4.505  -0.123   0.960  0.00  0.00    +0.280 C 
ENDBRANCH  31  33
ENDBRANCH   3  31
TORSDOF 8
