REMARK  Name = ZINC35330527
REMARK  9 active torsions:
REMARK  status: ('A' for Active; 'I' for Inactive)
REMARK    1  A    between atoms: C_1  and  C_2
REMARK    2  A    between atoms: C_2  and  C_3
REMARK    3  A    between atoms: C_3  and  C_5
REMARK    4  A    between atoms: C_3  and  N_6
REMARK    5  A    between atoms: C_7  and  C_9
REMARK    6  A    between atoms: C_9  and  N_10
REMARK    7  A    between atoms: N_12  and  C_34
REMARK    8  A    between atoms: N_23  and  C_24
REMARK    9  A    between atoms: C_27  and  C_30
REMARK                            x       y       z     vdW  Elec       q    Type
REMARK                         _______ _______ _______ _____ _____    ______ ____
ROOT
ATOM      1  N   UNL     1       4.810   0.561  -3.665  0.00  0.00    -0.275 N 
ATOM      2  C   UNL     1       5.448  -0.544  -4.381  0.00  0.00    +0.217 C 
ATOM      3  N   UNL     1       5.822  -0.064  -5.717  0.00  0.00    -0.300 N 
ATOM      4  C   UNL     1       5.394   1.339  -5.775  0.00  0.00    +0.115 C 
ATOM      5  C   UNL     1       4.761   1.654  -4.444  0.00  0.00    +0.241 C 
ATOM      6  O   UNL     1       4.285   2.723  -4.127  0.00  0.00    -0.273 OA
ATOM      7  C   UNL     1       6.604   2.243  -6.012  0.00  0.00    +0.054 C 
ATOM      8  C   UNL     1       7.262   1.870  -7.344  0.00  0.00    +0.112 C 
ATOM      9  N   UNL     1       6.246   1.920  -8.404  0.00  0.00    -0.285 N 
ATOM     10  C   UNL     1       5.009   1.146  -8.235  0.00  0.00    +0.112 C 
ATOM     11  C   UNL     1       4.370   1.526  -6.894  0.00  0.00    +0.054 C 
ATOM     12  C   UNL     1       6.445   2.663  -9.511  0.00  0.00    +0.306 C 
ATOM     13  O   UNL     1       5.561   2.770 -10.339  0.00  0.00    -0.252 OA
ATOM     14  N   UNL     1       7.624   3.287  -9.701  0.00  0.00    -0.269 N 
ATOM     15  H   UNL     1       8.354   3.144  -9.079  0.00  0.00    +0.156 HD
ENDROOT
BRANCH  14  16
ATOM     16  C   UNL     1       7.795   4.142 -10.796  0.00  0.00    +0.035 A 
ATOM     17  C   UNL     1       6.787   4.272 -11.741  0.00  0.00    +0.024 A 
ATOM     18  C   UNL     1       6.958   5.117 -12.820  0.00  0.00    +0.014 A 
ATOM     19  C   UNL     1       8.133   5.832 -12.960  0.00  0.00    +0.055 A 
ATOM     20  C   UNL     1       9.140   5.705 -12.021  0.00  0.00    +0.014 A 
ATOM     21  C   UNL     1       8.972   4.866 -10.936  0.00  0.00    +0.024 A 
BRANCH  19  22
ATOM     22  C   UNL     1       8.317   6.753 -14.139  0.00  0.00    +0.417 C 
ATOM     23  F   UNL     1       7.852   8.031 -13.810  0.00  0.00    -0.166 F 
ATOM     24  F   UNL     1       9.675   6.822 -14.469  0.00  0.00    -0.166 F 
ATOM     25  F   UNL     1       7.596   6.261 -15.232  0.00  0.00    -0.166 F 
ENDBRANCH  19  22
ENDBRANCH  14  16
BRANCH   3  26
ATOM     26  C   UNL     1       6.455  -0.793  -6.727  0.00  0.00    +0.032 A 
ATOM     27  C   UNL     1       6.864  -2.099  -6.490  0.00  0.00    +0.023 A 
ATOM     28  C   UNL     1       7.489  -2.817  -7.490  0.00  0.00    +0.002 A 
ATOM     29  C   UNL     1       7.708  -2.238  -8.727  0.00  0.00    +0.000 A 
ATOM     30  C   UNL     1       7.301  -0.938  -8.966  0.00  0.00    +0.002 A 
ATOM     31  C   UNL     1       6.671  -0.216  -7.972  0.00  0.00    +0.023 A 
ENDBRANCH   3  26
BRANCH   1  32
ATOM     32  C   UNL     1       4.294   0.484  -2.296  0.00  0.00    +0.205 C 
BRANCH  32  34
ATOM     33  N   UNL     1       2.167  -0.095  -1.175  0.00  0.00    -0.311 N 
ATOM     34  C   UNL     1       2.853   0.045  -2.326  0.00  0.00    +0.231 C 
ATOM     35  O   UNL     1       2.310  -0.182  -3.387  0.00  0.00    -0.274 OA
ATOM     36  H   UNL     1       2.600   0.086  -0.327  0.00  0.00    +0.149 HD
BRANCH  33  37
ATOM     37  C   UNL     1       0.765  -0.522  -1.205  0.00  0.00    +0.070 C 
ATOM     38  C   UNL     1       0.699  -2.050  -1.260  0.00  0.00    +0.028 C 
BRANCH  37  40
ATOM     39  C   UNL     1       0.012   1.503   0.049  0.00  0.00    +0.005 C 
ATOM     40  C   UNL     1       0.054  -0.026   0.056  0.00  0.00    +0.018 C 
ENDBRANCH  37  40
ENDBRANCH  33  37
ENDBRANCH  32  34
ENDBRANCH   1  32
TORSDOF 7
