REMARK  Name = ZINC63467762
REMARK  6 active torsions:
REMARK  status: ('A' for Active; 'I' for Inactive)
REMARK    1  A    between atoms: C_1  and  N_2
REMARK    2  A    between atoms: C_5  and  C_21
REMARK    3  A    between atoms: C_11  and  C_12
REMARK    4  A    between atoms: N_23  and  C_24
REMARK    5  A    between atoms: C_24  and  C_25
REMARK    6  A    between atoms: C_25  and  C_26
REMARK                            x       y       z     vdW  Elec       q    Type
REMARK                         _______ _______ _______ _____ _____    ______ ____
ROOT
ATOM      1  C   UNL     1      -0.124   1.418  -0.236  0.00  0.00    +0.138 C 
ATOM      2  N   UNL     1      -0.080  -0.045  -0.299  0.00  0.00    -0.269 N 
ATOM      3  C   UNL     1      -1.286  -0.696  -0.533  0.00  0.00    +0.051 A 
ATOM      4  C   UNL     1      -2.327   0.027  -1.103  0.00  0.00    +0.037 A 
ATOM      5  C   UNL     1      -3.554  -0.586  -1.356  0.00  0.00    +0.039 A 
ATOM      6  C   UNL     1      -3.746  -1.934  -1.039  0.00  0.00    +0.014 A 
ATOM      7  C   UNL     1      -2.717  -2.654  -0.474  0.00  0.00    +0.017 A 
ATOM      8  C   UNL     1      -1.495  -2.043  -0.220  0.00  0.00    +0.034 A 
ATOM      9  S   UNL     1      -0.182  -2.975   0.511  0.00  0.00    -0.082 S 
ATOM     10  C   UNL     1       1.242  -2.090  -0.070  0.00  0.00    +0.076 C 
ATOM     11  C   UNL     1       2.380  -2.726  -0.439  0.00  0.00    +0.031 C 
ATOM     12  C   UNL     1       1.115  -0.617  -0.133  0.00  0.00    +0.257 C 
ATOM     13  O   UNL     1       2.108   0.079  -0.028  0.00  0.00    -0.269 OA
ENDROOT
BRANCH  11  14
ATOM     14  C   UNL     1       2.516  -4.173  -0.223  0.00  0.00    +0.011 A 
ATOM     15  C   UNL     1       1.926  -4.777   0.893  0.00  0.00    +0.011 A 
ATOM     16  C   UNL     1       2.058  -6.135   1.089  0.00  0.00    +0.001 A 
ATOM     17  C   UNL     1       2.772  -6.903   0.185  0.00  0.00    +0.003 A 
ATOM     18  C   UNL     1       3.359  -6.317  -0.921  0.00  0.00    +0.039 A 
ATOM     19  C   UNL     1       3.232  -4.958  -1.137  0.00  0.00    +0.131 A 
ATOM     20  F   UNL     1       3.800  -4.387  -2.221  0.00  0.00    -0.205 F 
ENDBRANCH  11  14
BRANCH   5  21
ATOM     21  C   UNL     1      -4.653   0.191  -1.960  0.00  0.00    +0.244 C 
ATOM     22  O   UNL     1      -4.489   1.363  -2.237  0.00  0.00    -0.270 OA
ATOM     23  N   UNL     1      -5.840  -0.400  -2.206  0.00  0.00    -0.311 N 
ATOM     24  H   UNL     1      -5.971  -1.335  -1.986  0.00  0.00    +0.149 HD
BRANCH  23  25
ATOM     25  C   UNL     1      -6.931   0.372  -2.806  0.00  0.00    +0.109 C 
BRANCH  25  26
ATOM     26  C   UNL     1      -8.157  -0.528  -2.977  0.00  0.00    +0.052 C 
BRANCH  26  27
ATOM     27  C   UNL     1      -9.280   0.266  -3.595  0.00  0.00    -0.040 C 
ATOM     28  C   UNL     1      -9.602   0.334  -4.907  0.00  0.00    -0.001 A 
ATOM     29  C   UNL     1      -9.025  -0.286  -6.106  0.00  0.00    +0.010 A 
ATOM     30  C   UNL     1      -9.578  -0.021  -7.311  0.00  0.00    +0.001 A 
ATOM     31  C   UNL     1     -10.685   0.828  -7.444  0.00  0.00    +0.002 A 
ATOM     32  C   UNL     1     -11.270   1.434  -6.389  0.00  0.00    +0.026 A 
ATOM     33  C   UNL     1     -10.771   1.226  -5.074  0.00  0.00    +0.043 A 
ATOM     34  N   UNL     1     -11.157   1.692  -3.911  0.00  0.00    -0.380 N 
ATOM     35  C   UNL     1     -10.278   1.142  -2.872  0.00  0.00    +0.144 C 
ATOM     36  H   UNL     1     -11.901   2.296  -3.761  0.00  0.00    +0.160 HD
ENDBRANCH  26  27
ENDBRANCH  25  26
ENDBRANCH  23  25
ENDBRANCH   5  21
TORSDOF 5
