REMARK  Name = ZINC51634303
REMARK  3 active torsions:
REMARK  status: ('A' for Active; 'I' for Inactive)
REMARK    1  A    between atoms: C_9  and  N_12
REMARK    2  A    between atoms: C_13  and  C_15
REMARK    3  A    between atoms: N_21  and  N_22
REMARK                            x       y       z     vdW  Elec       q    Type
REMARK                         _______ _______ _______ _____ _____    ______ ____
ROOT
ATOM      1  N   UNL     1       4.868  -2.832  -0.260  0.00  0.00    -0.308 N 
ATOM      2  C   UNL     1       5.823  -2.792  -1.211  0.00  0.00    +0.246 C 
ATOM      3  O   UNL     1       5.631  -2.173  -2.240  0.00  0.00    -0.270 OA
ATOM      4  H   UNL     1       5.021  -3.325   0.561  0.00  0.00    +0.149 HD
ENDROOT
BRANCH   1  13
ATOM      5  C   UNL     1      -0.017   1.375   0.010  0.00  0.00    +0.000 A 
ATOM      6  C   UNL     1       1.174   2.078   0.002  0.00  0.00    +0.000 A 
ATOM      7  C   UNL     1       2.372   1.395  -0.010  0.00  0.00    +0.004 A 
ATOM      8  C   UNL     1       2.393   0.006  -0.017  0.00  0.00    -0.042 A 
ATOM      9  C   UNL     1       1.208  -0.694  -0.015  0.00  0.00    -0.044 A 
ATOM     10  C   UNL     1       0.002  -0.004   0.002  0.00  0.00    +0.004 A 
ATOM     11  C   UNL     1       1.155  -2.199  -0.038  0.00  0.00    +0.037 C 
ATOM     12  C   UNL     1       2.501  -2.790   0.375  0.00  0.00    +0.027 C 
ATOM     13  C   UNL     1       3.599  -2.130  -0.467  0.00  0.00    +0.078 C 
ATOM     14  C   UNL     1       3.737  -0.675  -0.023  0.00  0.00    +0.057 C 
ENDBRANCH   1  13
BRANCH   2  15
ATOM     15  C   UNL     1       7.101  -3.499  -1.003  0.00  0.00    +0.055 A 
ATOM     16  C   UNL     1       8.104  -3.459  -1.984  0.00  0.00    +0.018 A 
ATOM     17  C   UNL     1       9.274  -4.129  -1.748  0.00  0.00    +0.045 A 
ATOM     18  C   UNL     1       9.434  -4.826  -0.552  0.00  0.00    +0.132 A 
ATOM     19  N   UNL     1       8.470  -4.848   0.358  0.00  0.00    -0.239 NA
ATOM     20  C   UNL     1       7.332  -4.212   0.174  0.00  0.00    +0.126 A 
ATOM     21  N   UNL     1      10.617  -5.505  -0.311  0.00  0.00    -0.268 N 
ATOM     22  H   UNL     1      11.326  -5.494  -0.972  0.00  0.00    +0.167 HD
BRANCH  21  23
ATOM     23  N   UNL     1      10.784  -6.191   0.859  0.00  0.00    -0.255 NA
ATOM     24  H   UNL     1      11.690  -6.633   0.892  0.00  0.00    +0.140 HD
ATOM     25  H   UNL     1      10.646  -5.587   1.655  0.00  0.00    +0.140 HD
ENDBRANCH  21  23
ENDBRANCH   2  15
TORSDOF 3
