REMARK  Name = ZINC40149602
REMARK  6 active torsions:
REMARK  status: ('A' for Active; 'I' for Inactive)
REMARK    1  A    between atoms: C_1  and  C_2
REMARK    2  A    between atoms: C_5  and  C_29
REMARK    3  A    between atoms: C_6  and  N_8
REMARK    4  A    between atoms: C_9  and  C_11
REMARK    5  A    between atoms: C_11  and  N_12
REMARK    6  A    between atoms: C_16  and  C_19
REMARK                            x       y       z     vdW  Elec       q    Type
REMARK                         _______ _______ _______ _____ _____    ______ ____
ROOT
ATOM      1  N   UNL     1       0.373  -1.956   5.975  0.00  0.00    +0.386 N 
ATOM      2  C   UNL     1      -0.885  -1.206   6.083  0.00  0.00    -0.078 C 
ATOM      3  C   UNL     1      -0.768  -0.165   7.198  0.00  0.00    -0.018 C 
ATOM      4  C   UNL     1      -0.481  -0.875   8.524  0.00  0.00    +0.009 C 
ATOM      5  C   UNL     1       0.793  -1.714   8.377  0.00  0.00    +0.059 C 
ATOM      6  C   UNL     1       0.618  -2.697   7.218  0.00  0.00    -0.065 C 
ATOM      7  H   UNL     1       1.133  -1.312   5.812  0.00  0.00    -0.081 HD
ENDROOT
BRANCH   5   8
ATOM      8  C   UNL     1       1.043  -2.477   9.652  0.00  0.00    +0.220 C 
ATOM      9  O   UNL     1       1.082  -3.689   9.636  0.00  0.00    -0.275 OA
ATOM     10  N   UNL     1       1.223  -1.812  10.811  0.00  0.00    -0.270 N 
ATOM     11  C   UNL     1       1.558  -2.510  11.970  0.00  0.00    +0.125 A 
ATOM     12  C   UNL     1       1.845  -1.811  13.137  0.00  0.00    +0.045 A 
ATOM     13  C   UNL     1       2.176  -2.515  14.280  0.00  0.00    +0.020 A 
ATOM     14  C   UNL     1       2.208  -3.903  14.218  0.00  0.00    +0.036 A 
ATOM     15  C   UNL     1       1.911  -4.532  13.024  0.00  0.00    +0.128 A 
ATOM     16  N   UNL     1       1.595  -3.833  11.951  0.00  0.00    -0.239 NA
ATOM     17 BR   UNL     1       2.654  -4.918  15.749  0.00  0.00    -0.049 Br
ATOM     18  H   UNL     1       1.119  -0.848  10.838  0.00  0.00    +0.156 HD
ENDBRANCH   5   8
BRANCH   1  19
ATOM     19  C   UNL     1       0.283  -2.900   4.853  0.00  0.00    +0.019 C 
BRANCH  19  21
ATOM     20  N   UNL     1       0.057  -2.797   2.392  0.00  0.00    -0.287 N 
ATOM     21  C   UNL     1       0.154  -2.134   3.561  0.00  0.00    +0.201 C 
ATOM     22  O   UNL     1       0.138  -0.921   3.574  0.00  0.00    -0.278 OA
ATOM     23  H   UNL     1      -0.011  -3.764   2.387  0.00  0.00    +0.155 HD
BRANCH  20  29
ATOM     24  C   UNL     1       1.270   1.228  -0.158  0.00  0.00    +0.044 C 
ATOM     25  C   UNL     1       0.633  -0.136  -0.079  0.00  0.00    -0.049 A 
ATOM     26  C   UNL     1       0.045  -0.689  -1.202  0.00  0.00    +0.004 A 
ATOM     27  C   UNL     1      -0.539  -1.940  -1.134  0.00  0.00    +0.005 A 
ATOM     28  C   UNL     1      -0.537  -2.642   0.056  0.00  0.00    -0.029 A 
ATOM     29  C   UNL     1       0.053  -2.089   1.185  0.00  0.00    +0.036 A 
ATOM     30  C   UNL     1       0.644  -0.834   1.112  0.00  0.00    +0.027 A 
ATOM     31  C   UNL     1      -1.175  -4.005   0.129  0.00  0.00    +0.045 C 
ENDBRANCH  20  29
ENDBRANCH  19  21
ENDBRANCH   1  19
TORSDOF 4
