REMARK  Name = ZINC09012989
REMARK  12 active torsions:
REMARK  status: ('A' for Active; 'I' for Inactive)
REMARK    1  A    between atoms: C_1  and  O_2
REMARK    2  A    between atoms: O_2  and  C_3
REMARK    3  A    between atoms: C_5  and  C_11
REMARK    4  A    between atoms: C_8  and  O_9
REMARK    5  A    between atoms: N_12  and  N_13
REMARK    6  A    between atoms: C_14  and  C_20
REMARK    7  A    between atoms: C_22  and  O_30
REMARK    8  A    between atoms: C_23  and  O_28
REMARK    9  A    between atoms: C_24  and  O_26
REMARK   10  A    between atoms: O_26  and  C_27
REMARK   11  A    between atoms: O_28  and  C_29
REMARK   12  A    between atoms: O_30  and  C_31
REMARK                            x       y       z     vdW  Elec       q    Type
REMARK                         _______ _______ _______ _____ _____    ______ ____
ROOT
ATOM      1  N   UNL     1      -1.074  -0.825  -0.277  0.00  0.00    -0.188 N 
ATOM      2  C   UNL     1       0.002  -0.004   0.002  0.00  0.00    +0.184 A 
ATOM      3  N   UNL     1       1.037  -0.754   0.263  0.00  0.00    -0.152 NA
ATOM      4  N   UNL     1       0.642  -2.094   0.149  0.00  0.00    -0.253 N 
ATOM      5  H   UNL     1       1.206  -2.871   0.288  0.00  0.00    +0.191 HD
ATOM      6  C   UNL     1      -0.663  -2.105  -0.188  0.00  0.00    +0.197 A 
ATOM      7  S   UNL     1      -1.627  -3.496  -0.449  0.00  0.00    -0.010 S 
ENDROOT
BRANCH   2   8
ATOM      8  C   UNL     1      -0.018   1.475   0.010  0.00  0.00    +0.028 A 
ATOM      9  C   UNL     1      -1.235   2.157   0.020  0.00  0.00    +0.061 A 
ATOM     10  C   UNL     1      -1.251   3.541   0.032  0.00  0.00    +0.166 A 
ATOM     11  C   UNL     1      -0.056   4.252   0.025  0.00  0.00    +0.204 A 
ATOM     12  C   UNL     1       1.159   3.574   0.010  0.00  0.00    +0.166 A 
ATOM     13  C   UNL     1       1.180   2.190   0.003  0.00  0.00    +0.061 A 
BRANCH  12  14
ATOM     14  O   UNL     1       2.326   4.271   0.002  0.00  0.00    -0.491 OA
ATOM     15  C   UNL     1       3.536   3.511  -0.014  0.00  0.00    +0.277 C 
ENDBRANCH  12  14
BRANCH  11  16
ATOM     16  O   UNL     1      -0.074   5.612   0.031  0.00  0.00    -0.488 OA
ATOM     17  C   UNL     1      -0.095   6.266  -1.239  0.00  0.00    +0.277 C 
ENDBRANCH  11  16
BRANCH  10  18
ATOM     18  O   UNL     1      -2.437   4.206   0.046  0.00  0.00    -0.491 OA
ATOM     19  C   UNL     1      -3.626   3.413   0.054  0.00  0.00    +0.277 C 
ENDBRANCH  10  18
ENDBRANCH   2   8
BRANCH   1  21
ATOM     20  C   UNL     1      -2.694  -0.192  -1.841  0.00  0.00    +0.141 C 
ATOM     21  N   UNL     1      -2.369  -0.398  -0.601  0.00  0.00    -0.171 NA
BRANCH  20  24
ATOM     22  C   UNL     1      -5.686   0.900  -3.829  0.00  0.00    +0.163 A 
ATOM     23  C   UNL     1      -4.407   0.480  -3.515  0.00  0.00    +0.059 A 
ATOM     24  C   UNL     1      -4.056   0.257  -2.181  0.00  0.00    -0.001 A 
ATOM     25  C   UNL     1      -5.001   0.454  -1.171  0.00  0.00    +0.028 A 
ATOM     26  C   UNL     1      -6.274   0.879  -1.491  0.00  0.00    +0.063 A 
ATOM     27  C   UNL     1      -6.622   1.100  -2.817  0.00  0.00    +0.173 A 
ATOM     28 BR   UNL     1      -7.550   1.153  -0.122  0.00  0.00    -0.046 Br
BRANCH  22  30
ATOM     29  C   UNL     1      -5.021   0.893  -6.112  0.00  0.00    +0.277 C 
ATOM     30  O   UNL     1      -6.031   1.118  -5.126  0.00  0.00    -0.491 OA
ENDBRANCH  22  30
BRANCH  27  31
ATOM     31  O   UNL     1      -7.879   1.514  -3.128  0.00  0.00    -0.503 OA
ATOM     32  H   UNL     1      -8.501   0.792  -3.291  0.00  0.00    +0.292 HD
ENDBRANCH  27  31
ENDBRANCH  20  24
ENDBRANCH   1  21
TORSDOF 8
