REMARK  Name = ZINC38656203
REMARK  6 active torsions:
REMARK  status: ('A' for Active; 'I' for Inactive)
REMARK    1  A    between atoms: C_3  and  C_6
REMARK    2  A    between atoms: C_11  and  O_20
REMARK    3  A    between atoms: C_15  and  N_19
REMARK    4  A    between atoms: C_16  and  C_17
REMARK    5  A    between atoms: O_20  and  C_21
REMARK    6  A    between atoms: C_21  and  C_23
REMARK                            x       y       z     vdW  Elec       q    Type
REMARK                         _______ _______ _______ _____ _____    ______ ____
ROOT
ATOM      1  C   UNL     1       3.710   1.867  -0.061  0.00  0.00    +0.105 C 
ATOM      2  C   UNL     1       4.420   1.374  -1.294  0.00  0.00    +0.008 A 
ATOM      3  C   UNL     1       4.092   1.910  -2.527  0.00  0.00    +0.012 A 
ATOM      4  C   UNL     1       4.732   1.470  -3.669  0.00  0.00    +0.047 A 
ATOM      5  C   UNL     1       5.709   0.488  -3.583  0.00  0.00    +0.135 A 
ATOM      6  C   UNL     1       6.040  -0.050  -2.350  0.00  0.00    +0.093 A 
ATOM      7  C   UNL     1       5.394   0.393  -1.202  0.00  0.00    +0.138 A 
ATOM      8  O   UNL     1       5.730  -0.144  -0.003  0.00  0.00    -0.441 OA
ATOM      9  C   UNL     1       5.426   0.508   1.132  0.00  0.00    +0.199 C 
ATOM     10  C   UNL     1       4.478   1.470   1.169  0.00  0.00    +0.098 C 
ENDROOT
BRANCH   1  13
ATOM     11  C   UNL     1      -0.023   1.120   0.058  0.00  0.00    +0.008 A 
ATOM     12  C   UNL     1       1.126   1.885   0.001  0.00  0.00    +0.012 A 
ATOM     13  C   UNL     1       2.331   1.263  -0.004  0.00  0.00    +0.002 A 
ATOM     14  S   UNL     1       1.858  -0.457   0.073  0.00  0.00    -0.101 S 
ATOM     15  C   UNL     1       0.088  -0.230   0.107  0.00  0.00    +0.045 A 
ENDBRANCH   1  13
BRANCH   9  16
ATOM     16  N   UNL     1       6.096   0.187   2.285  0.00  0.00    -0.328 N 
ATOM     17  H   UNL     1       6.779  -0.503   2.273  0.00  0.00    +0.145 HD
ATOM     18  H   UNL     1       5.888   0.648   3.112  0.00  0.00    +0.145 HD
ENDBRANCH   9  16
BRANCH  10  19
ATOM     19  C   UNL     1       4.201   2.127   2.411  0.00  0.00    +0.101 C 
ATOM     20  N   UNL     1       3.981   2.649   3.396  0.00  0.00    -0.191 NA
ENDBRANCH  10  19
BRANCH   5  21
ATOM     21  O   UNL     1       6.339   0.055  -4.706  0.00  0.00    -0.422 OA
BRANCH  21  22
ATOM     22  C   UNL     1       7.181   0.904  -5.327  0.00  0.00    +0.344 C 
ATOM     23  O   UNL     1       7.438   1.980  -4.824  0.00  0.00    -0.245 OA
BRANCH  22  24
ATOM     24  C   UNL     1       7.791   0.527  -6.617  0.00  0.00    +0.060 A 
ATOM     25  C   UNL     1       7.493  -0.707  -7.199  0.00  0.00    +0.018 A 
ATOM     26  C   UNL     1       8.066  -1.053  -8.404  0.00  0.00    +0.039 A 
ATOM     27  C   UNL     1       8.936  -0.179  -9.038  0.00  0.00    +0.123 A 
ATOM     28  C   UNL     1       9.235   1.047  -8.464  0.00  0.00    +0.039 A 
ATOM     29  C   UNL     1       8.664   1.406  -7.263  0.00  0.00    +0.018 A 
ATOM     30  F   UNL     1       9.494  -0.524 -10.219  0.00  0.00    -0.205 F 
ENDBRANCH  22  24
ENDBRANCH  21  22
ENDBRANCH   5  21
TORSDOF 6
