REMARK  Name = ZINC45936509
REMARK  7 active torsions:
REMARK  status: ('A' for Active; 'I' for Inactive)
REMARK    1  A    between atoms: C_1  and  C_2
REMARK    2  A    between atoms: C_3  and  C_8
REMARK    3  A    between atoms: C_5  and  C_7
REMARK    4  A    between atoms: C_11  and  S_13
REMARK    5  A    between atoms: S_13  and  C_14
REMARK    6  A    between atoms: C_14  and  C_15
REMARK    7  A    between atoms: C_25  and  C_29
REMARK                            x       y       z     vdW  Elec       q    Type
REMARK                         _______ _______ _______ _____ _____    ______ ____
ROOT
ATOM      1  C   UNL     1      -0.091   1.093  -8.908  0.00  0.00    +0.143 A 
ATOM      2  N   UNL     1       1.060   0.979  -9.548  0.00  0.00    -0.216 NA
ATOM      3  C   UNL     1       1.152   0.404 -10.736  0.00  0.00    +0.128 A 
ATOM      4  C   UNL     1      -0.024  -0.113 -11.348  0.00  0.00    +0.051 A 
ATOM      5  C   UNL     1      -0.165  -0.784 -12.641  0.00  0.00    -0.025 A 
ATOM      6  C   UNL     1      -1.405  -1.180 -12.992  0.00  0.00    -0.004 A 
ATOM      7  S   UNL     1      -2.447  -0.691 -11.644  0.00  0.00    -0.073 S 
ATOM      8  C   UNL     1      -1.212   0.046 -10.606  0.00  0.00    +0.114 A 
ATOM      9  N   UNL     1      -1.213   0.630  -9.423  0.00  0.00    -0.224 NA
ATOM     10  C   UNL     1      -1.811  -1.884 -14.252  0.00  0.00    +0.046 C 
ATOM     11  C   UNL     1      -0.546  -2.427 -14.932  0.00  0.00    -0.009 C 
ATOM     12  C   UNL     1       0.505  -1.313 -14.975  0.00  0.00    +0.008 C 
ATOM     13  C   UNL     1       1.024  -1.035 -13.564  0.00  0.00    +0.037 C 
ATOM     14  C   UNL     1      -0.881  -2.875 -16.356  0.00  0.00    +0.008 C 
ATOM     15  N   UNL     1       2.375   0.305 -11.373  0.00  0.00    -0.343 N 
ATOM     16  H   UNL     1       2.486  -0.306 -12.118  0.00  0.00    +0.144 HD
ATOM     17  H   UNL     1       3.122   0.847 -11.076  0.00  0.00    +0.144 HD
ENDROOT
BRANCH   1  18
ATOM     18  C   UNL     1      -0.120   1.760  -7.557  0.00  0.00    +0.155 C 
BRANCH  18  19
ATOM     19  S   UNL     1       0.146   0.517  -6.263  0.00  0.00    -0.058 S 
BRANCH  19  23
ATOM     20  C   UNL     1       0.113   2.004  -2.679  0.00  0.00    +0.258 A 
ATOM     21  N   UNL     1      -0.095   3.070  -3.416  0.00  0.00    -0.106 NA
ATOM     22  N   UNL     1      -0.112   2.735  -4.658  0.00  0.00    -0.101 NA
ATOM     23  C   UNL     1       0.085   1.442  -4.764  0.00  0.00    +0.278 A 
ATOM     24  O   UNL     1       0.236   0.952  -3.518  0.00  0.00    -0.410 OA
BRANCH  20  27
ATOM     25  C   UNL     1      -0.166   4.405  -0.721  0.00  0.00    +0.067 C 
ATOM     26  C   UNL     1       0.088   2.982  -0.295  0.00  0.00    +0.058 A 
ATOM     27  C   UNL     1       0.201   1.963  -1.211  0.00  0.00    +0.098 A 
ATOM     28  S   UNL     1       0.486   0.576  -0.123  0.00  0.00    -0.067 S 
ATOM     29  C   UNL     1       0.432   1.412   1.337  0.00  0.00    +0.076 A 
ATOM     30  N   UNL     1       0.216   2.652   0.970  0.00  0.00    -0.249 NA
ATOM     31  C   UNL     1       0.598   0.866   2.732  0.00  0.00    +0.073 C 
ENDBRANCH  20  27
ENDBRANCH  19  23
ENDBRANCH  18  19
ENDBRANCH   1  18
TORSDOF 4
