REMARK  Name = ZINC33113282
REMARK  5 active torsions:
REMARK  status: ('A' for Active; 'I' for Inactive)
REMARK    1  A    between atoms: C_1  and  C_2
REMARK    2  A    between atoms: C_5  and  N_8
REMARK    3  A    between atoms: C_9  and  C_11
REMARK    4  A    between atoms: C_14  and  C_16
REMARK    5  A    between atoms: N_25  and  C_26
REMARK                            x       y       z     vdW  Elec       q    Type
REMARK                         _______ _______ _______ _____ _____    ______ ____
ROOT
ATOM      1  C   UNL     1       2.419   2.452  -5.438  0.00  0.00    +0.187 A 
ATOM      2  N   UNL     1       2.936   2.825  -4.270  0.00  0.00    -0.136 NA
ATOM      3  N   UNL     1       2.208   2.876  -3.240  0.00  0.00    -0.145 NA
ATOM      4  C   UNL     1       0.923   2.568  -3.273  0.00  0.00    +0.107 A 
ATOM      5  S   UNL     1       0.725   2.152  -4.950  0.00  0.00    -0.046 S 
ENDROOT
BRANCH   4   6
ATOM      6  C   UNL     1      -0.092   2.570  -2.159  0.00  0.00    +0.064 C 
ATOM      7  C   UNL     1       0.352   1.599  -1.062  0.00  0.00    +0.013 C 
ATOM      8  C   UNL     1      -0.695   1.575   0.054  0.00  0.00    +0.020 C 
ATOM      9  C   UNL     1      -0.815   2.974   0.666  0.00  0.00    +0.109 C 
ATOM     10  N   UNL     1      -1.099   3.937  -0.407  0.00  0.00    -0.285 N 
ATOM     11  C   UNL     1      -0.205   3.980  -1.572  0.00  0.00    +0.119 C 
ATOM     12  C   UNL     1      -2.159   4.765  -0.324  0.00  0.00    +0.306 C 
ATOM     13  O   UNL     1      -2.332   5.619  -1.172  0.00  0.00    -0.252 OA
ATOM     14  N   UNL     1      -3.029   4.646   0.699  0.00  0.00    -0.269 N 
ATOM     15  H   UNL     1      -2.808   3.962   1.531  0.00  0.00    +0.156 HD
BRANCH  14  16
ATOM     16  C   UNL     1      -4.212   5.393   0.702  0.00  0.00    +0.035 A 
ATOM     17  C   UNL     1      -4.841   5.705  -0.496  0.00  0.00    +0.023 A 
ATOM     18  C   UNL     1      -6.012   6.438  -0.489  0.00  0.00    +0.002 A 
ATOM     19  C   UNL     1      -6.551   6.871   0.708  0.00  0.00    +0.000 A 
ATOM     20  C   UNL     1      -5.924   6.567   1.902  0.00  0.00    +0.002 A 
ATOM     21  C   UNL     1      -4.756   5.830   1.903  0.00  0.00    +0.023 A 
ENDBRANCH  14  16
ENDBRANCH   4   6
BRANCH   1  23
ATOM     22  N   UNL     1       4.373   2.597  -6.899  0.00  0.00    -0.280 N 
ATOM     23  C   UNL     1       3.061   2.319  -6.756  0.00  0.00    +0.275 C 
ATOM     24  O   UNL     1       2.408   1.960  -7.717  0.00  0.00    -0.268 OA
ATOM     25  H   UNL     1       4.947   2.988  -6.046  0.00  0.00    +0.155 HD
BRANCH  22  30
ATOM     26  C   UNL     1       6.927   1.745 -11.891  0.00  0.00    +0.044 C 
ATOM     27  C   UNL     1       6.248   1.971 -10.565  0.00  0.00    -0.050 A 
ATOM     28  C   UNL     1       4.938   2.413 -10.526  0.00  0.00    +0.005 A 
ATOM     29  C   UNL     1       4.314   2.621  -9.312  0.00  0.00    +0.023 A 
ATOM     30  C   UNL     1       5.002   2.386  -8.129  0.00  0.00    +0.034 A 
ATOM     31  C   UNL     1       6.320   1.948  -8.171  0.00  0.00    +0.023 A 
ATOM     32  C   UNL     1       6.937   1.736  -9.389  0.00  0.00    +0.005 A 
ENDBRANCH  22  30
ENDBRANCH   1  23
TORSDOF 4
