REMARK  Name = ZINC21089612
REMARK  11 active torsions:
REMARK  status: ('A' for Active; 'I' for Inactive)
REMARK    1  A    between atoms: C_1  and  C_2
REMARK    2  A    between atoms: N_4  and  C_5
REMARK    3  A    between atoms: C_8  and  N_11
REMARK    4  A    between atoms: C_12  and  C_14
REMARK    5  A    between atoms: N_17  and  C_32
REMARK    6  A    between atoms: C_18  and  C_19
REMARK    7  A    between atoms: C_25  and  O_27
REMARK    8  A    between atoms: O_27  and  C_28
REMARK    9  A    between atoms: C_28  and  C_29
REMARK   10  A    between atoms: C_28  and  C_30
REMARK   11  A    between atoms: C_28  and  C_31
REMARK                            x       y       z     vdW  Elec       q    Type
REMARK                         _______ _______ _______ _____ _____    ______ ____
ROOT
ATOM      1  C   UNL     1       1.667  -4.459   0.924  0.00  0.00    +0.078 A 
ATOM      2  C   UNL     1       0.520  -5.273   0.781  0.00  0.00    +0.148 A 
ATOM      3  N   UNL     1       0.915  -6.512   0.672  0.00  0.00    -0.174 NA
ATOM      4  N   UNL     1       2.312  -6.551   0.739  0.00  0.00    -0.236 N 
ATOM      5  C   UNL     1       2.767  -5.293   0.887  0.00  0.00    +0.060 A 
ENDROOT
BRANCH   5   6
ATOM      6  C   UNL     1       4.210  -4.873   0.997  0.00  0.00    +0.042 C 
ATOM      7  C   UNL     1       4.427  -4.133   2.319  0.00  0.00    +0.029 C 
ATOM      8  C   UNL     1       5.902  -3.738   2.442  0.00  0.00    +0.112 C 
ATOM      9  N   UNL     1       6.286  -2.969   1.251  0.00  0.00    -0.267 N 
ATOM     10  C   UNL     1       6.038  -3.550  -0.076  0.00  0.00    +0.112 C 
ATOM     11  C   UNL     1       4.561  -3.948  -0.171  0.00  0.00    +0.029 C 
ATOM     12  C   UNL     1       6.856  -1.754   1.372  0.00  0.00    +0.403 C 
ATOM     13  O   UNL     1       7.170  -1.128   0.379  0.00  0.00    -0.226 OA
BRANCH  12  14
ATOM     14  O   UNL     1       7.079  -1.234   2.594  0.00  0.00    -0.445 OA
BRANCH  14  15
ATOM     15  C   UNL     1       7.696   0.080   2.648  0.00  0.00    +0.107 C 
ATOM     16  C   UNL     1       6.805   1.092   1.926  0.00  0.00    +0.055 C 
ATOM     17  C   UNL     1       7.867   0.502   4.109  0.00  0.00    +0.055 C 
ATOM     18  C   UNL     1       9.065   0.028   1.968  0.00  0.00    +0.055 C 
ENDBRANCH  14  15
ENDBRANCH  12  14
ENDBRANCH   5   6
BRANCH   4  19
ATOM     19  C   UNL     1       3.105  -7.705   0.659  0.00  0.00    +0.066 A 
ATOM     20  C   UNL     1       4.239  -7.715  -0.141  0.00  0.00    +0.030 A 
ATOM     21  C   UNL     1       5.021  -8.851  -0.214  0.00  0.00    +0.040 A 
ATOM     22  C   UNL     1       4.669  -9.982   0.503  0.00  0.00    +0.124 A 
ATOM     23  C   UNL     1       3.535  -9.976   1.297  0.00  0.00    +0.040 A 
ATOM     24  C   UNL     1       2.753  -8.840   1.377  0.00  0.00    +0.030 A 
ATOM     25  F   UNL     1       5.433 -11.094   0.426  0.00  0.00    -0.205 F 
ENDBRANCH   4  19
BRANCH   1  27
ATOM     26  N   UNL     1       0.528  -2.313   1.192  0.00  0.00    -0.281 N 
ATOM     27  C   UNL     1       1.686  -2.993   1.076  0.00  0.00    +0.252 C 
ATOM     28  O   UNL     1       2.746  -2.397   1.097  0.00  0.00    -0.270 OA
ATOM     29  H   UNL     1      -0.425  -2.857   1.266  0.00  0.00    +0.155 HD
BRANCH  26  33
ATOM     30  C   UNL     1       0.559   1.856   1.276  0.00  0.00    +0.033 A 
ATOM     31  C   UNL     1       1.510   1.169   0.532  0.00  0.00    +0.025 A 
ATOM     32  C   UNL     1       1.499  -0.211   0.504  0.00  0.00    +0.025 A 
ATOM     33  C   UNL     1       0.538  -0.913   1.220  0.00  0.00    +0.034 A 
ATOM     34  C   UNL     1      -0.412  -0.226   1.964  0.00  0.00    +0.025 A 
ATOM     35  C   UNL     1      -0.402   1.154   1.992  0.00  0.00    +0.025 A 
BRANCH  30  39
ATOM     36  C   UNL     1       1.084   5.450   0.284  0.00  0.00    +0.109 C 
ATOM     37  C   UNL     1       0.963   3.950   0.218  0.00  0.00    +0.214 C 
ATOM     38  O   UNL     1       1.219   3.366  -0.814  0.00  0.00    -0.276 OA
ATOM     39  N   UNL     1       0.570   3.256   1.305  0.00  0.00    -0.286 N 
ATOM     40  H   UNL     1       0.258   3.790   2.215  0.00  0.00    +0.155 HD
ENDBRANCH  30  39
ENDBRANCH  26  33
ENDBRANCH   1  27
TORSDOF 7
