REMARK  Name = ZINC02502491
REMARK  9 active torsions:
REMARK  status: ('A' for Active; 'I' for Inactive)
REMARK    1  A    between atoms: C_1  and  O_2
REMARK    2  A    between atoms: O_2  and  C_3
REMARK    3  A    between atoms: C_5  and  C_13
REMARK    4  A    between atoms: C_7  and  O_11
REMARK    5  A    between atoms: C_8  and  O_9
REMARK    6  A    between atoms: O_9  and  C_10
REMARK    7  A    between atoms: O_11  and  C_12
REMARK    8  A    between atoms: C_22  and  N_26
REMARK    9  A    between atoms: C_23  and  C_24
REMARK                            x       y       z     vdW  Elec       q    Type
REMARK                         _______ _______ _______ _____ _____    ______ ____
ROOT
ATOM      1  C   UNL     1       2.402   0.386  -4.230  0.00  0.00    +0.098 C 
ATOM      2  C   UNL     1       3.874   0.085  -4.321  0.00  0.00    +0.011 A 
ATOM      3  C   UNL     1       4.736   0.614  -3.376  0.00  0.00    +0.057 A 
ATOM      4  C   UNL     1       6.093   0.348  -3.443  0.00  0.00    +0.167 A 
ATOM      5  C   UNL     1       6.593  -0.455  -4.466  0.00  0.00    +0.170 A 
ATOM      6  C   UNL     1       5.730  -0.982  -5.411  0.00  0.00    +0.096 A 
ATOM      7  C   UNL     1       4.368  -0.714  -5.340  0.00  0.00    +0.138 A 
ATOM      8  O   UNL     1       3.538  -1.241  -6.275  0.00  0.00    -0.441 OA
ATOM      9  C   UNL     1       2.321  -0.706  -6.468  0.00  0.00    +0.199 C 
ATOM     10  C   UNL     1       1.729   0.073  -5.537  0.00  0.00    +0.098 C 
ATOM     11  O   UNL     1       7.945  -0.565  -4.314  0.00  0.00    -0.452 OA
ATOM     12  C   UNL     1       8.321   0.507  -3.429  0.00  0.00    +0.466 C 
ATOM     13  O   UNL     1       7.133   0.740  -2.649  0.00  0.00    -0.453 OA
ENDROOT
BRANCH   1  16
ATOM     14  C   UNL     1       0.606  -0.608  -1.056  0.00  0.00    +0.165 A 
ATOM     15  C   UNL     1       1.173   0.160  -2.063  0.00  0.00    +0.054 A 
ATOM     16  C   UNL     1       1.787  -0.452  -3.139  0.00  0.00    -0.028 A 
ATOM     17  C   UNL     1       1.839  -1.831  -3.217  0.00  0.00    +0.054 A 
ATOM     18  C   UNL     1       1.275  -2.606  -2.215  0.00  0.00    +0.165 A 
ATOM     19  C   UNL     1       0.661  -1.994  -1.128  0.00  0.00    +0.204 A 
BRANCH  14  21
ATOM     20  C   UNL     1      -0.017   1.425   0.010  0.00  0.00    +0.277 C 
ATOM     21  O   UNL     1       0.002  -0.004   0.002  0.00  0.00    -0.491 OA
ENDBRANCH  14  21
BRANCH  19  22
ATOM     22  O   UNL     1       0.111  -2.751  -0.140  0.00  0.00    -0.488 OA
ATOM     23  C   UNL     1      -1.260  -3.124  -0.295  0.00  0.00    +0.277 C 
ENDBRANCH  19  22
BRANCH  18  24
ATOM     24  O   UNL     1       1.326  -3.963  -2.293  0.00  0.00    -0.491 OA
ATOM     25  C   UNL     1       1.977  -4.523  -3.435  0.00  0.00    +0.277 C 
ENDBRANCH  18  24
ENDBRANCH   1  16
BRANCH   9  26
ATOM     26  N   UNL     1       1.662  -0.960  -7.645  0.00  0.00    -0.328 N 
ATOM     27  H   UNL     1       2.075  -1.518  -8.322  0.00  0.00    +0.145 HD
ATOM     28  H   UNL     1       0.782  -0.581  -7.799  0.00  0.00    +0.145 HD
ENDBRANCH   9  26
BRANCH  10  29
ATOM     29  C   UNL     1       0.429   0.611  -5.803  0.00  0.00    +0.101 C 
ATOM     30  N   UNL     1      -0.602   1.038  -6.015  0.00  0.00    -0.191 NA
ENDBRANCH  10  29
TORSDOF 6
