REMARK  Name = ZINC08918707
REMARK  10 active torsions:
REMARK  status: ('A' for Active; 'I' for Inactive)
REMARK    1  A    between atoms: C_1  and  C_2
REMARK    2  A    between atoms: C_2  and  O_3
REMARK    3  A    between atoms: O_3  and  C_4
REMARK    4  A    between atoms: C_12  and  N_24
REMARK    5  A    between atoms: C_13  and  C_14
REMARK    6  A    between atoms: N_16  and  C_17
REMARK    7  A    between atoms: C_22  and  C_23
REMARK    8  A    between atoms: C_25  and  C_27
REMARK    9  A    between atoms: C_27  and  N_69
REMARK   10  A    between atoms: C_30  and  C_33
REMARK                            x       y       z     vdW  Elec       q    Type
REMARK                         _______ _______ _______ _____ _____    ______ ____
ROOT
ATOM      1  C   UNL     1       3.984   0.607   8.213  0.00  0.00    +0.403 C 
ATOM      2  O   UNL     1       5.056   0.164   7.851  0.00  0.00    -0.226 OA
ATOM      3  N   UNL     1       3.104   1.069   7.303  0.00  0.00    -0.262 N 
ATOM      4  C   UNL     1       3.412   1.049   5.865  0.00  0.00    +0.116 C 
ATOM      5  C   UNL     1       2.441   0.111   5.145  0.00  0.00    +0.056 C 
ATOM      6  C   UNL     1       1.019   0.421   5.595  0.00  0.00    -0.020 A 
ATOM      7  C   UNL     1       0.776   1.087   6.744  0.00  0.00    +0.013 A 
ATOM      8  S   UNL     1      -0.988   1.196   6.843  0.00  0.00    -0.076 S 
ATOM      9  C   UNL     1      -1.401   0.377   5.374  0.00  0.00    +0.084 A 
ATOM     10  C   UNL     1      -0.165   0.032   4.846  0.00  0.00    +0.069 A 
ATOM     11  C   UNL     1       1.794   1.613   7.711  0.00  0.00    +0.153 C 
ENDROOT
BRANCH  10  12
ATOM     12  C   UNL     1      -0.056  -0.695   3.578  0.00  0.00    +0.251 C 
ATOM     13  O   UNL     1      -0.040  -1.912   3.572  0.00  0.00    -0.270 OA
ATOM     14  N   UNL     1       0.025  -0.015   2.417  0.00  0.00    -0.281 N 
ATOM     15  H   UNL     1       0.078   0.953   2.424  0.00  0.00    +0.155 HD
BRANCH  14  16
ATOM     16  C   UNL     1       0.034  -0.706   1.201  0.00  0.00    +0.037 A 
ATOM     17  C   UNL     1       0.655  -1.945   1.108  0.00  0.00    +0.023 A 
ATOM     18  C   UNL     1       0.661  -2.625  -0.094  0.00  0.00    +0.002 A 
ATOM     19  C   UNL     1       0.049  -2.074  -1.204  0.00  0.00    +0.000 A 
ATOM     20  C   UNL     1      -0.575  -0.843  -1.115  0.00  0.00    +0.005 A 
ATOM     21  C   UNL     1      -0.580  -0.156   0.083  0.00  0.00    -0.029 A 
ATOM     22  C   UNL     1      -1.257   1.188   0.179  0.00  0.00    +0.045 C 
ENDBRANCH  14  16
ENDBRANCH  10  12
BRANCH   9  23
ATOM     23  N   UNL     1      -2.661   0.127   4.852  0.00  0.00    -0.281 N 
ATOM     24  C   UNL     1      -3.759   0.543   5.513  0.00  0.00    +0.201 C 
ATOM     25  O   UNL     1      -3.645   1.138   6.564  0.00  0.00    -0.278 OA
ATOM     26  H   UNL     1      -2.752  -0.349   4.011  0.00  0.00    +0.155 HD
BRANCH  24  27
ATOM     27  C   UNL     1      -5.128   0.271   4.946  0.00  0.00    +0.019 C 
BRANCH  27  34
ATOM     28  C   UNL     1      -6.152   0.115   7.134  0.00  0.00    -0.078 C 
ATOM     29  C   UNL     1      -7.123   0.806   8.094  0.00  0.00    -0.016 C 
ATOM     30  C   UNL     1      -8.527   0.800   7.485  0.00  0.00    -0.018 C 
ATOM     31  C   UNL     1      -8.488   1.499   6.123  0.00  0.00    -0.016 C 
ATOM     32  C   UNL     1      -7.478   0.788   5.220  0.00  0.00    -0.078 C 
ATOM     33  C   UNL     1      -9.491   1.542   8.413  0.00  0.00    +0.007 C 
ATOM     34  N   UNL     1      -6.142   0.850   5.851  0.00  0.00    +0.385 N 
ATOM     35  H   UNL     1      -5.905   1.833   6.032  0.00  0.00    -0.081 HD
ENDBRANCH  27  34
ENDBRANCH  24  27
ENDBRANCH   9  23
BRANCH   1  36
ATOM     36  O   UNL     1       3.675   0.637   9.523  0.00  0.00    -0.451 OA
BRANCH  36  38
ATOM     37  C   UNL     1       4.146   0.240  11.879  0.00  0.00    +0.048 C 
ATOM     38  C   UNL     1       4.671   0.124  10.447  0.00  0.00    +0.230 C 
ENDBRANCH  36  38
ENDBRANCH   1  36
TORSDOF 7
