REMARK  Name = ZINC14037595
REMARK  5 active torsions:
REMARK  status: ('A' for Active; 'I' for Inactive)
REMARK    1  A    between atoms: C_5  and  C_7
REMARK    2  A    between atoms: N_9  and  C_10
REMARK    3  A    between atoms: C_10  and  N_12
REMARK    4  A    between atoms: N_12  and  N_13
REMARK    5  A    between atoms: C_14  and  C_16
REMARK                            x       y       z     vdW  Elec       q    Type
REMARK                         _______ _______ _______ _____ _____    ______ ____
ROOT
ATOM      1  C   UNL     1       1.147   1.655   0.000  0.00  0.00    +0.153 C 
ATOM      2  S   UNL     1       1.124   3.367   0.009  0.00  0.00    -0.017 S 
ENDROOT
BRANCH   1   5
ATOM      3  C   UNL     1      -1.187   1.624   0.017  0.00  0.00    +0.252 C 
ATOM      4  O   UNL     1      -1.204   2.839   0.023  0.00  0.00    -0.270 OA
ATOM      5  N   UNL     1      -0.011   0.966   0.007  0.00  0.00    -0.263 N 
ATOM      6  H   UNL     1       0.002  -0.004   0.002  0.00  0.00    +0.157 HD
BRANCH   3  11
ATOM      7  C   UNL     1      -3.629  -1.228   0.012  0.00  0.00    +0.001 A 
ATOM      8  C   UNL     1      -4.836  -0.550   0.022  0.00  0.00    +0.003 A 
ATOM      9  C   UNL     1      -4.862   0.832   0.030  0.00  0.00    +0.039 A 
ATOM     10  C   UNL     1      -3.678   1.548   0.028  0.00  0.00    +0.135 A 
ATOM     11  C   UNL     1      -2.455   0.868   0.018  0.00  0.00    +0.072 A 
ATOM     12  C   UNL     1      -2.441  -0.528   0.005  0.00  0.00    +0.016 A 
ATOM     13  F   UNL     1      -3.703   2.898   0.035  0.00  0.00    -0.205 F 
ENDBRANCH   3  11
ENDBRANCH   1   5
BRANCH   1  14
ATOM     14  N   UNL     1       2.323   0.998  -0.015  0.00  0.00    -0.245 N 
ATOM     15  H   UNL     1       3.156   1.494  -0.020  0.00  0.00    +0.172 HD
BRANCH  14  16
ATOM     16  N   UNL     1       2.342  -0.403  -0.022  0.00  0.00    -0.231 N 
ATOM     17  C   UNL     1       3.518  -1.061  -0.037  0.00  0.00    +0.261 C 
ATOM     18  O   UNL     1       4.562  -0.439  -0.044  0.00  0.00    -0.269 OA
ATOM     19  H   UNL     1       1.509  -0.900  -0.017  0.00  0.00    +0.173 HD
BRANCH  17  20
ATOM     20  C   UNL     1       3.538  -2.539  -0.045  0.00  0.00    +0.051 A 
ATOM     21  C   UNL     1       2.341  -3.257  -0.032  0.00  0.00    +0.014 A 
ATOM     22  C   UNL     1       2.366  -4.636  -0.045  0.00  0.00    +0.001 A 
ATOM     23  C   UNL     1       3.576  -5.309  -0.061  0.00  0.00    +0.001 A 
ATOM     24  C   UNL     1       4.766  -4.604  -0.068  0.00  0.00    +0.015 A 
ATOM     25  C   UNL     1       4.755  -3.224  -0.061  0.00  0.00    +0.026 A 
ATOM     26  I   UNL     1       6.559  -2.159  -0.071  0.00  0.00    -0.043 I 
ENDBRANCH  17  20
ENDBRANCH  14  16
ENDBRANCH   1  14
TORSDOF 5
