REMARK  Name = ZINC12520843
REMARK  9 active torsions:
REMARK  status: ('A' for Active; 'I' for Inactive)
REMARK    1  A    between atoms: C_1  and  C_2
REMARK    2  A    between atoms: C_7  and  C_9
REMARK    3  A    between atoms: C_7  and  C_10
REMARK    4  A    between atoms: N_13  and  C_17
REMARK    5  A    between atoms: C_17  and  C_18
REMARK    6  A    between atoms: N_20  and  C_21
REMARK    7  A    between atoms: C_24  and  S_27
REMARK    8  A    between atoms: S_27  and  N_30
REMARK    9  A    between atoms: N_30  and  C_31
REMARK                            x       y       z     vdW  Elec       q    Type
REMARK                         _______ _______ _______ _____ _____    ______ ____
ROOT
ATOM      1  C   UNL     1      -1.430  -5.487  -2.764  0.00  0.00    +0.235 C 
ATOM      2  O   UNL     1      -1.048  -5.761  -1.646  0.00  0.00    -0.274 OA
ATOM      3  N   UNL     1      -1.311  -6.390  -3.757  0.00  0.00    -0.284 N 
ATOM      4  H   UNL     1      -1.677  -6.197  -4.634  0.00  0.00    +0.155 HD
ENDROOT
BRANCH   3   5
ATOM      5  C   UNL     1      -0.660  -7.607  -3.522  0.00  0.00    +0.034 A 
ATOM      6  C   UNL     1       0.105  -8.191  -4.523  0.00  0.00    +0.025 A 
ATOM      7  C   UNL     1       0.746  -9.391  -4.289  0.00  0.00    +0.031 A 
ATOM      8  C   UNL     1       0.627 -10.011  -3.058  0.00  0.00    +0.111 A 
ATOM      9  C   UNL     1      -0.134  -9.432  -2.059  0.00  0.00    +0.031 A 
ATOM     10  C   UNL     1      -0.772  -8.229  -2.286  0.00  0.00    +0.025 A 
BRANCH   8  11
ATOM     11  S   UNL     1       1.447 -11.543  -2.763  0.00  0.00    +0.093 S 
ATOM     12  O   UNL     1       0.736 -12.189  -1.717  0.00  0.00    -0.148 OA
ATOM     13  O   UNL     1       1.649 -12.147  -4.033  0.00  0.00    -0.148 OA
BRANCH  11  14
ATOM     14  N   UNL     1       2.949 -11.187  -2.164  0.00  0.00    -0.070 NA
BRANCH  14  15
ATOM     15  C   UNL     1       3.826 -12.209  -1.837  0.00  0.00    +0.201 A 
ATOM     16  N   UNL     1       3.641 -13.508  -1.940  0.00  0.00    -0.231 NA
ATOM     17  C   UNL     1       4.585 -14.361  -1.583  0.00  0.00    +0.120 A 
ATOM     18  C   UNL     1       5.742 -13.838  -1.110  0.00  0.00    +0.068 A 
ATOM     19  S   UNL     1       5.387 -12.092  -1.219  0.00  0.00    -0.058 S 
ENDBRANCH  14  15
ENDBRANCH  11  14
ENDBRANCH   8  11
ENDBRANCH   3   5
BRANCH   1  20
ATOM     20  C   UNL     1      -2.038  -4.136  -3.042  0.00  0.00    +0.214 C 
BRANCH  20  32
ATOM     21  C   UNL     1      -0.034   1.538  -0.007  0.00  0.00    +0.007 C 
ATOM     22  C   UNL     1      -0.006   0.007  -0.014  0.00  0.00    -0.011 C 
ATOM     23  C   UNL     1      -1.441  -0.524   0.015  0.00  0.00    +0.038 C 
ATOM     24  C   UNL     1      -1.426  -2.046  -0.041  0.00  0.00    +0.113 C 
ATOM     25  C   UNL     1      -0.564  -2.667   1.040  0.00  0.00    +0.041 C 
ATOM     26  C   UNL     1       0.791  -2.015   1.253  0.00  0.00    -0.032 C 
ATOM     27  C   UNL     1       0.720  -0.492   1.234  0.00  0.00    +0.009 C 
ATOM     28  C   UNL     1       1.315  -2.443   2.641  0.00  0.00    +0.011 C 
ATOM     29  C   UNL     1       1.800  -2.507   0.211  0.00  0.00    +0.011 C 
ATOM     30  C   UNL     1      -1.049  -2.530  -1.419  0.00  0.00    +0.247 C 
ATOM     31  O   UNL     1      -0.068  -2.245  -2.073  0.00  0.00    -0.273 OA
ATOM     32  N   UNL     1      -2.053  -3.345  -1.810  0.00  0.00    -0.215 N 
ATOM     33  C   UNL     1      -3.061  -3.336  -0.931  0.00  0.00    +0.310 C 
ATOM     34  O   UNL     1      -4.084  -3.978  -1.069  0.00  0.00    -0.252 OA
ATOM     35  N   UNL     1      -2.812  -2.539   0.123  0.00  0.00    -0.285 N 
ATOM     36  H   UNL     1      -3.411  -2.321   0.852  0.00  0.00    +0.151 HD
ENDBRANCH  20  32
ENDBRANCH   1  20
TORSDOF 6
