REMARK  Name = ZINC51673307
REMARK  7 active torsions:
REMARK  status: ('A' for Active; 'I' for Inactive)
REMARK    1  A    between atoms: C_1  and  C_2
REMARK    2  A    between atoms: C_4  and  N_22
REMARK    3  A    between atoms: C_7  and  N_8
REMARK    4  A    between atoms: N_11  and  C_12
REMARK    5  A    between atoms: C_12  and  C_13
REMARK    6  A    between atoms: N_19  and  C_20
REMARK    7  A    between atoms: N_19  and  C_21
REMARK                            x       y       z     vdW  Elec       q    Type
REMARK                         _______ _______ _______ _____ _____    ______ ____
ROOT
ATOM      1  N   UNL     1      -0.152  -0.018   2.423  0.00  0.00    -0.269 N 
ATOM      2  C   UNL     1      -0.024  -0.569   3.646  0.00  0.00    +0.304 C 
ATOM      3  O   UNL     1       0.158  -1.766   3.758  0.00  0.00    -0.252 OA
ATOM      4  N   UNL     1      -0.098   0.207   4.746  0.00  0.00    -0.295 N 
ATOM      5  H   UNL     1      -0.242   0.943   2.331  0.00  0.00    +0.156 HD
ATOM      6  H   UNL     1      -0.244   1.162   4.656  0.00  0.00    +0.151 HD
ENDROOT
BRANCH   1  13
ATOM      7  C   UNL     1      -1.487   0.927   0.097  0.00  0.00    +0.046 C 
ATOM      8  C   UNL     1      -0.794  -0.411   0.127  0.00  0.00    -0.027 A 
ATOM      9  C   UNL     1      -0.792  -1.212  -0.998  0.00  0.00    +0.028 A 
ATOM     10  C   UNL     1      -0.153  -2.445  -0.970  0.00  0.00    +0.030 A 
ATOM     11  C   UNL     1       0.483  -2.871   0.189  0.00  0.00    +0.025 A 
ATOM     12  C   UNL     1       0.480  -2.070   1.313  0.00  0.00    +0.025 A 
ATOM     13  C   UNL     1      -0.154  -0.835   1.283  0.00  0.00    +0.038 A 
BRANCH  10  14
ATOM     14  N   UNL     1      -0.151  -3.258  -2.109  0.00  0.00    -0.328 N 
ATOM     15  C   UNL     1       0.625  -4.499  -2.110  0.00  0.00    +0.116 C 
ATOM     16  C   UNL     1      -0.327  -5.697  -2.199  0.00  0.00    +0.088 C 
ATOM     17  S   UNL     1      -1.345  -5.520  -3.695  0.00  0.00    -0.158 S 
ATOM     18  C   UNL     1      -2.062  -3.859  -3.514  0.00  0.00    +0.088 C 
ATOM     19  C   UNL     1      -0.929  -2.860  -3.283  0.00  0.00    +0.116 C 
ENDBRANCH  10  14
ENDBRANCH   1  13
BRANCH   4  20
ATOM     20  C   UNL     1       0.040  -0.391   6.076  0.00  0.00    +0.141 C 
BRANCH  20  21
ATOM     21  C   UNL     1      -0.080   0.683   7.125  0.00  0.00    -0.026 A 
ATOM     22  C   UNL     1       1.042   1.369   7.572  0.00  0.00    +0.023 A 
ATOM     23  C   UNL     1       0.898   2.348   8.534  0.00  0.00    +0.084 A 
ATOM     24  N   UNL     1      -0.289   2.638   9.032  0.00  0.00    -0.350 N 
ATOM     25  C   UNL     1      -1.382   2.007   8.633  0.00  0.00    +0.098 A 
ATOM     26  C   UNL     1      -1.312   1.013   7.662  0.00  0.00    +0.047 A 
ATOM     27  N   UNL     1      -2.613   2.344   9.184  0.00  0.00    -0.323 N 
ATOM     28  C   UNL     1      -2.682   3.308  10.286  0.00  0.00    +0.130 C 
ATOM     29  C   UNL     1      -3.840   1.736   8.665  0.00  0.00    +0.130 C 
ATOM     30  H   UNL     1      -0.363   3.330   9.707  0.00  0.00    +0.166 HD
ENDBRANCH  20  21
ENDBRANCH   4  20
TORSDOF 4
