REMARK  Name = ZINC38563337
REMARK  6 active torsions:
REMARK  status: ('A' for Active; 'I' for Inactive)
REMARK    1  A    between atoms: C_3  and  C_6
REMARK    2  A    between atoms: C_6  and  C_8
REMARK    3  A    between atoms: C_6  and  S_22
REMARK    4  A    between atoms: C_8  and  N_9
REMARK    5  A    between atoms: N_12  and  C_13
REMARK    6  A    between atoms: S_22  and  C_25
REMARK                            x       y       z     vdW  Elec       q    Type
REMARK                         _______ _______ _______ _____ _____    ______ ____
ROOT
ATOM      1  C   UNL     1       3.765   1.834  -0.032  0.00  0.00    +0.189 C 
ENDROOT
BRANCH   1   4
ATOM      2  C   UNL     1      -0.013   1.345  -0.002  0.00  0.00    +0.008 A 
ATOM      3  C   UNL     1       1.188   2.030  -0.012  0.00  0.00    +0.013 A 
ATOM      4  C   UNL     1       2.346   1.327  -0.020  0.00  0.00    +0.016 A 
ATOM      5  S   UNL     1       1.755  -0.358  -0.012  0.00  0.00    -0.100 S 
ATOM      6  C   UNL     1       0.004  -0.010   0.001  0.00  0.00    +0.045 A 
ENDBRANCH   1   4
BRANCH   1   7
ATOM      7  S   UNL     1       4.611   1.230  -1.518  0.00  0.00    +0.006 S 
ATOM      8  O   UNL     1       5.888   1.841  -1.637  0.00  0.00    -0.169 OA
ATOM      9  O   UNL     1       4.470  -0.180  -1.622  0.00  0.00    -0.169 OA
BRANCH   7  10
ATOM     10  C   UNL     1       3.676   1.875  -2.865  0.00  0.00    +0.089 A 
ATOM     11  C   UNL     1       2.619   1.150  -3.382  0.00  0.00    +0.028 A 
ATOM     12  C   UNL     1       1.885   1.656  -4.439  0.00  0.00    +0.022 A 
ATOM     13  C   UNL     1       2.209   2.888  -4.979  0.00  0.00    +0.041 A 
ATOM     14  C   UNL     1       3.268   3.612  -4.461  0.00  0.00    +0.022 A 
ATOM     15  C   UNL     1       3.997   3.108  -3.401  0.00  0.00    +0.028 A 
ATOM     16 CL   UNL     1       1.289   3.523  -6.307  0.00  0.00    -0.084 Cl
ENDBRANCH   7  10
ENDBRANCH   1   7
BRANCH   1  17
ATOM     17  C   UNL     1       4.498   1.330   1.213  0.00  0.00    +0.137 C 
BRANCH  17  18
ATOM     18  N   UNL     1       5.877   1.824   1.201  0.00  0.00    -0.297 N 
ATOM     19  C   UNL     1       6.716   1.504   2.206  0.00  0.00    +0.304 C 
ATOM     20  O   UNL     1       6.328   0.805   3.123  0.00  0.00    -0.253 OA
ATOM     21  N   UNL     1       7.985   1.958   2.195  0.00  0.00    -0.269 N 
ATOM     22  H   UNL     1       6.187   2.381   0.470  0.00  0.00    +0.150 HD
ATOM     23  H   UNL     1       8.314   2.458   1.433  0.00  0.00    +0.156 HD
BRANCH  21  24
ATOM     24  C   UNL     1       8.829   1.706   3.286  0.00  0.00    +0.038 A 
ATOM     25  C   UNL     1       9.762   2.658   3.675  0.00  0.00    +0.027 A 
ATOM     26  C   UNL     1      10.594   2.411   4.750  0.00  0.00    +0.051 A 
ATOM     27  C   UNL     1      10.499   1.215   5.443  0.00  0.00    +0.166 A 
ATOM     28  C   UNL     1       9.564   0.259   5.055  0.00  0.00    +0.168 A 
ATOM     29  C   UNL     1       8.727   0.509   3.980  0.00  0.00    +0.073 A 
ATOM     30  O   UNL     1       9.670  -0.818   5.887  0.00  0.00    -0.453 OA
ATOM     31  C   UNL     1      10.951  -0.683   6.530  0.00  0.00    +0.466 C 
ATOM     32  O   UNL     1      11.191   0.737   6.519  0.00  0.00    -0.453 OA
ENDBRANCH  21  24
ENDBRANCH  17  18
ENDBRANCH   1  17
TORSDOF 6
