REMARK  Name = ZINC15276445
REMARK  10 active torsions:
REMARK  status: ('A' for Active; 'I' for Inactive)
REMARK    1  A    between atoms: C_1  and  O_2
REMARK    2  A    between atoms: O_2  and  C_3
REMARK    3  A    between atoms: C_6  and  C_11
REMARK    4  A    between atoms: C_8  and  O_9
REMARK    5  A    between atoms: O_9  and  C_10
REMARK    6  A    between atoms: C_13  and  C_35
REMARK    7  A    between atoms: C_18  and  C_20
REMARK    8  A    between atoms: C_20  and  O_22
REMARK    9  A    between atoms: O_22  and  C_23
REMARK   10  A    between atoms: C_23  and  C_24
REMARK                            x       y       z     vdW  Elec       q    Type
REMARK                         _______ _______ _______ _____ _____    ______ ____
ROOT
ATOM      1  C   UNL     1       4.004   2.063  -0.026  0.00  0.00    +0.075 A 
ATOM      2  C   UNL     1       3.172   3.208  -0.012  0.00  0.00    +0.060 A 
ATOM      3  C   UNL     1       1.830   3.051   0.001  0.00  0.00    +0.149 A 
ATOM      4  N   UNL     1       1.304   1.788  -0.001  0.00  0.00    -0.209 N 
ATOM      5  C   UNL     1       2.138   0.698  -0.015  0.00  0.00    +0.157 A 
ATOM      6  N   UNL     1       3.468   0.857  -0.027  0.00  0.00    -0.228 NA
ATOM      7  C   UNL     1       1.334  -0.433  -0.013  0.00  0.00    +0.085 A 
ATOM      8  C   UNL     1       0.002  -0.004   0.002  0.00  0.00    +0.172 A 
ATOM      9  N   UNL     1      -0.016   1.320   0.009  0.00  0.00    -0.158 NA
ENDROOT
BRANCH   1  13
ATOM     10  C   UNL     1       8.233   2.517  -0.066  0.00  0.00    +0.162 A 
ATOM     11  C   UNL     1       7.416   3.637  -0.052  0.00  0.00    +0.050 A 
ATOM     12  C   UNL     1       6.044   3.493  -0.045  0.00  0.00    +0.014 A 
ATOM     13  C   UNL     1       5.476   2.219  -0.040  0.00  0.00    +0.004 A 
ATOM     14  C   UNL     1       6.298   1.091  -0.054  0.00  0.00    +0.059 A 
ATOM     15  C   UNL     1       7.672   1.242  -0.067  0.00  0.00    +0.162 A 
BRANCH  10  17
ATOM     16  C   UNL     1      10.092   3.999  -0.077  0.00  0.00    +0.277 C 
ATOM     17  O   UNL     1       9.585   2.663  -0.079  0.00  0.00    -0.491 OA
ENDBRANCH  10  17
BRANCH  15  18
ATOM     18  O   UNL     1       8.476   0.145  -0.081  0.00  0.00    -0.491 OA
ATOM     19  C   UNL     1       7.832  -1.131  -0.081  0.00  0.00    +0.277 C 
ENDBRANCH  15  18
ENDBRANCH   1  13
BRANCH   3  20
ATOM     20  C   UNL     1       0.923   4.255   0.015  0.00  0.00    +0.434 C 
ATOM     21  F   UNL     1       1.691   5.418  -0.102  0.00  0.00    -0.164 F 
ATOM     22  F   UNL     1       0.028   4.177  -1.057  0.00  0.00    -0.164 F 
ATOM     23  F   UNL     1       0.209   4.286   1.218  0.00  0.00    -0.164 F 
ENDBRANCH   3  20
BRANCH   8  24
ATOM     24  C   UNL     1      -1.186  -0.882   0.009  0.00  0.00    +0.360 C 
ATOM     25  O   UNL     1      -1.049  -2.089   0.001  0.00  0.00    -0.243 OA
BRANCH  24  26
ATOM     26  O   UNL     1      -2.421  -0.345   0.023  0.00  0.00    -0.460 OA
BRANCH  26  27
ATOM     27  C   UNL     1      -3.542  -1.268   0.029  0.00  0.00    +0.234 C 
BRANCH  27  28
ATOM     28  C   UNL     1      -4.853  -0.478   0.045  0.00  0.00    +0.013 C 
ATOM     29  C   UNL     1      -4.960   0.302   1.355  0.00  0.00    +0.003 C 
ATOM     30  C   UNL     1      -6.296   1.052   1.373  0.00  0.00    -0.018 C 
ATOM     31  C   UNL     1      -7.431   0.036   1.242  0.00  0.00    -0.078 C 
ATOM     32  C   UNL     1      -6.032  -1.448  -0.079  0.00  0.00    -0.062 C 
ATOM     33  C   UNL     1      -5.911  -2.176  -1.422  0.00  0.00    -0.015 C 
ATOM     34  C   UNL     1      -7.096  -3.124  -1.608  0.00  0.00    -0.003 C 
ATOM     35  C   UNL     1      -8.393  -2.311  -1.533  0.00  0.00    -0.019 C 
ATOM     36  C   UNL     1      -8.455  -1.606  -0.178  0.00  0.00    -0.078 C 
ATOM     37  N   UNL     1      -7.308  -0.689  -0.035  0.00  0.00    +0.382 N 
ATOM     38  H   UNL     1      -7.319  -0.013  -0.808  0.00  0.00    -0.081 HD
ENDBRANCH  27  28
ENDBRANCH  26  27
ENDBRANCH  24  26
ENDBRANCH   8  24
TORSDOF 8
