REMARK  Name = ZINC22405238
REMARK  8 active torsions:
REMARK  status: ('A' for Active; 'I' for Inactive)
REMARK    1  A    between atoms: C_1  and  C_2
REMARK    2  A    between atoms: C_8  and  N_10
REMARK    3  A    between atoms: N_10  and  S_11
REMARK    4  A    between atoms: S_11  and  C_14
REMARK    5  A    between atoms: C_16  and  C_22
REMARK    6  A    between atoms: C_19  and  O_20
REMARK    7  A    between atoms: O_20  and  C_21
REMARK    8  A    between atoms: N_24  and  C_25
REMARK                            x       y       z     vdW  Elec       q    Type
REMARK                         _______ _______ _______ _____ _____    ______ ____
ROOT
ATOM      1  C   UNL     1       3.412   3.822  -3.214  0.00  0.00    +0.147 A 
ATOM      2  C   UNL     1       4.046   5.026  -3.429  0.00  0.00    +0.045 A 
ATOM      3  C   UNL     1       3.307   6.139  -3.838  0.00  0.00    +0.039 A 
ATOM      4  C   UNL     1       1.925   6.029  -4.016  0.00  0.00    +0.017 A 
ATOM      5  C   UNL     1       1.298   4.824  -3.793  0.00  0.00    +0.048 A 
ATOM      6  C   UNL     1       2.037   3.717  -3.392  0.00  0.00    +0.146 A 
ENDROOT
BRANCH   3   7
ATOM      7  C   UNL     1       3.984   7.429  -4.076  0.00  0.00    +0.248 C 
ATOM      8  O   UNL     1       5.186   7.523  -3.921  0.00  0.00    -0.270 OA
ATOM      9  N   UNL     1       3.269   8.503  -4.466  0.00  0.00    -0.281 N 
ATOM     10  H   UNL     1       2.196   8.400  -4.683  0.00  0.00    +0.155 HD
BRANCH   9  11
ATOM     11  C   UNL     1       3.892   9.749  -4.595  0.00  0.00    +0.048 A 
ATOM     12  C   UNL     1       5.210   9.826  -5.027  0.00  0.00    +0.024 A 
ATOM     13  C   UNL     1       5.822  11.058  -5.152  0.00  0.00    +0.002 A 
ATOM     14  C   UNL     1       5.125  12.213  -4.850  0.00  0.00    +0.001 A 
ATOM     15  C   UNL     1       3.813  12.140  -4.419  0.00  0.00    +0.017 A 
ATOM     16  C   UNL     1       3.192  10.911  -4.296  0.00  0.00    +0.039 A 
ATOM     17 BR   UNL     1       1.395  10.812  -3.716  0.00  0.00    -0.048 Br
ENDBRANCH   9  11
ENDBRANCH   3   7
BRANCH   1  18
ATOM     18  S   UNL     1       4.343   2.416  -2.704  0.00  0.00    +0.062 S 
ATOM     19  O   UNL     1       3.647   1.845  -1.605  0.00  0.00    -0.153 OA
ATOM     20  O   UNL     1       5.697   2.837  -2.613  0.00  0.00    -0.153 OA
BRANCH  18  21
ATOM     21  N   UNL     1       4.272   1.310  -3.935  0.00  0.00    -0.187 NA
ATOM     22  H   UNL     1       3.618   0.432  -3.832  0.00  0.00    +0.148 HD
BRANCH  21  29
ATOM     23  C   UNL     1       2.657   1.566  -6.325  0.00  0.00    +0.009 C 
ATOM     24  C   UNL     1       4.072   0.985  -6.351  0.00  0.00    +0.005 C 
ATOM     25  C   UNL     1       4.727   1.297  -7.698  0.00  0.00    +0.005 C 
ATOM     26  C   UNL     1       6.142   0.717  -7.723  0.00  0.00    +0.000 C 
ATOM     27  C   UNL     1       6.970   1.340  -6.597  0.00  0.00    +0.002 C 
ATOM     28  C   UNL     1       6.315   1.028  -5.250  0.00  0.00    +0.020 C 
ATOM     29  C   UNL     1       4.899   1.609  -5.225  0.00  0.00    +0.079 C 
ENDBRANCH  21  29
ENDBRANCH  18  21
ENDBRANCH   1  18
BRANCH   6  30
ATOM     30  O   UNL     1       1.415   2.531  -3.174  0.00  0.00    -0.493 OA
ATOM     31  C   UNL     1       0.001   2.493  -3.376  0.00  0.00    +0.277 C 
ENDBRANCH   6  30
TORSDOF 6
