REMARK  Name = ZINC09319148
REMARK  3 active torsions:
REMARK  status: ('A' for Active; 'I' for Inactive)
REMARK    1  A    between atoms: C_6  and  N_7
REMARK    2  A    between atoms: C_8  and  C_10
REMARK    3  A    between atoms: N_18  and  C_19
REMARK                            x       y       z     vdW  Elec       q    Type
REMARK                         _______ _______ _______ _____ _____    ______ ____
ROOT
ATOM      1  C   UNL     1       2.410  -4.197  -0.810  0.00  0.00    +0.135 A 
ATOM      2  C   UNL     1       3.567  -4.875  -1.087  0.00  0.00    +0.081 A 
ATOM      3  S   UNL     1       3.020  -6.523  -1.065  0.00  0.00    -0.060 S 
ATOM      4  C   UNL     1       1.302  -6.203  -0.700  0.00  0.00    +0.166 A 
ATOM      5  N   UNL     1       1.284  -4.888  -0.621  0.00  0.00    -0.220 NA
ATOM      6  N   UNL     1       0.258  -7.105  -0.539  0.00  0.00    -0.248 N 
ATOM      7  C   UNL     1       0.485  -8.428  -0.660  0.00  0.00    +0.310 C 
ATOM      8  O   UNL     1       1.604  -8.832  -0.910  0.00  0.00    -0.252 OA
ATOM      9  N   UNL     1      -0.528  -9.302  -0.505  0.00  0.00    -0.269 N 
ATOM     10  H   UNL     1      -0.635  -6.782  -0.340  0.00  0.00    +0.158 HD
ATOM     11  H   UNL     1      -1.434  -8.978  -0.380  0.00  0.00    +0.156 HD
ENDROOT
BRANCH   9  12
ATOM     12  C   UNL     1      -0.274 -10.679  -0.524  0.00  0.00    +0.035 A 
ATOM     13  C   UNL     1      -1.219 -11.554  -1.041  0.00  0.00    +0.025 A 
ATOM     14  C   UNL     1      -0.963 -12.911  -1.064  0.00  0.00    +0.022 A 
ATOM     15  C   UNL     1       0.230 -13.400  -0.561  0.00  0.00    +0.041 A 
ATOM     16  C   UNL     1       1.172 -12.530  -0.040  0.00  0.00    +0.022 A 
ATOM     17  C   UNL     1       0.923 -11.172  -0.020  0.00  0.00    +0.025 A 
ATOM     18 CL   UNL     1       0.546 -15.107  -0.585  0.00  0.00    -0.084 Cl
ENDBRANCH   9  12
BRANCH   1  20
ATOM     19  N   UNL     1       1.262  -2.070  -0.458  0.00  0.00    -0.280 N 
ATOM     20  C   UNL     1       2.408  -2.728  -0.726  0.00  0.00    +0.267 C 
ATOM     21  O   UNL     1       3.439  -2.107  -0.900  0.00  0.00    -0.268 OA
ATOM     22  H   UNL     1       0.454  -2.566  -0.253  0.00  0.00    +0.155 HD
BRANCH  19  28
ATOM     23  C   UNL     1       0.112   0.000  -0.931  0.00  0.00    +0.025 A 
ATOM     24  C   UNL     1       0.091   1.381  -0.946  0.00  0.00    +0.022 A 
ATOM     25  C   UNL     1       1.191   2.096  -0.506  0.00  0.00    +0.041 A 
ATOM     26  C   UNL     1       2.315   1.429  -0.050  0.00  0.00    +0.022 A 
ATOM     27  C   UNL     1       2.341   0.049  -0.033  0.00  0.00    +0.025 A 
ATOM     28  C   UNL     1       1.238  -0.671  -0.474  0.00  0.00    +0.034 A 
ATOM     29 CL   UNL     1       1.161   3.831  -0.526  0.00  0.00    -0.084 Cl
ENDBRANCH  19  28
ENDBRANCH   1  20
TORSDOF 3
