REMARK  Name = ZINC40038330
REMARK  6 active torsions:
REMARK  status: ('A' for Active; 'I' for Inactive)
REMARK    1  A    between atoms: C_1  and  C_2
REMARK    2  A    between atoms: C_10  and  C_11
REMARK    3  A    between atoms: N_13  and  C_14
REMARK    4  A    between atoms: C_15  and  C_25
REMARK    5  A    between atoms: C_20  and  C_24
REMARK    6  A    between atoms: N_27  and  C_28
REMARK                            x       y       z     vdW  Elec       q    Type
REMARK                         _______ _______ _______ _____ _____    ______ ____
ROOT
ATOM      1  C   UNL     1       0.060  -0.873   4.799  0.00  0.00    +0.085 A 
ATOM      2  C   UNL     1       0.088  -1.657   5.941  0.00  0.00    +0.069 A 
ATOM      3  C   UNL     1       0.089  -0.968   7.220  0.00  0.00    -0.023 A 
ATOM      4  C   UNL     1       0.064   0.379   7.122  0.00  0.00    -0.004 A 
ATOM      5  S   UNL     1       0.045   0.702   5.383  0.00  0.00    -0.077 S 
ATOM      6  C   UNL     1       0.060   1.363   8.250  0.00  0.00    +0.046 C 
ATOM      7  C   UNL     1       0.470   0.627   9.534  0.00  0.00    -0.009 C 
ATOM      8  C   UNL     1      -0.341  -0.667   9.644  0.00  0.00    +0.008 C 
ATOM      9  C   UNL     1       0.117  -1.661   8.574  0.00  0.00    +0.037 C 
ATOM     10  C   UNL     1       0.188   1.516  10.747  0.00  0.00    +0.008 C 
ENDROOT
BRANCH   1  13
ATOM     11  C   UNL     1       0.031  -0.383   2.483  0.00  0.00    +0.284 C 
ATOM     12  O   UNL     1       0.017   0.805   2.745  0.00  0.00    -0.266 OA
ATOM     13  N   UNL     1       0.054  -1.292   3.478  0.00  0.00    -0.273 N 
ATOM     14  H   UNL     1       0.065  -2.239   3.270  0.00  0.00    +0.156 HD
BRANCH  11  24
ATOM     15  C   UNL     1      -0.018   1.503   0.010  0.00  0.00    +0.048 C 
ATOM     16  C   UNL     1       0.002  -0.004   0.002  0.00  0.00    +0.008 A 
ATOM     17  C   UNL     1       0.009  -0.877  -1.171  0.00  0.00    +0.027 A 
ATOM     18  C   UNL     1      -0.001  -0.653  -2.551  0.00  0.00    +0.050 A 
ATOM     19  C   UNL     1       0.009  -1.727  -3.414  0.00  0.00    +0.124 A 
ATOM     20  C   UNL     1       0.030  -3.025  -2.917  0.00  0.00    +0.042 A 
ATOM     21  C   UNL     1       0.040  -3.259  -1.559  0.00  0.00    +0.050 A 
ATOM     22  C   UNL     1       0.029  -2.191  -0.669  0.00  0.00    +0.136 A 
ATOM     23  O   UNL     1       0.035  -2.113   0.676  0.00  0.00    -0.450 OA
ATOM     24  C   UNL     1       0.024  -0.827   1.083  0.00  0.00    +0.194 A 
ATOM     25  F   UNL     1      -0.001  -1.517  -4.749  0.00  0.00    -0.205 F 
ENDBRANCH  11  24
ENDBRANCH   1  13
BRANCH   2  26
ATOM     26  C   UNL     1       0.114  -3.121   5.863  0.00  0.00    +0.247 C 
ATOM     27  O   UNL     1       1.179  -3.709   5.819  0.00  0.00    -0.270 OA
ATOM     28  N   UNL     1      -1.041  -3.815   5.840  0.00  0.00    -0.307 N 
ATOM     29  H   UNL     1      -1.889  -3.346   5.875  0.00  0.00    +0.149 HD
BRANCH  28  30
ATOM     30  C   UNL     1      -1.015  -5.278   5.761  0.00  0.00    +0.096 C 
ATOM     31  C   UNL     1      -0.874  -5.863   7.176  0.00  0.00    +0.046 C 
ATOM     32  C   UNL     1      -1.163  -7.389   7.100  0.00  0.00    +0.168 C 
ATOM     33  S   UNL     1      -2.587  -7.405   5.932  0.00  0.00    -0.029 S 
ATOM     34  O   UNL     1      -3.797  -7.357   6.676  0.00  0.00    -0.174 OA
ATOM     35  O   UNL     1      -2.393  -8.443   4.980  0.00  0.00    -0.174 OA
ATOM     36  C   UNL     1      -2.326  -5.781   5.111  0.00  0.00    +0.188 C 
ENDBRANCH  28  30
ENDBRANCH   2  26
TORSDOF 4
