REMARK  Name = ZINC14472413
REMARK  5 active torsions:
REMARK  status: ('A' for Active; 'I' for Inactive)
REMARK    1  A    between atoms: C_3  and  C_10
REMARK    2  A    between atoms: C_5  and  N_7
REMARK    3  A    between atoms: C_21  and  C_26
REMARK    4  A    between atoms: N_28  and  C_29
REMARK    5  A    between atoms: C_29  and  C_30
REMARK                            x       y       z     vdW  Elec       q    Type
REMARK                         _______ _______ _______ _____ _____    ______ ____
ROOT
ATOM      1  C   UNL     1      -1.653   5.257  10.244  0.00  0.00    +0.105 C 
ATOM      2  C   UNL     1      -2.985   6.009  10.310  0.00  0.00    +0.029 C 
ATOM      3  C   UNL     1      -3.693   5.584  11.630  0.00  0.00    +0.033 C 
ATOM      4  C   UNL     1      -4.358   4.271  11.265  0.00  0.00    -0.030 C 
ATOM      5  C   UNL     1      -4.516   4.181   9.967  0.00  0.00    -0.023 C 
ATOM      6  C   UNL     1      -3.974   5.416   9.288  0.00  0.00    +0.049 C 
ATOM      7  C   UNL     1      -3.329   5.080   7.980  0.00  0.00    -0.019 A 
ATOM      8  C   UNL     1      -4.140   4.779   6.901  0.00  0.00    +0.019 A 
ATOM      9  C   UNL     1      -3.581   4.458   5.664  0.00  0.00    +0.037 A 
ATOM     10  C   UNL     1      -2.192   4.450   5.506  0.00  0.00    +0.015 A 
ATOM     11  C   UNL     1      -1.386   4.753   6.579  0.00  0.00    +0.024 A 
ATOM     12  C   UNL     1      -1.949   5.067   7.813  0.00  0.00    +0.031 A 
ATOM     13  N   UNL     1      -1.112   5.368   8.885  0.00  0.00    -0.336 N 
ATOM     14  H   UNL     1      -0.194   5.643   8.737  0.00  0.00    +0.147 HD
ENDROOT
BRANCH   1  17
ATOM     15  C   UNL     1      -2.384   1.570   9.892  0.00  0.00    +0.003 A 
ATOM     16  C   UNL     1      -2.180   2.902   9.582  0.00  0.00    +0.005 A 
ATOM     17  C   UNL     1      -1.875   3.805  10.582  0.00  0.00    -0.025 A 
ATOM     18  C   UNL     1      -1.769   3.377  11.892  0.00  0.00    +0.038 A 
ATOM     19  C   UNL     1      -1.977   2.046  12.203  0.00  0.00    +0.127 A 
ATOM     20  C   UNL     1      -2.283   1.142  11.202  0.00  0.00    +0.033 A 
BRANCH  19  21
ATOM     21  N   UNL     1      -1.869   1.588  13.606  0.00  0.00    +0.056 N 
ATOM     22  O   UNL     1      -2.049   0.415  13.879  0.00  0.00    -0.126 OA
ATOM     23  O   UNL     1      -1.601   2.384  14.488  0.00  0.00    -0.126 OA
ENDBRANCH  19  21
ENDBRANCH   1  17
BRANCH   9  24
ATOM     24  C   UNL     1      -4.455   4.132   4.521  0.00  0.00    +0.244 C 
ATOM     25  O   UNL     1      -5.663   4.139   4.658  0.00  0.00    -0.270 OA
ATOM     26  N   UNL     1      -3.915   3.827   3.325  0.00  0.00    -0.309 N 
ATOM     27  H   UNL     1      -2.951   3.821   3.215  0.00  0.00    +0.149 HD
BRANCH  26  28
ATOM     28  C   UNL     1      -4.783   3.503   2.190  0.00  0.00    +0.136 C 
BRANCH  28  29
ATOM     29  C   UNL     1      -3.924   3.198   0.961  0.00  0.00    +0.135 C 
ATOM     30  C   UNL     1      -4.815   2.975  -0.287  0.00  0.00    +0.035 C 
ATOM     31  C   UNL     1      -3.907   2.096  -1.181  0.00  0.00    +0.031 C 
ATOM     32  C   UNL     1      -2.893   1.479  -0.199  0.00  0.00    +0.160 C 
ATOM     33  O   UNL     1      -3.239   1.934   1.120  0.00  0.00    -0.375 OA
ENDBRANCH  28  29
ENDBRANCH  26  28
ENDBRANCH   9  24
TORSDOF 5
