REMARK  Name = ZINC01165495
REMARK  10 active torsions:
REMARK  status: ('A' for Active; 'I' for Inactive)
REMARK    1  A    between atoms: C_1  and  O_2
REMARK    2  A    between atoms: O_2  and  C_3
REMARK    3  A    between atoms: C_5  and  C_13
REMARK    4  A    between atoms: C_7  and  O_11
REMARK    5  A    between atoms: C_8  and  O_9
REMARK    6  A    between atoms: O_9  and  C_10
REMARK    7  A    between atoms: O_11  and  C_12
REMARK    8  A    between atoms: N_15  and  C_16
REMARK    9  A    between atoms: C_17  and  C_28
REMARK   10  A    between atoms: C_18  and  C_21
REMARK                            x       y       z     vdW  Elec       q    Type
REMARK                         _______ _______ _______ _____ _____    ______ ____
ROOT
ATOM      1  C   UNL     1      -4.856   0.233   0.038  0.00  0.00    +0.249 C 
ATOM      2  O   UNL     1      -4.810   1.448   0.040  0.00  0.00    -0.270 OA
ATOM      3  N   UNL     1      -6.047  -0.397   0.046  0.00  0.00    -0.275 N 
ATOM      4  H   UNL     1      -6.083  -1.367   0.045  0.00  0.00    +0.156 HD
ENDROOT
BRANCH   1   7
ATOM      5  C   UNL     1      -1.201  -0.638   0.010  0.00  0.00    +0.166 A 
ATOM      6  C   UNL     1      -2.370   0.100   0.019  0.00  0.00    +0.062 A 
ATOM      7  C   UNL     1      -3.606  -0.552   0.028  0.00  0.00    +0.044 A 
ATOM      8  C   UNL     1      -3.657  -1.949   0.027  0.00  0.00    +0.062 A 
ATOM      9  C   UNL     1      -2.485  -2.681   0.017  0.00  0.00    +0.166 A 
ATOM     10  C   UNL     1      -1.254  -2.029   0.003  0.00  0.00    +0.204 A 
BRANCH   5  12
ATOM     11  C   UNL     1      -0.017   1.425   0.010  0.00  0.00    +0.277 C 
ATOM     12  O   UNL     1       0.002  -0.004   0.002  0.00  0.00    -0.491 OA
ENDBRANCH   5  12
BRANCH  10  13
ATOM     13  O   UNL     1      -0.104  -2.752  -0.012  0.00  0.00    -0.488 OA
ATOM     14  C   UNL     1       0.458  -3.104   1.254  0.00  0.00    +0.277 C 
ENDBRANCH  10  13
BRANCH   9  15
ATOM     15  O   UNL     1      -2.533  -4.041   0.016  0.00  0.00    -0.491 OA
ATOM     16  C   UNL     1      -3.829  -4.644   0.026  0.00  0.00    +0.277 C 
ENDBRANCH   9  15
ENDBRANCH   1   7
BRANCH   3  17
ATOM     17  C   UNL     1      -7.218   0.338   0.056  0.00  0.00    +0.087 A 
ATOM     18  C   UNL     1      -8.523  -0.138   0.071  0.00  0.00    +0.099 A 
ATOM     19  C   UNL     1      -9.577   0.862   0.080  0.00  0.00    +0.005 A 
ATOM     20  C   UNL     1      -9.157   2.152   0.072  0.00  0.00    +0.056 A 
ATOM     21  S   UNL     1      -7.384   2.007   0.061  0.00  0.00    -0.080 S 
BRANCH  19  22
ATOM     22  C   UNL     1     -11.014   0.497   0.095  0.00  0.00    -0.016 A 
ATOM     23  C   UNL     1     -11.509  -0.433  -0.818  0.00  0.00    +0.009 A 
ATOM     24  C   UNL     1     -12.847  -0.769  -0.799  0.00  0.00    +0.016 A 
ATOM     25  C   UNL     1     -13.697  -0.184   0.124  0.00  0.00    +0.018 A 
ATOM     26  C   UNL     1     -13.211   0.740   1.032  0.00  0.00    +0.016 A 
ATOM     27  C   UNL     1     -11.873   1.078   1.027  0.00  0.00    +0.009 A 
ATOM     28 BR   UNL     1     -15.530  -0.650   0.143  0.00  0.00    -0.050 Br
ENDBRANCH  19  22
BRANCH  18  29
ATOM     29  C   UNL     1      -8.810  -1.525   0.077  0.00  0.00    +0.389 C 
ATOM     30  O   UNL     1      -7.895  -2.340   0.069  0.00  0.00    -0.240 OA
ATOM     31  O   UNL     1      -9.973  -1.909   0.089  0.00  0.00    -0.240 OA
ENDBRANCH  18  29
ENDBRANCH   3  17
TORSDOF 7
