REMARK  Name = ZINC36507945
REMARK  18 active torsions:
REMARK  status: ('A' for Active; 'I' for Inactive)
REMARK    1  A    between atoms: C_1  and  C_2
REMARK    2  A    between atoms: C_2  and  C_3
REMARK    3  A    between atoms: C_3  and  C_4
REMARK    4  A    between atoms: C_4  and  C_5
REMARK    5  A    between atoms: C_5  and  C_6
REMARK    6  A    between atoms: C_6  and  N_7
REMARK    7  A    between atoms: N_7  and  C_8
REMARK    8  A    between atoms: C_8  and  C_10
REMARK    9  A    between atoms: C_8  and  C_17
REMARK   10  A    between atoms: C_15  and  C_16
REMARK   11  A    between atoms: N_19  and  C_20
REMARK   12  A    between atoms: C_20  and  C_21
REMARK   13  A    between atoms: C_20  and  C_22
REMARK   14  A    between atoms: C_20  and  C_23
REMARK   15  A    between atoms: C_24  and  C_26
REMARK   16  A    between atoms: C_32  and  O_34
REMARK   17  A    between atoms: O_34  and  C_35
REMARK   18  A    between atoms: C_35  and  C_36
REMARK                            x       y       z     vdW  Elec       q    Type
REMARK                         _______ _______ _______ _____ _____    ______ ____
ROOT
ATOM      1  N   UNL     1       1.838  -4.560  -3.414  0.00  0.00    -0.284 N 
ATOM      2  C   UNL     1       1.025  -4.350  -4.469  0.00  0.00    +0.237 C 
ATOM      3  O   UNL     1      -0.116  -3.981  -4.291  0.00  0.00    -0.274 OA
ENDROOT
BRANCH   2   4
ATOM      4  C   UNL     1       1.535  -4.575  -5.869  0.00  0.00    +0.165 C 
ATOM      5  C   UNL     1       1.477  -6.078  -6.214  0.00  0.00    +0.033 C 
ATOM      6  C   UNL     1       1.036  -6.076  -7.702  0.00  0.00    +0.021 C 
ATOM      7  C   UNL     1       0.070  -4.865  -7.738  0.00  0.00    +0.112 C 
ATOM      8  N   UNL     1       0.678  -3.869  -6.832  0.00  0.00    -0.256 N 
ATOM      9  C   UNL     1       0.479  -2.537  -6.878  0.00  0.00    +0.404 C 
ATOM     10  O   UNL     1       1.034  -1.812  -6.076  0.00  0.00    -0.226 OA
BRANCH   9  11
ATOM     11  O   UNL     1      -0.334  -2.009  -7.813  0.00  0.00    -0.445 OA
BRANCH  11  12
ATOM     12  C   UNL     1      -0.498  -0.589  -7.803  0.00  0.00    +0.269 C 
BRANCH  12  13
ATOM     13  C   UNL     1      -1.435  -0.184  -8.912  0.00  0.00    -0.010 A 
ATOM     14  C   UNL     1      -0.936   0.108 -10.167  0.00  0.00    +0.007 A 
ATOM     15  C   UNL     1      -1.795   0.480 -11.184  0.00  0.00    +0.000 A 
ATOM     16  C   UNL     1      -3.155   0.558 -10.945  0.00  0.00    +0.000 A 
ATOM     17  C   UNL     1      -3.655   0.264  -9.690  0.00  0.00    +0.000 A 
ATOM     18  C   UNL     1      -2.795  -0.112  -8.675  0.00  0.00    +0.007 A 
ENDBRANCH  12  13
ENDBRANCH  11  12
ENDBRANCH   9  11
ENDBRANCH   2   4
BRANCH   1  19
ATOM     19  C   UNL     1       1.370  -4.262  -2.058  0.00  0.00    +0.109 C 
BRANCH  19  20
ATOM     20  C   UNL     1       1.684  -2.804  -1.718  0.00  0.00    +0.019 C 
BRANCH  20  21
ATOM     21  C   UNL     1       1.070  -2.452  -0.362  0.00  0.00    +0.002 C 
BRANCH  21  22
ATOM     22  C   UNL     1       1.385  -0.994  -0.023  0.00  0.00    -0.000 C 
BRANCH  22  24
ATOM     23  C   UNL     1       1.085   0.816   1.673  0.00  0.00    +0.004 C 
ATOM     24  C   UNL     1       0.770  -0.642   1.334  0.00  0.00    -0.003 C 
ENDBRANCH  22  24
ENDBRANCH  21  22
ENDBRANCH  20  21
ENDBRANCH  19  20
ENDBRANCH   1  19
BRANCH   1  25
ATOM     25  C   UNL     1       3.189  -5.086  -3.623  0.00  0.00    +0.192 C 
BRANCH  25  26
ATOM     26  C   UNL     1       4.190  -4.181  -2.952  0.00  0.00    -0.015 A 
ATOM     27  C   UNL     1       5.078  -4.699  -2.027  0.00  0.00    +0.006 A 
ATOM     28  C   UNL     1       5.996  -3.869  -1.411  0.00  0.00    +0.000 A 
ATOM     29  C   UNL     1       6.026  -2.522  -1.719  0.00  0.00    +0.000 A 
ATOM     30  C   UNL     1       5.138  -2.004  -2.644  0.00  0.00    +0.004 A 
ATOM     31  C   UNL     1       4.223  -2.835  -3.264  0.00  0.00    -0.045 A 
ATOM     32  C   UNL     1       3.259  -2.272  -4.276  0.00  0.00    +0.044 C 
ENDBRANCH  25  26
BRANCH  25  33
ATOM     33  C   UNL     1       3.287  -6.469  -3.034  0.00  0.00    +0.238 C 
ATOM     34  O   UNL     1       2.461  -6.845  -2.229  0.00  0.00    -0.273 OA
ATOM     35  N   UNL     1       4.293  -7.288  -3.400  0.00  0.00    -0.309 N 
ATOM     36  H   UNL     1       4.994  -6.963  -3.986  0.00  0.00    +0.149 HD
BRANCH  35  37
ATOM     37  C   UNL     1       4.328  -8.669  -2.911  0.00  0.00    +0.026 C 
ATOM     38  C   UNL     1       3.067  -9.404  -3.370  0.00  0.00    +0.031 C 
ATOM     39  C   UNL     1       5.563  -9.377  -3.471  0.00  0.00    +0.031 C 
ATOM     40  C   UNL     1       4.390  -8.668  -1.383  0.00  0.00    +0.031 C 
ENDBRANCH  35  37
ENDBRANCH  25  33
ENDBRANCH   1  25
TORSDOF 13
