REMARK  Name = ZINC12814422
REMARK  7 active torsions:
REMARK  status: ('A' for Active; 'I' for Inactive)
REMARK    1  A    between atoms: C_1  and  C_2
REMARK    2  A    between atoms: C_9  and  C_11
REMARK    3  A    between atoms: N_13  and  C_14
REMARK    4  A    between atoms: N_17  and  S_20
REMARK    5  A    between atoms: S_20  and  C_23
REMARK    6  A    between atoms: C_26  and  N_29
REMARK    7  A    between atoms: C_30  and  C_32
REMARK                            x       y       z     vdW  Elec       q    Type
REMARK                         _______ _______ _______ _____ _____    ______ ____
ROOT
ATOM      1  C   UNL     1       1.984   1.883   0.887  0.00  0.00    +0.076 C 
ATOM      2  C   UNL     1       1.127   2.309  -0.307  0.00  0.00    +0.039 C 
ATOM      3  C   UNL     1      -0.248   1.641  -0.209  0.00  0.00    +0.111 C 
ATOM      4  N   UNL     1      -0.060   0.188  -0.088  0.00  0.00    -0.176 NA
ATOM      5  C   UNL     1       0.819  -0.325   0.972  0.00  0.00    +0.111 C 
ATOM      6  C   UNL     1       2.182   0.366   0.861  0.00  0.00    +0.039 C 
ENDROOT
BRANCH   1   9
ATOM      7  C   UNL     1       3.440   3.791   1.311  0.00  0.00    +0.251 C 
ATOM      8  O   UNL     1       2.494   4.362   1.821  0.00  0.00    -0.270 OA
ATOM      9  N   UNL     1       3.288   2.547   0.814  0.00  0.00    -0.308 N 
ATOM     10  H   UNL     1       4.042   2.092   0.408  0.00  0.00    +0.149 HD
BRANCH   7  18
ATOM     11  C   UNL     1       8.853   9.071   1.759  0.00  0.00    +0.008 C 
ATOM     12  C   UNL     1       8.233   7.790   1.196  0.00  0.00    -0.009 C 
ATOM     13  C   UNL     1       9.219   6.631   1.365  0.00  0.00    +0.009 C 
ATOM     14  C   UNL     1       8.707   5.426   0.562  0.00  0.00    +0.043 C 
ATOM     15  C   UNL     1       7.257   5.230   0.878  0.00  0.00    -0.006 A 
ATOM     16  C   UNL     1       6.421   6.118   1.494  0.00  0.00    -0.036 A 
ATOM     17  C   UNL     1       5.109   5.712   1.682  0.00  0.00    +0.024 A 
ATOM     18  C   UNL     1       4.745   4.455   1.237  0.00  0.00    +0.074 A 
ATOM     19  S   UNL     1       6.280   3.848   0.558  0.00  0.00    -0.088 S 
ATOM     20  C   UNL     1       6.935   7.483   1.942  0.00  0.00    +0.039 C 
ENDBRANCH   7  18
ENDBRANCH   1   9
BRANCH   4  21
ATOM     21  S   UNL     1      -0.824  -0.851  -1.127  0.00  0.00    +0.061 S 
ATOM     22  O   UNL     1      -0.916  -2.100  -0.456  0.00  0.00    -0.153 OA
ATOM     23  O   UNL     1      -1.967  -0.165  -1.619  0.00  0.00    -0.153 OA
BRANCH  21  24
ATOM     24  C   UNL     1       0.249  -1.095  -2.502  0.00  0.00    +0.106 A 
ATOM     25  C   UNL     1       0.160  -0.263  -3.603  0.00  0.00    +0.030 A 
ATOM     26  C   UNL     1       1.003  -0.448  -4.681  0.00  0.00    +0.025 A 
ATOM     27  C   UNL     1       1.934  -1.478  -4.663  0.00  0.00    +0.033 A 
ATOM     28  C   UNL     1       2.018  -2.315  -3.559  0.00  0.00    +0.025 A 
ATOM     29  C   UNL     1       1.175  -2.122  -2.482  0.00  0.00    +0.030 A 
BRANCH  27  30
ATOM     30  N   UNL     1       2.787  -1.672  -5.756  0.00  0.00    -0.286 N 
ATOM     31  C   UNL     1       3.180  -2.916  -6.092  0.00  0.00    +0.214 C 
ATOM     32  O   UNL     1       2.720  -3.875  -5.509  0.00  0.00    -0.276 OA
ATOM     33  C   UNL     1       4.190  -3.116  -7.192  0.00  0.00    +0.109 C 
ATOM     34  H   UNL     1       3.095  -0.910  -6.271  0.00  0.00    +0.155 HD
ENDBRANCH  27  30
ENDBRANCH  21  24
ENDBRANCH   4  21
TORSDOF 5
