REMARK  Name = ZINC08962757
REMARK  11 active torsions:
REMARK  status: ('A' for Active; 'I' for Inactive)
REMARK    1  A    between atoms: C_1  and  C_2
REMARK    2  A    between atoms: C_2  and  O_3
REMARK    3  A    between atoms: O_3  and  C_4
REMARK    4  A    between atoms: C_11  and  C_13
REMARK    5  A    between atoms: C_13  and  N_15
REMARK    6  A    between atoms: N_17  and  C_29
REMARK    7  A    between atoms: C_21  and  S_25
REMARK    8  A    between atoms: S_25  and  N_28
REMARK    9  A    between atoms: C_29  and  C_30
REMARK   10  A    between atoms: C_30  and  O_32
REMARK   11  A    between atoms: O_32  and  C_33
REMARK                            x       y       z     vdW  Elec       q    Type
REMARK                         _______ _______ _______ _____ _____    ______ ____
ROOT
ATOM      1  N   UNL     1      -1.357   6.481  -0.609  0.00  0.00    -0.149 NA
ATOM      2  C   UNL     1      -1.757   7.649  -0.122  0.00  0.00    +0.167 A 
ATOM      3  N   UNL     1      -3.016   8.045   0.221  0.00  0.00    -0.310 N 
ATOM      4  C   UNL     1      -3.235   9.316   0.722  0.00  0.00    +0.058 A 
ATOM      5  C   UNL     1      -4.458   9.878   1.125  0.00  0.00    +0.029 A 
ATOM      6  C   UNL     1      -4.521  11.166   1.599  0.00  0.00    +0.030 A 
ATOM      7  C   UNL     1      -3.385  11.952   1.696  0.00  0.00    +0.106 A 
ATOM      8  C   UNL     1      -2.166  11.426   1.306  0.00  0.00    +0.045 A 
ATOM      9  C   UNL     1      -2.103  10.137   0.832  0.00  0.00    +0.041 A 
ATOM     10  S   UNL     1      -0.785   9.102   0.242  0.00  0.00    -0.052 S 
ENDROOT
BRANCH   7  11
ATOM     11  S   UNL     1      -3.490  13.602   2.307  0.00  0.00    +0.056 S 
ATOM     12  O   UNL     1      -2.370  14.301   1.782  0.00  0.00    -0.153 OA
ATOM     13  O   UNL     1      -4.827  14.031   2.088  0.00  0.00    -0.153 OA
BRANCH  11  14
ATOM     14  N   UNL     1      -3.279  13.531   3.947  0.00  0.00    -0.204 NA
ATOM     15  H   UNL     1      -3.131  12.675   4.381  0.00  0.00    +0.144 HD
ATOM     16  H   UNL     1      -3.302  14.344   4.475  0.00  0.00    +0.144 HD
ENDBRANCH  11  14
ENDBRANCH   7  11
BRANCH   1  17
ATOM     17  C   UNL     1      -0.064   6.281  -0.893  0.00  0.00    +0.305 C 
ATOM     18  O   UNL     1       0.747   7.173  -0.704  0.00  0.00    -0.265 OA
BRANCH  17  26
ATOM     19  C   UNL     1      -0.067   1.606  -2.579  0.00  0.00    +0.163 A 
ATOM     20  C   UNL     1       0.909   0.746  -3.050  0.00  0.00    +0.049 A 
ATOM     21  C   UNL     1       2.234   1.150  -3.121  0.00  0.00    +0.004 A 
ATOM     22  C   UNL     1       2.598   2.407  -2.727  0.00  0.00    +0.012 A 
ATOM     23  C   UNL     1       1.629   3.293  -2.248  0.00  0.00    +0.025 A 
ATOM     24  C   UNL     1       0.282   2.894  -2.177  0.00  0.00    +0.177 A 
ATOM     25  O   UNL     1      -0.424   3.931  -1.682  0.00  0.00    -0.446 OA
ATOM     26  C   UNL     1       0.381   4.984  -1.433  0.00  0.00    +0.193 A 
ATOM     27  C   UNL     1       1.661   4.670  -1.756  0.00  0.00    +0.063 A 
BRANCH  19  28
ATOM     28  O   UNL     1      -1.362   1.198  -2.515  0.00  0.00    -0.489 OA
BRANCH  28  30
ATOM     29  C   UNL     1      -3.143  -0.409  -2.804  0.00  0.00    +0.048 C 
ATOM     30  C   UNL     1      -1.645  -0.133  -2.950  0.00  0.00    +0.226 C 
ENDBRANCH  28  30
ENDBRANCH  19  28
ENDBRANCH  17  26
ENDBRANCH   1  17
BRANCH   3  31
ATOM     31  C   UNL     1      -4.140   7.120   0.064  0.00  0.00    +0.244 C 
BRANCH  31  32
ATOM     32  C   UNL     1      -3.990   6.362  -1.230  0.00  0.00    +0.327 C 
ATOM     33  O   UNL     1      -3.139   6.686  -2.025  0.00  0.00    -0.249 OA
BRANCH  32  34
ATOM     34  O   UNL     1      -4.801   5.327  -1.500  0.00  0.00    -0.467 OA
ATOM     35  C   UNL     1      -4.598   4.644  -2.765  0.00  0.00    +0.280 C 
ENDBRANCH  32  34
ENDBRANCH  31  32
ENDBRANCH   3  31
TORSDOF 9
