REMARK  Name = ZINC30983560
REMARK  7 active torsions:
REMARK  status: ('A' for Active; 'I' for Inactive)
REMARK    1  A    between atoms: C_1  and  C_2
REMARK    2  A    between atoms: C_4  and  S_10
REMARK    3  A    between atoms: C_5  and  C_9
REMARK    4  A    between atoms: S_10  and  C_11
REMARK    5  A    between atoms: C_11  and  C_12
REMARK    6  A    between atoms: C_17  and  C_20
REMARK    7  A    between atoms: C_22  and  C_26
REMARK                            x       y       z     vdW  Elec       q    Type
REMARK                         _______ _______ _______ _____ _____    ______ ____
ROOT
ATOM      1  C   UNL     1      -0.718   1.572   1.248  0.00  0.00    +0.229 C 
ATOM      2  O   UNL     1      -1.715   2.256   1.150  0.00  0.00    -0.275 OA
ATOM      3  N   UNL     1      -0.242   1.246   2.466  0.00  0.00    -0.264 N 
ATOM      4  C   UNL     1      -0.892   1.694   3.609  0.00  0.00    +0.165 A 
ATOM      5  N   UNL     1      -0.582   1.482   4.872  0.00  0.00    -0.225 NA
ATOM      6  C   UNL     1      -1.315   1.987   5.853  0.00  0.00    +0.082 A 
ATOM      7  C   UNL     1      -2.407   2.737   5.518  0.00  0.00    +0.077 A 
ATOM      8  S   UNL     1      -2.315   2.681   3.735  0.00  0.00    -0.060 S 
ATOM      9  H   UNL     1       0.662   0.625   2.555  0.00  0.00    +0.157 HD
ENDROOT
BRANCH   6  10
ATOM     10  C   UNL     1      -0.961   1.745   7.275  0.00  0.00    +0.019 A 
ATOM     11  C   UNL     1       0.183   1.073   7.745  0.00  0.00    +0.042 A 
ATOM     12  C   UNL     1       0.121   1.077   9.111  0.00  0.00    +0.102 A 
ATOM     13  N   UNL     1      -1.035   1.725   9.482  0.00  0.00    -0.356 N 
ATOM     14  H   UNL     1      -1.285   1.837  10.547  0.00  0.00    +0.165 HD
ATOM     15  C   UNL     1      -1.688   2.128   8.365  0.00  0.00    +0.093 A 
BRANCH  12  16
ATOM     16  C   UNL     1       1.110   0.488  10.020  0.00  0.00    +0.258 C 
ATOM     17  O   UNL     1       2.099  -0.062   9.571  0.00  0.00    -0.269 OA
ATOM     18  N   UNL     1       0.924   0.556  11.353  0.00  0.00    -0.324 N 
ATOM     19  H   UNL     1       1.666   0.115  12.035  0.00  0.00    +0.145 HD
ATOM     20  H   UNL     1       0.031   1.053  11.759  0.00  0.00    +0.145 HD
ENDBRANCH  12  16
ENDBRANCH   6  10
BRANCH   1  21
ATOM     21  C   UNL     1      -0.013   1.086   0.008  0.00  0.00    +0.170 C 
BRANCH  21  22
ATOM     22  S   UNL     1      -0.890   1.687  -1.462  0.00  0.00    -0.116 S 
BRANCH  22  26
ATOM     23  C   UNL     1       3.127  -1.075  -3.364  0.00  0.00    +0.045 C 
ATOM     24  C   UNL     1       1.903  -0.235  -3.625  0.00  0.00    -0.035 A 
ATOM     25  C   UNL     1       1.176   0.273  -2.567  0.00  0.00    +0.019 A 
ATOM     26  C   UNL     1       0.045   1.043  -2.809  0.00  0.00    +0.012 A 
ATOM     27  C   UNL     1      -0.344   1.309  -4.117  0.00  0.00    -0.036 A 
ATOM     28  C   UNL     1       0.390   0.803  -5.170  0.00  0.00    +0.020 A 
ATOM     29  C   UNL     1       1.513   0.032  -4.926  0.00  0.00    +0.021 A 
ATOM     30 BR   UNL     1       2.517  -0.659  -6.372  0.00  0.00    -0.050 Br
ATOM     31  C   UNL     1      -1.567   2.148  -4.384  0.00  0.00    +0.045 C 
ENDBRANCH  22  26
ENDBRANCH  21  22
ENDBRANCH   1  21
TORSDOF 5
