REMARK  Name = ZINC65021967
REMARK  5 active torsions:
REMARK  status: ('A' for Active; 'I' for Inactive)
REMARK    1  A    between atoms: C_3  and  C_30
REMARK    2  A    between atoms: C_5  and  N_7
REMARK    3  A    between atoms: C_8  and  C_10
REMARK    4  A    between atoms: N_13  and  S_16
REMARK    5  A    between atoms: S_16  and  C_19
REMARK                            x       y       z     vdW  Elec       q    Type
REMARK                         _______ _______ _______ _____ _____    ______ ____
ROOT
ATOM      1  C   UNL     1       0.119  -4.276   0.192  0.00  0.00    +0.078 C 
ATOM      2  C   UNL     1       0.787  -4.859  -1.055  0.00  0.00    +0.030 C 
ATOM      3  C   UNL     1       0.850  -6.385  -0.929  0.00  0.00    +0.110 C 
ATOM      4  N   UNL     1      -0.505  -6.894  -0.676  0.00  0.00    -0.177 NA
ATOM      5  C   UNL     1      -1.272  -6.335   0.445  0.00  0.00    +0.110 C 
ATOM      6  C   UNL     1      -1.310  -4.810   0.304  0.00  0.00    +0.030 C 
ENDROOT
BRANCH   1   8
ATOM      7  N   UNL     1       1.237  -2.080  -0.021  0.00  0.00    -0.285 N 
ATOM      8  C   UNL     1       0.087  -2.773   0.087  0.00  0.00    +0.220 C 
ATOM      9  O   UNL     1      -0.975  -2.187   0.101  0.00  0.00    -0.275 OA
ATOM     10  H   UNL     1       2.081  -2.551  -0.110  0.00  0.00    +0.155 HD
BRANCH   7  15
ATOM     11  C   UNL     1       2.115   1.418  -0.740  0.00  0.00    +0.002 A 
ATOM     12  C   UNL     1       1.173   2.086   0.021  0.00  0.00    +0.012 A 
ATOM     13  C   UNL     1       0.252   1.374   0.767  0.00  0.00    +0.057 A 
ATOM     14  C   UNL     1       0.271  -0.007   0.755  0.00  0.00    +0.035 A 
ATOM     15  C   UNL     1       1.216  -0.681  -0.008  0.00  0.00    +0.034 A 
ATOM     16  C   UNL     1       2.139   0.037  -0.756  0.00  0.00    +0.023 A 
BRANCH  13  17
ATOM     17  C   UNL     1      -0.772   2.106   1.595  0.00  0.00    +0.417 C 
ATOM     18  F   UNL     1      -0.593   3.485   1.447  0.00  0.00    -0.166 F 
ATOM     19  F   UNL     1      -2.057   1.754   1.165  0.00  0.00    -0.166 F 
ATOM     20  F   UNL     1      -0.619   1.758   2.941  0.00  0.00    -0.166 F 
ENDBRANCH  13  17
ENDBRANCH   7  15
ENDBRANCH   1   8
BRANCH   4  21
ATOM     21  S   UNL     1      -1.155  -8.076  -1.637  0.00  0.00    +0.061 S 
ATOM     22  O   UNL     1      -2.567  -7.956  -1.529  0.00  0.00    -0.153 OA
ATOM     23  O   UNL     1      -0.477  -8.005  -2.884  0.00  0.00    -0.153 OA
BRANCH  21  24
ATOM     24  C   UNL     1      -0.725  -9.627  -0.918  0.00  0.00    +0.107 A 
ATOM     25  C   UNL     1       0.450 -10.264  -1.277  0.00  0.00    +0.030 A 
ATOM     26  C   UNL     1       0.802 -11.474  -0.728  0.00  0.00    +0.029 A 
ATOM     27  C   UNL     1      -0.024 -12.104   0.218  0.00  0.00    +0.056 A 
ATOM     28  C   UNL     1      -1.207 -11.432   0.561  0.00  0.00    +0.042 A 
ATOM     29  C   UNL     1      -1.555 -10.220   0.017  0.00  0.00    +0.045 A 
ATOM     30  S   UNL     1      -1.957 -12.517   1.752  0.00  0.00    -0.027 S 
ATOM     31  C   UNL     1      -0.703 -13.787   1.749  0.00  0.00    +0.289 A 
ATOM     32  O   UNL     1      -0.664 -14.822   2.390  0.00  0.00    -0.260 OA
ATOM     33  N   UNL     1       0.190 -13.313   0.858  0.00  0.00    -0.316 N 
ATOM     34  H   UNL     1       0.991 -13.824   0.662  0.00  0.00    +0.169 HD
ENDBRANCH  21  24
ENDBRANCH   4  21
TORSDOF 5
