REMARK  Name = ZINC09298600
REMARK  7 active torsions:
REMARK  status: ('A' for Active; 'I' for Inactive)
REMARK    1  A    between atoms: C_1  and  C_2
REMARK    2  A    between atoms: C_5  and  S_8
REMARK    3  A    between atoms: S_8  and  N_11
REMARK    4  A    between atoms: N_11  and  C_12
REMARK    5  A    between atoms: C_17  and  C_18
REMARK    6  A    between atoms: C_30  and  C_36
REMARK    7  A    between atoms: C_32  and  C_35
REMARK                            x       y       z     vdW  Elec       q    Type
REMARK                         _______ _______ _______ _____ _____    ______ ____
ROOT
ATOM      1  C   UNL     1       1.686  11.245   1.295  0.00  0.00    +0.249 C 
ATOM      2  O   UNL     1       2.704  11.839   1.592  0.00  0.00    -0.270 OA
ATOM      3  N   UNL     1       1.734   9.931   0.998  0.00  0.00    -0.294 N 
ATOM      4  C   UNL     1       0.506   9.178   0.702  0.00  0.00    +0.127 C 
ATOM      5  C   UNL     1       0.484   7.920   1.578  0.00  0.00    +0.126 C 
ATOM      6  N   UNL     1       1.733   7.171   1.386  0.00  0.00    -0.307 N 
ATOM      7  C   UNL     1       2.896   7.954   1.826  0.00  0.00    +0.126 C 
ATOM      8  C   UNL     1       3.018   9.213   0.960  0.00  0.00    +0.127 C 
ATOM      9  C   UNL     1       1.684   5.953   2.032  0.00  0.00    +0.162 A 
ATOM     10  N   UNL     1       0.708   5.438   2.745  0.00  0.00    -0.225 NA
ATOM     11  C   UNL     1       0.799   4.221   3.325  0.00  0.00    +0.081 A 
ATOM     12  C   UNL     1      -0.169   3.555   4.112  0.00  0.00    +0.032 A 
ATOM     13  C   UNL     1       0.082   2.309   4.626  0.00  0.00    -0.048 A 
ATOM     14  C   UNL     1       1.291   1.665   4.406  0.00  0.00    +0.008 A 
ATOM     15  C   UNL     1       2.261   2.288   3.642  0.00  0.00    -0.034 A 
ATOM     16  C   UNL     1       2.015   3.532   3.118  0.00  0.00    +0.044 A 
ATOM     17  S   UNL     1       2.931   4.675   2.112  0.00  0.00    -0.052 S 
ATOM     18  C   UNL     1       3.579   1.604   3.385  0.00  0.00    +0.045 C 
ATOM     19  C   UNL     1      -0.976   1.627   5.454  0.00  0.00    +0.044 C 
ENDROOT
BRANCH   1  25
ATOM     20  C   UNL     1       0.130  12.979   2.187  0.00  0.00    +0.060 A 
ATOM     21  C   UNL     1      -1.088  13.647   2.143  0.00  0.00    +0.025 A 
ATOM     22  C   UNL     1      -2.027  13.309   1.192  0.00  0.00    +0.002 A 
ATOM     23  C   UNL     1      -1.766  12.303   0.274  0.00  0.00    +0.001 A 
ATOM     24  C   UNL     1      -0.562  11.634   0.298  0.00  0.00    +0.015 A 
ATOM     25  C   UNL     1       0.398  11.961   1.260  0.00  0.00    +0.059 A 
BRANCH  20  26
ATOM     26  N   UNL     1       1.078  13.318   3.144  0.00  0.00    -0.216 N 
ATOM     27  H   UNL     1       2.020  13.173   2.966  0.00  0.00    +0.174 HD
BRANCH  26  28
ATOM     28  S   UNL     1       0.599  13.971   4.589  0.00  0.00    +0.072 S 
ATOM     29  O   UNL     1       1.765  14.071   5.396  0.00  0.00    -0.150 OA
ATOM     30  O   UNL     1      -0.210  15.097   4.277  0.00  0.00    -0.150 OA
BRANCH  28  35
ATOM     31  C   UNL     1      -3.008   9.940   7.261  0.00  0.00    +0.044 C 
ATOM     32  C   UNL     1      -2.107  10.947   6.594  0.00  0.00    -0.050 A 
ATOM     33  C   UNL     1      -0.744  10.915   6.825  0.00  0.00    +0.005 A 
ATOM     34  C   UNL     1       0.082  11.839   6.213  0.00  0.00    +0.029 A 
ATOM     35  C   UNL     1      -0.454  12.794   5.369  0.00  0.00    +0.109 A 
ATOM     36  C   UNL     1      -1.817  12.829   5.142  0.00  0.00    +0.029 A 
ATOM     37  C   UNL     1      -2.643  11.902   5.751  0.00  0.00    +0.005 A 
ENDBRANCH  28  35
ENDBRANCH  26  28
ENDBRANCH  20  26
ENDBRANCH   1  25
TORSDOF 4
