REMARK  Name = ZINC25613576
REMARK  7 active torsions:
REMARK  status: ('A' for Active; 'I' for Inactive)
REMARK    1  A    between atoms: C_4  and  N_7
REMARK    2  A    between atoms: N_10  and  C_11
REMARK    3  A    between atoms: C_15  and  N_17
REMARK    4  A    between atoms: C_18  and  C_20
REMARK    5  A    between atoms: C_25  and  S_26
REMARK    6  A    between atoms: S_26  and  C_27
REMARK    7  A    between atoms: C_27  and  C_28
REMARK                            x       y       z     vdW  Elec       q    Type
REMARK                         _______ _______ _______ _____ _____    ______ ____
ROOT
ATOM      1  C   UNL     1      -4.386   4.303  -7.597  0.00  0.00    +0.037 A 
ATOM      2  C   UNL     1      -5.105   4.905  -6.572  0.00  0.00    +0.023 A 
ATOM      3  C   UNL     1      -4.756   4.674  -5.255  0.00  0.00    +0.004 A 
ATOM      4  C   UNL     1      -3.693   3.845  -4.953  0.00  0.00    +0.023 A 
ATOM      5  C   UNL     1      -2.971   3.240  -5.974  0.00  0.00    +0.035 A 
ATOM      6  C   UNL     1      -3.314   3.475  -7.298  0.00  0.00    +0.046 A 
ENDROOT
BRANCH   1  10
ATOM      7  N   UNL     1      -5.457   6.000 -10.602  0.00  0.00    -0.269 N 
ATOM      8  C   UNL     1      -5.205   5.746  -9.303  0.00  0.00    +0.308 C 
ATOM      9  O   UNL     1      -5.397   6.607  -8.466  0.00  0.00    -0.252 OA
ATOM     10  N   UNL     1      -4.740   4.537  -8.931  0.00  0.00    -0.269 N 
ATOM     11  H   UNL     1      -5.369   5.196 -11.347  0.00  0.00    +0.156 HD
ATOM     12  H   UNL     1      -4.639   3.733  -9.675  0.00  0.00    +0.156 HD
BRANCH   7  16
ATOM     13  C   UNL     1      -6.574   9.833 -11.796  0.00  0.00    +0.000 A 
ATOM     14  C   UNL     1      -5.671   9.668 -10.761  0.00  0.00    +0.002 A 
ATOM     15  C   UNL     1      -5.300   8.399 -10.363  0.00  0.00    +0.023 A 
ATOM     16  C   UNL     1      -5.833   7.287 -11.003  0.00  0.00    +0.035 A 
ATOM     17  C   UNL     1      -6.734   7.457 -12.045  0.00  0.00    +0.023 A 
ATOM     18  C   UNL     1      -7.106   8.728 -12.436  0.00  0.00    +0.002 A 
ENDBRANCH   7  16
ENDBRANCH   1  10
BRANCH   5  19
ATOM     19  N   UNL     1      -1.895   2.401  -5.669  0.00  0.00    -0.281 N 
ATOM     20  C   UNL     1      -1.529   1.432  -6.532  0.00  0.00    +0.249 C 
ATOM     21  O   UNL     1      -2.198   1.219  -7.525  0.00  0.00    -0.270 OA
ATOM     22  H   UNL     1      -1.347   2.531  -4.724  0.00  0.00    +0.155 HD
BRANCH  20  23
ATOM     23  C   UNL     1      -0.320   0.632  -6.272  0.00  0.00    +0.050 A 
ATOM     24  C   UNL     1       0.452   0.874  -5.132  0.00  0.00    +0.014 A 
ATOM     25  C   UNL     1       1.581   0.122  -4.895  0.00  0.00    +0.001 A 
ATOM     26  C   UNL     1       1.959  -0.875  -5.781  0.00  0.00    +0.001 A 
ATOM     27  C   UNL     1       1.206  -1.130  -6.908  0.00  0.00    +0.015 A 
ATOM     28  C   UNL     1       0.066  -0.378  -7.168  0.00  0.00    +0.020 A 
BRANCH  28  29
ATOM     29  S   UNL     1      -0.896  -0.697  -8.610  0.00  0.00    -0.119 S 
BRANCH  29  30
ATOM     30  C   UNL     1      -0.018  -2.056  -9.431  0.00  0.00    +0.116 C 
BRANCH  30  31
ATOM     31  C   UNL     1      -0.746  -2.432 -10.696  0.00  0.00    -0.000 A 
ATOM     32  C   UNL     1      -0.581  -1.947 -11.951  0.00  0.00    +0.012 A 
ATOM     33  C   UNL     1      -1.369  -2.446 -12.971  0.00  0.00    +0.008 A 
ATOM     34  C   UNL     1      -2.283  -3.406 -12.686  0.00  0.00    +0.045 A 
ATOM     35  S   UNL     1      -2.042  -3.636 -10.932  0.00  0.00    -0.101 S 
ENDBRANCH  30  31
ENDBRANCH  29  30
ENDBRANCH  28  29
ENDBRANCH  20  23
ENDBRANCH   5  19
TORSDOF 7
