REMARK  Name = ZINC38905634
REMARK  9 active torsions:
REMARK  status: ('A' for Active; 'I' for Inactive)
REMARK    1  A    between atoms: C_1  and  C_2
REMARK    2  A    between atoms: C_2  and  C_4
REMARK    3  A    between atoms: C_2  and  N_12
REMARK    4  A    between atoms: C_7  and  O_10
REMARK    5  A    between atoms: O_10  and  C_11
REMARK    6  A    between atoms: C_13  and  C_15
REMARK    7  A    between atoms: N_20  and  C_22
REMARK    8  A    between atoms: C_22  and  C_23
REMARK    9  A    between atoms: C_25  and  C_28
REMARK                            x       y       z     vdW  Elec       q    Type
REMARK                         _______ _______ _______ _____ _____    ______ ____
ROOT
ATOM      1  C   UNL     1      -3.465  -1.164  -1.134  0.00  0.00    +0.058 C 
ATOM      2  C   UNL     1      -4.346  -0.235  -0.294  0.00  0.00    +0.009 C 
ATOM      3  C   UNL     1      -5.794  -0.730  -0.354  0.00  0.00    -0.018 C 
ATOM      4  C   UNL     1      -6.246  -0.794  -1.815  0.00  0.00    -0.078 C 
ATOM      5  N   UNL     1      -5.380  -1.718  -2.558  0.00  0.00    +0.386 N 
ATOM      6  C   UNL     1      -4.002  -1.214  -2.566  0.00  0.00    -0.065 C 
ATOM      7  H   UNL     1      -5.402  -2.626  -2.118  0.00  0.00    -0.081 HD
ENDROOT
BRANCH   1   9
ATOM      8  N   UNL     1      -1.372  -0.511   0.012  0.00  0.00    -0.309 N 
ATOM      9  C   UNL     1      -2.051  -0.643  -1.145  0.00  0.00    +0.215 C 
ATOM     10  O   UNL     1      -1.524  -0.341  -2.194  0.00  0.00    -0.276 OA
ATOM     11  H   UNL     1      -1.794  -0.752   0.852  0.00  0.00    +0.149 HD
BRANCH   8  13
ATOM     12  C   UNL     1      -0.019   1.526   0.010  0.00  0.00    +0.033 C 
ATOM     13  C   UNL     1       0.002  -0.004   0.002  0.00  0.00    +0.100 C 
BRANCH  13  14
ATOM     14  C   UNL     1       0.731  -0.503   1.223  0.00  0.00    -0.027 A 
ATOM     15  C   UNL     1       0.080  -0.558   2.441  0.00  0.00    +0.009 A 
ATOM     16  C   UNL     1       0.746  -1.015   3.562  0.00  0.00    +0.046 A 
ATOM     17  C   UNL     1       2.069  -1.419   3.464  0.00  0.00    +0.120 A 
ATOM     18  C   UNL     1       2.720  -1.364   2.240  0.00  0.00    +0.046 A 
ATOM     19  C   UNL     1       2.048  -0.911   1.122  0.00  0.00    +0.009 A 
BRANCH  17  20
ATOM     20  O   UNL     1       2.727  -1.869   4.565  0.00  0.00    -0.495 OA
ATOM     21  C   UNL     1       4.087  -2.268   4.390  0.00  0.00    +0.277 C 
ENDBRANCH  17  20
ENDBRANCH  13  14
ENDBRANCH   8  13
ENDBRANCH   1   9
BRANCH   5  22
ATOM     22  C   UNL     1      -5.865  -1.836  -3.940  0.00  0.00    +0.022 C 
BRANCH  22  23
ATOM     23  C   UNL     1      -7.229  -2.478  -3.941  0.00  0.00    +0.211 A 
ATOM     24  N   UNL     1      -8.366  -1.847  -3.871  0.00  0.00    -0.193 NA
ATOM     25  C   UNL     1      -9.383  -2.728  -3.897  0.00  0.00    +0.202 A 
ATOM     26  N   UNL     1      -8.887  -3.937  -3.985  0.00  0.00    -0.056 NA
ATOM     27  O   UNL     1      -7.475  -3.792  -4.020  0.00  0.00    -0.340 OA
BRANCH  25  28
ATOM     28  C   UNL     1     -10.826  -2.386  -3.835  0.00  0.00    +0.023 A 
ATOM     29  C   UNL     1     -11.226  -1.054  -3.748  0.00  0.00    +0.013 A 
ATOM     30  C   UNL     1     -12.568  -0.742  -3.691  0.00  0.00    +0.016 A 
ATOM     31  C   UNL     1     -13.518  -1.749  -3.720  0.00  0.00    +0.018 A 
ATOM     32  C   UNL     1     -13.125  -3.074  -3.807  0.00  0.00    +0.016 A 
ATOM     33  C   UNL     1     -11.785  -3.396  -3.871  0.00  0.00    +0.013 A 
ATOM     34 BR   UNL     1     -15.356  -1.314  -3.641  0.00  0.00    -0.050 Br
ENDBRANCH  25  28
ENDBRANCH  22  23
ENDBRANCH   5  22
TORSDOF 7
