REMARK  Name = ZINC32970967
REMARK  8 active torsions:
REMARK  status: ('A' for Active; 'I' for Inactive)
REMARK    1  A    between atoms: C_1  and  C_2
REMARK    2  A    between atoms: C_2  and  C_4
REMARK    3  A    between atoms: C_2  and  N_21
REMARK    4  A    between atoms: C_9  and  C_12
REMARK    5  A    between atoms: N_21  and  S_22
REMARK    6  A    between atoms: S_22  and  C_25
REMARK    7  A    between atoms: C_28  and  N_31
REMARK    8  A    between atoms: C_32  and  C_34
REMARK                            x       y       z     vdW  Elec       q    Type
REMARK                         _______ _______ _______ _____ _____    ______ ____
ROOT
ATOM      1  C   UNL     1       0.076   2.852   3.091  0.00  0.00    +0.035 C 
ATOM      2  C   UNL     1      -0.987   3.612   2.295  0.00  0.00    +0.159 C 
ENDROOT
BRANCH   2   3
ATOM      3  C   UNL     1      -1.804   4.463   3.232  0.00  0.00    +0.237 C 
ATOM      4  O   UNL     1      -3.000   4.289   3.323  0.00  0.00    -0.274 OA
ATOM      5  N   UNL     1      -1.204   5.419   3.970  0.00  0.00    -0.263 N 
ATOM      6  C   UNL     1      -1.957   6.204   4.834  0.00  0.00    +0.165 A 
ATOM      7  N   UNL     1      -1.565   7.180   5.633  0.00  0.00    -0.225 NA
ATOM      8  C   UNL     1      -2.428   7.830   6.399  0.00  0.00    +0.080 A 
ATOM      9  C   UNL     1      -3.750   7.485   6.362  0.00  0.00    +0.076 A 
ATOM     10  S   UNL     1      -3.716   6.167   5.155  0.00  0.00    -0.060 S 
ATOM     11  H   UNL     1      -0.119   5.578   3.888  0.00  0.00    +0.157 HD
BRANCH   8  12
ATOM     12  C   UNL     1      -1.964   8.923   7.288  0.00  0.00    +0.005 A 
ATOM     13  C   UNL     1      -2.856   9.535   8.167  0.00  0.00    +0.014 A 
ATOM     14  C   UNL     1      -2.423  10.551   8.993  0.00  0.00    +0.050 A 
ATOM     15  C   UNL     1      -1.101  10.968   8.953  0.00  0.00    +0.166 A 
ATOM     16  C   UNL     1      -0.205  10.360   8.076  0.00  0.00    +0.167 A 
ATOM     17  C   UNL     1      -0.634   9.337   7.249  0.00  0.00    +0.059 A 
ATOM     18  O   UNL     1       1.019  10.945   8.229  0.00  0.00    -0.453 OA
ATOM     19  C   UNL     1       0.961  11.634   9.491  0.00  0.00    +0.466 C 
ATOM     20  O   UNL     1      -0.438  11.934   9.654  0.00  0.00    -0.453 OA
ENDBRANCH   8  12
ENDBRANCH   2   3
BRANCH   2  21
ATOM     21  N   UNL     1      -1.864   2.656   1.614  0.00  0.00    -0.178 NA
ATOM     22  H   UNL     1      -2.620   2.099   2.187  0.00  0.00    +0.149 HD
BRANCH  21  23
ATOM     23  S   UNL     1      -1.561   2.227   0.044  0.00  0.00    +0.059 S 
ATOM     24  O   UNL     1      -1.363   3.436  -0.676  0.00  0.00    -0.153 OA
ATOM     25  O   UNL     1      -2.555   1.279  -0.317  0.00  0.00    -0.153 OA
BRANCH  23  26
ATOM     26  C   UNL     1      -0.020   1.372   0.025  0.00  0.00    +0.105 A 
ATOM     27  C   UNL     1       1.157   2.075  -0.160  0.00  0.00    +0.030 A 
ATOM     28  C   UNL     1       2.365   1.407  -0.181  0.00  0.00    +0.025 A 
ATOM     29  C   UNL     1       2.398   0.029  -0.015  0.00  0.00    +0.033 A 
ATOM     30  C   UNL     1       1.215  -0.674   0.171  0.00  0.00    +0.025 A 
ATOM     31  C   UNL     1       0.010  -0.000   0.191  0.00  0.00    +0.030 A 
BRANCH  29  32
ATOM     32  N   UNL     1       3.622  -0.651  -0.035  0.00  0.00    -0.286 N 
ATOM     33  C   UNL     1       3.690  -1.900  -0.534  0.00  0.00    +0.214 C 
ATOM     34  O   UNL     1       2.715  -2.400  -1.054  0.00  0.00    -0.276 OA
ATOM     35  C   UNL     1       4.979  -2.677  -0.448  0.00  0.00    +0.109 C 
ATOM     36  H   UNL     1       4.527  -0.165   0.358  0.00  0.00    +0.155 HD
ENDBRANCH  29  32
ENDBRANCH  23  26
ENDBRANCH  21  23
ENDBRANCH   2  21
TORSDOF 6
