REMARK  Name = ZINC39609258
REMARK  8 active torsions:
REMARK  status: ('A' for Active; 'I' for Inactive)
REMARK    1  A    between atoms: C_1  and  C_2
REMARK    2  A    between atoms: C_5  and  C_9
REMARK    3  A    between atoms: C_7  and  C_8
REMARK    4  A    between atoms: C_9  and  C_10
REMARK    5  A    between atoms: C_10  and  N_11
REMARK    6  A    between atoms: C_12  and  C_14
REMARK    7  A    between atoms: C_25  and  C_27
REMARK    8  A    between atoms: C_31  and  C_33
REMARK                            x       y       z     vdW  Elec       q    Type
REMARK                         _______ _______ _______ _____ _____    ______ ____
ROOT
ATOM      1  C   UNL     1       2.860  -8.050   0.536  0.00  0.00    +0.100 C 
ATOM      2  C   UNL     1       2.179  -8.857   1.665  0.00  0.00    +0.121 C 
ATOM      3  N   UNL     1       3.038 -10.052   1.841  0.00  0.00    -0.296 N 
ATOM      4  C   UNL     1       4.421  -9.537   1.698  0.00  0.00    +0.115 C 
ATOM      5  C   UNL     1       4.331  -8.499   0.562  0.00  0.00    -0.004 C 
ATOM      6  C   UNL     1       5.240  -7.311   0.860  0.00  0.00    -0.010 C 
ATOM      7  C   UNL     1       6.701  -7.769   0.823  0.00  0.00    -0.082 C 
ATOM      8  N   UNL     1       7.007  -8.325  -0.501  0.00  0.00    +0.379 N 
ATOM      9  C   UNL     1       6.193  -9.523  -0.741  0.00  0.00    -0.082 C 
ATOM     10  C   UNL     1       4.711  -9.139  -0.770  0.00  0.00    -0.010 C 
ATOM     11  C   UNL     1       2.649 -11.321   2.077  0.00  0.00    +0.247 C 
ATOM     12  O   UNL     1       1.470 -11.612   2.040  0.00  0.00    -0.270 OA
ATOM     13  H   UNL     1       6.805  -7.636  -1.209  0.00  0.00    -0.086 HD
ATOM     14  H   UNL     1       7.985  -8.571  -0.543  0.00  0.00    -0.086 HD
ENDROOT
BRANCH  11  15
ATOM     15  C   UNL     1       3.658 -12.358   2.380  0.00  0.00    +0.037 A 
ATOM     16  C   UNL     1       4.922 -11.992   2.846  0.00  0.00    +0.014 A 
ATOM     17  C   UNL     1       5.858 -12.964   3.127  0.00  0.00    +0.016 A 
ATOM     18  C   UNL     1       5.547 -14.302   2.949  0.00  0.00    +0.021 A 
ATOM     19  C   UNL     1       4.295 -14.671   2.488  0.00  0.00    -0.036 A 
ATOM     20  C   UNL     1       3.348 -13.708   2.208  0.00  0.00    +0.017 A 
ATOM     21  C   UNL     1       3.964 -16.129   2.296  0.00  0.00    +0.045 C 
ATOM     22 BR   UNL     1       6.837 -15.629   3.336  0.00  0.00    -0.050 Br
ENDBRANCH  11  15
BRANCH   1  24
ATOM     23  N   UNL     1       2.706  -5.698  -0.212  0.00  0.00    -0.315 N 
ATOM     24  C   UNL     1       2.757  -6.573   0.812  0.00  0.00    +0.218 C 
ATOM     25  O   UNL     1       2.720  -6.170   1.955  0.00  0.00    -0.275 OA
ATOM     26  H   UNL     1       2.735  -6.020  -1.127  0.00  0.00    +0.149 HD
BRANCH  23  27
ATOM     27  C   UNL     1       2.605  -4.261   0.056  0.00  0.00    +0.109 C 
BRANCH  27  28
ATOM     28  C   UNL     1       2.564  -3.497  -1.269  0.00  0.00    +0.054 C 
BRANCH  28  33
ATOM     29  C   UNL     1       2.169   2.171  -0.214  0.00  0.00    +0.044 C 
ATOM     30  C   UNL     1       2.272   0.693  -0.489  0.00  0.00    -0.048 A 
ATOM     31  C   UNL     1       3.514   0.096  -0.604  0.00  0.00    +0.004 A 
ATOM     32  C   UNL     1       3.608  -1.259  -0.856  0.00  0.00    +0.004 A 
ATOM     33  C   UNL     1       2.461  -2.019  -0.993  0.00  0.00    -0.046 A 
ATOM     34  C   UNL     1       1.220  -1.422  -0.877  0.00  0.00    +0.007 A 
ATOM     35  C   UNL     1       1.125  -0.067  -0.620  0.00  0.00    -0.047 A 
ATOM     36  C   UNL     1      -0.228   0.582  -0.488  0.00  0.00    +0.044 C 
ENDBRANCH  28  33
ENDBRANCH  27  28
ENDBRANCH  23  27
ENDBRANCH   1  24
TORSDOF 5
