REMARK  Name = ZINC22790608
REMARK  12 active torsions:
REMARK  status: ('A' for Active; 'I' for Inactive)
REMARK    1  A    between atoms: C_1  and  C_2
REMARK    2  A    between atoms: C_2  and  C_4
REMARK    3  A    between atoms: C_2  and  N_20
REMARK    4  A    between atoms: N_6  and  C_7
REMARK    5  A    between atoms: C_12  and  S_13
REMARK    6  A    between atoms: S_13  and  C_14
REMARK    7  A    between atoms: N_24  and  C_27
REMARK    8  A    between atoms: C_27  and  C_28
REMARK    9  A    between atoms: N_30  and  C_31
REMARK   10  A    between atoms: C_31  and  C_32
REMARK   11  A    between atoms: C_31  and  C_33
REMARK   12  A    between atoms: C_31  and  C_34
REMARK                            x       y       z     vdW  Elec       q    Type
REMARK                         _______ _______ _______ _____ _____    ______ ____
ROOT
ATOM      1  C   UNL     1      -0.412   1.887   1.163  0.00  0.00    +0.034 C 
ATOM      2  C   UNL     1      -0.016   1.505  -0.265  0.00  0.00    +0.140 C 
ENDROOT
BRANCH   2   3
ATOM      3  N   UNL     1       1.246   2.169  -0.617  0.00  0.00    -0.294 NA
ATOM      4  C   UNL     1       2.348   1.711   0.255  0.00  0.00    +0.083 C 
ATOM      5  C   UNL     1       3.649   1.873  -0.491  0.00  0.00    -0.003 C 
ATOM      6  C   UNL     1       4.314   3.229  -0.206  0.00  0.00    -0.077 C 
ATOM      7  N   UNL     1       3.338   4.342  -0.174  0.00  0.00    +0.386 N 
ATOM      8  C   UNL     1       2.336   4.271  -1.214  0.00  0.00    -0.063 C 
ATOM      9  C   UNL     1       1.087   3.560  -0.654  0.00  0.00    +0.066 C 
ATOM     10  H   UNL     1       2.772   4.242   0.763  0.00  0.00    -0.081 HD
BRANCH   7  11
ATOM     11  C   UNL     1       4.022   5.642  -0.191  0.00  0.00    +0.019 C 
BRANCH  11  12
ATOM     12  C   UNL     1       4.749   5.811  -1.500  0.00  0.00    +0.197 C 
ATOM     13  O   UNL     1       4.601   4.995  -2.385  0.00  0.00    -0.278 OA
ATOM     14  N   UNL     1       5.563   6.869  -1.687  0.00  0.00    -0.312 N 
ATOM     15  H   UNL     1       5.697   7.608  -0.884  0.00  0.00    +0.149 HD
BRANCH  14  16
ATOM     16  C   UNL     1       6.270   7.033  -2.960  0.00  0.00    +0.026 C 
ATOM     17  C   UNL     1       5.252   7.143  -4.098  0.00  0.00    +0.031 C 
ATOM     18  C   UNL     1       7.120   8.304  -2.911  0.00  0.00    +0.031 C 
ATOM     19  C   UNL     1       7.175   5.823  -3.201  0.00  0.00    +0.031 C 
ENDBRANCH  14  16
ENDBRANCH  11  12
ENDBRANCH   7  11
ENDBRANCH   2   3
BRANCH   2  20
ATOM     20  C   UNL     1       0.161   0.011  -0.355  0.00  0.00    +0.234 C 
ATOM     21  O   UNL     1       1.232  -0.454  -0.680  0.00  0.00    -0.274 OA
ATOM     22  N   UNL     1      -0.872  -0.808  -0.073  0.00  0.00    -0.283 N 
ATOM     23  H   UNL     1      -1.839  -0.386   0.237  0.00  0.00    +0.155 HD
BRANCH  22  24
ATOM     24  C   UNL     1      -0.714  -2.196  -0.176  0.00  0.00    +0.047 A 
ATOM     25  C   UNL     1       0.555  -2.756  -0.138  0.00  0.00    +0.024 A 
ATOM     26  C   UNL     1       0.709  -4.126  -0.234  0.00  0.00    +0.002 A 
ATOM     27  C   UNL     1      -0.399  -4.943  -0.379  0.00  0.00    +0.001 A 
ATOM     28  C   UNL     1      -1.666  -4.394  -0.423  0.00  0.00    +0.017 A 
ATOM     29  C   UNL     1      -1.831  -3.019  -0.322  0.00  0.00    +0.034 A 
BRANCH  29  30
ATOM     30  S   UNL     1      -3.445  -2.316  -0.379  0.00  0.00    -0.088 S 
BRANCH  30  31
ATOM     31  C   UNL     1      -4.518  -3.713  -0.402  0.00  0.00    +0.013 A 
ATOM     32  C   UNL     1      -4.987  -4.212  -1.611  0.00  0.00    +0.015 A 
ATOM     33  C   UNL     1      -5.822  -5.311  -1.625  0.00  0.00    +0.001 A 
ATOM     34  C   UNL     1      -6.203  -5.908  -0.437  0.00  0.00    +0.000 A 
ATOM     35  C   UNL     1      -5.744  -5.410   0.769  0.00  0.00    +0.001 A 
ATOM     36  C   UNL     1      -4.903  -4.315   0.790  0.00  0.00    +0.015 A 
ENDBRANCH  30  31
ENDBRANCH  29  30
ENDBRANCH  22  24
ENDBRANCH   2  20
TORSDOF 8
