REMARK  Name = ZINC33705185
REMARK  9 active torsions:
REMARK  status: ('A' for Active; 'I' for Inactive)
REMARK    1  A    between atoms: C_1  and  C_2
REMARK    2  A    between atoms: C_2  and  C_3
REMARK    3  A    between atoms: C_3  and  C_5
REMARK    4  A    between atoms: C_3  and  C_6
REMARK    5  A    between atoms: C_9  and  N_12
REMARK    6  A    between atoms: C_13  and  C_39
REMARK    7  A    between atoms: C_15  and  C_18
REMARK    8  A    between atoms: C_16  and  C_17
REMARK    9  A    between atoms: C_30  and  C_31
REMARK                            x       y       z     vdW  Elec       q    Type
REMARK                         _______ _______ _______ _____ _____    ______ ____
ROOT
ATOM      1  C   UNL     1       6.051   4.335   1.367  0.00  0.00    +0.026 C 
ATOM      2  C   UNL     1       6.939   5.174   0.726  0.00  0.00    +0.085 A 
ATOM      3  C   UNL     1       7.886   6.040   1.482  0.00  0.00    +0.160 A 
ATOM      4  N   UNL     1       7.603   6.565   2.646  0.00  0.00    -0.281 NA
ATOM      5  N   UNL     1       9.117   6.239   0.822  0.00  0.00    -0.212 N 
ATOM      6  C   UNL     1       9.143   6.056  -0.544  0.00  0.00    +0.199 A 
ATOM      7  N   UNL     1       8.167   5.646  -1.314  0.00  0.00    -0.182 NA
ATOM      8  C   UNL     1       7.007   5.258  -0.753  0.00  0.00    +0.283 A 
ATOM      9  O   UNL     1       6.037   4.987  -1.443  0.00  0.00    -0.265 OA
ATOM     10  S   UNL     1      10.820   6.474  -0.944  0.00  0.00    -0.031 S 
ATOM     11  C   UNL     1      11.377   6.824   0.719  0.00  0.00    +0.101 A 
ATOM     12  N   UNL     1      10.299   6.620   1.420  0.00  0.00    -0.283 N 
ATOM     13  C   UNL     1      12.744   7.247   1.188  0.00  0.00    +0.102 C 
ATOM     14  H   UNL     1       8.343   7.198   3.158  0.00  0.00    +0.188 HD
ATOM     15  H   UNL     1      10.344   6.756   2.510  0.00  0.00    +0.188 HD
ENDROOT
BRANCH  13  16
ATOM     16  C   UNL     1      12.729   7.424   2.685  0.00  0.00    +0.242 C 
ATOM     17  O   UNL     1      11.708   7.226   3.308  0.00  0.00    -0.271 OA
ATOM     18  N   UNL     1      13.850   7.803   3.330  0.00  0.00    -0.298 N 
ATOM     19  C   UNL     1      15.096   8.041   2.589  0.00  0.00    +0.108 C 
ATOM     20  C   UNL     1      15.613   9.445   2.940  0.00  0.00    +0.019 C 
ATOM     21  C   UNL     1      15.753   9.565   4.459  0.00  0.00    +0.003 C 
ATOM     22  C   UNL     1      14.383   9.378   5.116  0.00  0.00    +0.019 C 
ATOM     23  C   UNL     1      13.851   7.979   4.789  0.00  0.00    +0.108 C 
ENDBRANCH  13  16
BRANCH   1  27
ATOM     24  N   UNL     1       3.639   2.100  -0.075  0.00  0.00    -0.317 N 
ATOM     25  C   UNL     1       4.662   1.925  -0.965  0.00  0.00    +0.022 A 
ATOM     26  C   UNL     1       5.701   2.695  -0.601  0.00  0.00    +0.031 A 
ATOM     27  C   UNL     1       5.286   3.406   0.616  0.00  0.00    -0.003 A 
ATOM     28  C   UNL     1       3.991   2.988   0.877  0.00  0.00    +0.028 A 
ATOM     29  C   UNL     1       3.128   3.442   2.026  0.00  0.00    +0.064 C 
ATOM     30  C   UNL     1       4.630   1.012  -2.164  0.00  0.00    +0.064 C 
BRANCH  24  34
ATOM     31  C   UNL     1      -0.052   0.176  -0.286  0.00  0.00    -0.044 A 
ATOM     32  C   UNL     1       0.020   1.548  -0.440  0.00  0.00    +0.006 A 
ATOM     33  C   UNL     1       1.242   2.189  -0.370  0.00  0.00    +0.026 A 
ATOM     34  C   UNL     1       2.398   1.453  -0.145  0.00  0.00    +0.047 A 
ATOM     35  C   UNL     1       2.322   0.075   0.008  0.00  0.00    +0.026 A 
ATOM     36  C   UNL     1       1.097  -0.559  -0.062  0.00  0.00    +0.006 A 
BRANCH  31  37
ATOM     37  C   UNL     1      -1.387  -0.520  -0.362  0.00  0.00    +0.016 C 
ATOM     38  C   UNL     1      -1.661  -1.244   0.958  0.00  0.00    +0.012 C 
BRANCH  37  40
ATOM     39  C   UNL     1      -2.760  -2.151  -1.663  0.00  0.00    +0.004 C 
ATOM     40  C   UNL     1      -1.369  -1.535  -1.506  0.00  0.00    +0.004 C 
ENDBRANCH  37  40
ENDBRANCH  31  37
ENDBRANCH  24  34
ENDBRANCH   1  27
TORSDOF 5
