REMARK  Name = ZINC15106677
REMARK  6 active torsions:
REMARK  status: ('A' for Active; 'I' for Inactive)
REMARK    1  A    between atoms: C_1  and  C_2
REMARK    2  A    between atoms: C_6  and  C_7
REMARK    3  A    between atoms: N_9  and  C_10
REMARK    4  A    between atoms: C_13  and  O_16
REMARK    5  A    between atoms: O_16  and  C_17
REMARK    6  A    between atoms: C_22  and  C_24
REMARK                            x       y       z     vdW  Elec       q    Type
REMARK                         _______ _______ _______ _____ _____    ______ ____
ROOT
ATOM      1  C   UNL     1      -3.605  -2.542   0.369  0.00  0.00    +0.045 C 
ATOM      2  C   UNL     1      -2.183  -3.038   0.331  0.00  0.00    -0.026 A 
ATOM      3  C   UNL     1      -1.899  -4.382   0.412  0.00  0.00    -0.007 A 
ATOM      4  C   UNL     1      -0.557  -4.739   0.362  0.00  0.00    +0.076 A 
ATOM      5  S   UNL     1       0.285  -3.250   0.210  0.00  0.00    -0.068 S 
ATOM      6  C   UNL     1      -1.122  -2.152   0.213  0.00  0.00    +0.079 A 
ATOM      7  N   UNL     1      -0.086  -6.032   0.413  0.00  0.00    -0.280 N 
ATOM      8  C   UNL     1      -0.989  -7.033   0.296  0.00  0.00    +0.218 C 
ATOM      9  O   UNL     1      -0.644  -8.175   0.513  0.00  0.00    -0.275 OA
ATOM     10  C   UNL     1      -2.411  -6.753  -0.099  0.00  0.00    +0.109 C 
ATOM     11  C   UNL     1      -2.945  -5.483   0.563  0.00  0.00    +0.060 C 
ATOM     12  H   UNL     1       0.859  -6.218   0.528  0.00  0.00    +0.155 HD
ENDROOT
BRANCH  11  13
ATOM     13  C   UNL     1      -4.225  -5.061  -0.111  0.00  0.00    -0.036 A 
ATOM     14  C   UNL     1      -4.231  -4.773  -1.463  0.00  0.00    +0.008 A 
ATOM     15  C   UNL     1      -5.404  -4.392  -2.087  0.00  0.00    +0.050 A 
ATOM     16  C   UNL     1      -6.575  -4.284  -1.354  0.00  0.00    +0.166 A 
ATOM     17  C   UNL     1      -6.569  -4.568   0.009  0.00  0.00    +0.167 A 
ATOM     18  C   UNL     1      -5.390  -4.957   0.626  0.00  0.00    +0.053 A 
ATOM     19  O   UNL     1      -7.830  -4.390   0.498  0.00  0.00    -0.453 OA
ATOM     20  C   UNL     1      -8.518  -3.602  -0.491  0.00  0.00    +0.466 C 
ATOM     21  O   UNL     1      -7.841  -3.928  -1.719  0.00  0.00    -0.453 OA
ENDBRANCH  11  13
BRANCH   6  22
ATOM     22  C   UNL     1      -1.150  -0.694   0.111  0.00  0.00    +0.255 C 
ATOM     23  O   UNL     1      -2.215  -0.103   0.125  0.00  0.00    -0.269 OA
ATOM     24  N   UNL     1       0.002  -0.004   0.002  0.00  0.00    -0.281 N 
ATOM     25  H   UNL     1       0.845  -0.477  -0.076  0.00  0.00    +0.155 HD
BRANCH  24  26
ATOM     26  C   UNL     1      -0.018   1.396   0.002  0.00  0.00    +0.034 A 
ATOM     27  C   UNL     1      -1.069   2.076  -0.599  0.00  0.00    +0.027 A 
ATOM     28  C   UNL     1      -1.089   3.457  -0.595  0.00  0.00    +0.047 A 
ATOM     29  C   UNL     1      -0.056   4.165   0.001  0.00  0.00    +0.120 A 
ATOM     30  C   UNL     1       0.997   3.486   0.597  0.00  0.00    +0.047 A 
ATOM     31  C   UNL     1       1.017   2.106   0.598  0.00  0.00    +0.027 A 
BRANCH  29  32
ATOM     32  O   UNL     1      -0.075   5.524  -0.000  0.00  0.00    -0.495 OA
ATOM     33  C   UNL     1      -1.189   6.157  -0.632  0.00  0.00    +0.277 C 
ENDBRANCH  29  32
ENDBRANCH  24  26
ENDBRANCH   6  22
TORSDOF 4
