REMARK  Name = ZINC06553425
REMARK  6 active torsions:
REMARK  status: ('A' for Active; 'I' for Inactive)
REMARK    1  A    between atoms: C_1  and  C_2
REMARK    2  A    between atoms: N_4  and  C_5
REMARK    3  A    between atoms: C_8  and  S_11
REMARK    4  A    between atoms: S_11  and  N_14
REMARK    5  A    between atoms: C_28  and  N_30
REMARK    6  A    between atoms: N_30  and  C_31
REMARK                            x       y       z     vdW  Elec       q    Type
REMARK                         _______ _______ _______ _____ _____    ______ ____
ROOT
ATOM      1  N   UNL     1      -0.890  -7.003   1.964  0.00  0.00    -0.174 NA
ATOM      2  C   UNL     1       0.355  -7.118   2.736  0.00  0.00    +0.128 C 
ATOM      3  C   UNL     1       0.263  -6.193   3.955  0.00  0.00    +0.125 C 
ATOM      4  N   UNL     1      -1.017  -6.437   4.635  0.00  0.00    -0.299 N 
ATOM      5  C   UNL     1      -2.262  -6.321   3.862  0.00  0.00    +0.125 C 
ATOM      6  C   UNL     1      -2.170  -7.241   2.644  0.00  0.00    +0.128 C 
ATOM      7  C   UNL     1      -1.049  -6.770   5.977  0.00  0.00    +0.198 A 
ATOM      8  N   UNL     1       0.079  -6.750   6.660  0.00  0.00    -0.327 N 
ATOM      9  C   UNL     1       0.089  -7.066   7.963  0.00  0.00    +0.052 A 
ATOM     10  C   UNL     1       1.270  -7.054   8.720  0.00  0.00    +0.026 A 
ATOM     11  C   UNL     1       1.225  -7.384  10.042  0.00  0.00    +0.002 A 
ATOM     12  C   UNL     1       0.025  -7.732  10.654  0.00  0.00    +0.001 A 
ATOM     13  C   UNL     1      -1.142  -7.753   9.947  0.00  0.00    +0.013 A 
ATOM     14  C   UNL     1      -1.131  -7.420   8.588  0.00  0.00    +0.038 A 
ATOM     15  C   UNL     1      -2.311  -7.424   7.804  0.00  0.00    +0.132 A 
ATOM     16  N   UNL     1      -2.217  -7.091   6.525  0.00  0.00    -0.201 NA
ATOM     17  H   UNL     1       0.907  -6.505   6.217  0.00  0.00    +0.169 HD
ENDROOT
BRANCH   1  18
ATOM     18  S   UNL     1      -0.851  -6.604   0.357  0.00  0.00    +0.061 S 
ATOM     19  O   UNL     1      -2.056  -7.098  -0.213  0.00  0.00    -0.153 OA
ATOM     20  O   UNL     1       0.431  -6.983  -0.125  0.00  0.00    -0.153 OA
BRANCH  18  24
ATOM     21  C   UNL     1      -1.051  -2.087   0.093  0.00  0.00    +0.033 A 
ATOM     22  C   UNL     1       0.179  -2.726   0.176  0.00  0.00    +0.025 A 
ATOM     23  C   UNL     1       0.237  -4.103   0.256  0.00  0.00    +0.030 A 
ATOM     24  C   UNL     1      -0.929  -4.847   0.254  0.00  0.00    +0.106 A 
ATOM     25  C   UNL     1      -2.156  -4.214   0.171  0.00  0.00    +0.030 A 
ATOM     26  C   UNL     1      -2.220  -2.836   0.096  0.00  0.00    +0.025 A 
BRANCH  21  30
ATOM     27  C   UNL     1      -2.130   1.482   0.610  0.00  0.00    +0.109 C 
ATOM     28  C   UNL     1      -2.118  -0.025   0.612  0.00  0.00    +0.214 C 
ATOM     29  O   UNL     1      -3.013  -0.638   1.155  0.00  0.00    -0.276 OA
ATOM     30  N   UNL     1      -1.113  -0.692   0.011  0.00  0.00    -0.286 N 
ATOM     31  H   UNL     1      -0.432  -0.204  -0.478  0.00  0.00    +0.155 HD
ENDBRANCH  21  30
ENDBRANCH  18  24
ENDBRANCH   1  18
BRANCH  15  32
ATOM     32  N   UNL     1      -3.527  -7.760   8.359  0.00  0.00    -0.326 N 
ATOM     33  H   UNL     1      -3.583  -7.998   9.298  0.00  0.00    +0.148 HD
BRANCH  32  34
ATOM     34  C   UNL     1      -4.736  -7.758   7.532  0.00  0.00    +0.072 C 
ATOM     35  C   UNL     1      -5.372  -6.353   7.528  0.00  0.00    +0.022 C 
ATOM     36  C   UNL     1      -6.897  -6.626   7.532  0.00  0.00    +0.002 C 
ATOM     37  C   UNL     1      -7.021  -7.856   8.465  0.00  0.00    +0.002 C 
ATOM     38  C   UNL     1      -5.785  -8.714   8.127  0.00  0.00    +0.022 C 
ENDBRANCH  32  34
ENDBRANCH  15  32
TORSDOF 5
