REMARK  Name = ZINC64930348
REMARK  6 active torsions:
REMARK  status: ('A' for Active; 'I' for Inactive)
REMARK    1  A    between atoms: C_1  and  C_2
REMARK    2  A    between atoms: C_5  and  C_32
REMARK    3  A    between atoms: C_6  and  N_8
REMARK    4  A    between atoms: C_15  and  C_17
REMARK    5  A    between atoms: C_20  and  C_22
REMARK    6  A    between atoms: N_24  and  C_25
REMARK                            x       y       z     vdW  Elec       q    Type
REMARK                         _______ _______ _______ _____ _____    ______ ____
ROOT
ATOM      1  N   UNL     1       0.488  -2.540   2.662  0.00  0.00    -0.269 N 
ATOM      2  C   UNL     1       0.465  -1.992   3.893  0.00  0.00    +0.307 C 
ATOM      3  O   UNL     1       0.486  -0.783   4.021  0.00  0.00    -0.252 OA
ATOM      4  N   UNL     1       0.418  -2.784   4.983  0.00  0.00    -0.276 N 
ATOM      5  C   UNL     1       0.394  -4.258   4.973  0.00  0.00    +0.110 C 
ATOM      6  C   UNL     1       0.957  -4.673   6.355  0.00  0.00    +0.021 C 
ATOM      7  C   UNL     1       0.362  -3.576   7.276  0.00  0.00    +0.031 C 
ATOM      8  C   UNL     1       0.388  -2.321   6.378  0.00  0.00    +0.135 C 
ATOM      9  H   UNL     1       0.386  -3.499   2.556  0.00  0.00    +0.156 HD
ENDROOT
BRANCH   1  15
ATOM     10  C   UNL     1       1.954   1.727   0.709  0.00  0.00    +0.044 C 
ATOM     11  C   UNL     1       1.367   0.347   0.561  0.00  0.00    -0.049 A 
ATOM     12  C   UNL     1       0.997  -0.117  -0.688  0.00  0.00    +0.004 A 
ATOM     13  C   UNL     1       0.459  -1.382  -0.828  0.00  0.00    +0.005 A 
ATOM     14  C   UNL     1       0.289  -2.188   0.281  0.00  0.00    -0.029 A 
ATOM     15  C   UNL     1       0.659  -1.726   1.537  0.00  0.00    +0.038 A 
ATOM     16  C   UNL     1       1.205  -0.456   1.673  0.00  0.00    +0.027 A 
ATOM     17  C   UNL     1      -0.299  -3.568   0.128  0.00  0.00    +0.045 C 
ENDBRANCH   1  15
BRANCH   8  18
ATOM     18  C   UNL     1      -0.850  -1.496   6.618  0.00  0.00    +0.123 A 
ATOM     19  N   UNL     1      -2.089  -1.729   6.234  0.00  0.00    -0.144 NA
ATOM     20  N   UNL     1      -3.036  -0.940   6.512  0.00  0.00    -0.136 NA
ATOM     21  C   UNL     1      -2.768   0.159   7.213  0.00  0.00    +0.187 A 
ATOM     22  S   UNL     1      -1.008  -0.040   7.453  0.00  0.00    -0.044 S 
BRANCH  21  23
ATOM     23  C   UNL     1      -3.668   1.232   7.667  0.00  0.00    +0.275 C 
ATOM     24  O   UNL     1      -3.226   2.167   8.306  0.00  0.00    -0.268 OA
ATOM     25  N   UNL     1      -4.983   1.179   7.374  0.00  0.00    -0.280 N 
ATOM     26  H   UNL     1      -5.349   0.399   6.928  0.00  0.00    +0.155 HD
BRANCH  25  27
ATOM     27  C   UNL     1      -5.819   2.247   7.713  0.00  0.00    +0.036 A 
ATOM     28  C   UNL     1      -7.133   2.008   8.095  0.00  0.00    +0.023 A 
ATOM     29  C   UNL     1      -7.957   3.064   8.431  0.00  0.00    +0.005 A 
ATOM     30  C   UNL     1      -7.476   4.360   8.386  0.00  0.00    +0.038 A 
ATOM     31  C   UNL     1      -6.167   4.603   8.006  0.00  0.00    +0.125 A 
ATOM     32  C   UNL     1      -5.335   3.548   7.675  0.00  0.00    +0.061 A 
ATOM     33  F   UNL     1      -5.700   5.870   7.964  0.00  0.00    -0.205 F 
ENDBRANCH  25  27
ENDBRANCH  21  23
ENDBRANCH   8  18
TORSDOF 4
