REMARK  Name = ZINC09518361
REMARK  6 active torsions:
REMARK  status: ('A' for Active; 'I' for Inactive)
REMARK    1  A    between atoms: C_7  and  N_24
REMARK    2  A    between atoms: C_8  and  C_10
REMARK    3  A    between atoms: N_12  and  C_13
REMARK    4  A    between atoms: C_16  and  O_19
REMARK    5  A    between atoms: O_19  and  C_20
REMARK    6  A    between atoms: C_25  and  C_27
REMARK                            x       y       z     vdW  Elec       q    Type
REMARK                         _______ _______ _______ _____ _____    ______ ____
ROOT
ATOM      1  C   UNL     1       7.870  -5.496   4.188  0.00  0.00    +0.001 A 
ATOM      2  C   UNL     1       9.114  -5.132   4.684  0.00  0.00    +0.004 A 
ATOM      3  C   UNL     1       9.455  -3.804   4.821  0.00  0.00    +0.047 A 
ATOM      4  C   UNL     1       8.548  -2.815   4.460  0.00  0.00    +0.138 A 
ATOM      5  C   UNL     1       7.287  -3.190   3.964  0.00  0.00    +0.042 A 
ATOM      6  C   UNL     1       6.962  -4.540   3.827  0.00  0.00    +0.013 A 
ATOM      7  C   UNL     1       6.581  -1.936   3.677  0.00  0.00    +0.092 A 
ATOM      8  C   UNL     1       7.445  -0.933   4.022  0.00  0.00    +0.212 A 
ATOM      9  O   UNL     1       8.598  -1.468   4.481  0.00  0.00    -0.448 OA
ENDROOT
BRANCH   8  10
ATOM     10  C   UNL     1       7.164   0.497   3.911  0.00  0.00    +0.285 C 
ATOM     11  O   UNL     1       6.047   0.877   3.612  0.00  0.00    -0.266 OA
ATOM     12  N   UNL     1       8.143   1.396   4.140  0.00  0.00    -0.279 N 
ATOM     13  H   UNL     1       9.011   1.098   4.454  0.00  0.00    +0.155 HD
BRANCH  12  14
ATOM     14  C   UNL     1       7.906   2.759   3.924  0.00  0.00    +0.034 A 
ATOM     15  C   UNL     1       7.055   3.163   2.904  0.00  0.00    +0.027 A 
ATOM     16  C   UNL     1       6.818   4.507   2.695  0.00  0.00    +0.048 A 
ATOM     17  C   UNL     1       7.438   5.454   3.498  0.00  0.00    +0.130 A 
ATOM     18  C   UNL     1       8.291   5.051   4.514  0.00  0.00    +0.048 A 
ATOM     19  C   UNL     1       8.526   3.707   4.727  0.00  0.00    +0.027 A 
BRANCH  17  20
ATOM     20  O   UNL     1       7.207   6.778   3.288  0.00  0.00    -0.406 OA
BRANCH  20  21
ATOM     21  C   UNL     1       6.317   7.121   2.224  0.00  0.00    +0.575 C 
ATOM     22  F   UNL     1       5.061   6.555   2.467  0.00  0.00    -0.133 F 
ATOM     23  F   UNL     1       6.195   8.513   2.150  0.00  0.00    -0.133 F 
ATOM     24  F   UNL     1       6.824   6.632   1.016  0.00  0.00    -0.133 F 
ENDBRANCH  20  21
ENDBRANCH  17  20
ENDBRANCH  12  14
ENDBRANCH   8  10
BRANCH   7  25
ATOM     25  N   UNL     1       5.297  -1.796   3.165  0.00  0.00    -0.278 N 
ATOM     26  C   UNL     1       4.777  -2.759   2.379  0.00  0.00    +0.248 C 
ATOM     27  O   UNL     1       5.455  -3.716   2.060  0.00  0.00    -0.270 OA
ATOM     28  H   UNL     1       4.776  -1.005   3.373  0.00  0.00    +0.155 HD
BRANCH  26  29
ATOM     29  C   UNL     1       3.383  -2.653   1.907  0.00  0.00    +0.041 A 
ATOM     30  C   UNL     1       2.601  -1.554   2.272  0.00  0.00    +0.017 A 
ATOM     31  C   UNL     1       1.300  -1.456   1.831  0.00  0.00    +0.050 A 
ATOM     32  C   UNL     1       0.761  -2.447   1.021  0.00  0.00    +0.166 A 
ATOM     33  C   UNL     1       1.536  -3.547   0.652  0.00  0.00    +0.167 A 
ATOM     34  C   UNL     1       2.841  -3.651   1.092  0.00  0.00    +0.062 A 
ATOM     35  O   UNL     1       0.781  -4.366  -0.137  0.00  0.00    -0.453 OA
ATOM     36  C   UNL     1      -0.325  -3.558  -0.582  0.00  0.00    +0.466 C 
ATOM     37  O   UNL     1      -0.476  -2.580   0.463  0.00  0.00    -0.453 OA
ENDBRANCH  26  29
ENDBRANCH   7  25
TORSDOF 6
