REMARK  Name = ZINC65301129
REMARK  7 active torsions:
REMARK  status: ('A' for Active; 'I' for Inactive)
REMARK    1  A    between atoms: C_1  and  C_2
REMARK    2  A    between atoms: C_5  and  N_9
REMARK    3  A    between atoms: C_6  and  C_8
REMARK    4  A    between atoms: C_10  and  C_12
REMARK    5  A    between atoms: N_15  and  C_18
REMARK    6  A    between atoms: C_19  and  C_28
REMARK    7  A    between atoms: C_24  and  C_27
REMARK                            x       y       z     vdW  Elec       q    Type
REMARK                         _______ _______ _______ _____ _____    ______ ____
ROOT
ATOM      1  C   UNL     1       1.788  -9.916  -2.728  0.00  0.00    +0.055 A 
ATOM      2  C   UNL     1       3.044  -9.721  -3.319  0.00  0.00    +0.074 A 
ATOM      3  C   UNL     1       3.800 -10.825  -3.735  0.00  0.00    +0.098 A 
ATOM      4  N   UNL     1       3.340 -12.047  -3.575  0.00  0.00    -0.353 N 
ATOM      5  C   UNL     1       2.166 -12.279  -3.026  0.00  0.00    +0.107 A 
ATOM      6  C   UNL     1       1.318 -11.246  -2.562  0.00  0.00    +0.050 A 
ATOM      7  C   UNL     1       0.121 -11.729  -2.007  0.00  0.00    +0.058 A 
ATOM      8  N   UNL     1      -0.117 -13.003  -1.950  0.00  0.00    -0.213 NA
ATOM      9  S   UNL     1       1.221 -13.733  -2.647  0.00  0.00    +0.030 S 
ATOM     10  C   UNL     1      -0.898 -10.756  -1.470  0.00  0.00    +0.067 C 
ATOM     11  H   UNL     1       3.879 -12.798  -3.870  0.00  0.00    +0.166 HD
ENDROOT
BRANCH   2  12
ATOM     12  C   UNL     1       3.568  -8.358  -3.503  0.00  0.00    +0.250 C 
ATOM     13  O   UNL     1       3.723  -7.631  -2.541  0.00  0.00    -0.270 OA
ATOM     14  N   UNL     1       3.877  -7.916  -4.739  0.00  0.00    -0.297 N 
ATOM     15  C   UNL     1       3.588  -8.738  -5.922  0.00  0.00    +0.108 C 
ATOM     16  C   UNL     1       2.767  -7.905  -6.912  0.00  0.00    +0.019 C 
ATOM     17  C   UNL     1       3.511  -6.604  -7.217  0.00  0.00    +0.003 C 
ATOM     18  C   UNL     1       3.679  -5.795  -5.928  0.00  0.00    +0.019 C 
ATOM     19  C   UNL     1       4.505  -6.601  -4.928  0.00  0.00    +0.108 C 
ENDBRANCH   2  12
BRANCH   1  23
ATOM     20  C   UNL     1       0.343  -6.132  -1.881  0.00  0.00    +0.078 C 
ATOM     21  C   UNL     1       1.455  -6.790  -1.061  0.00  0.00    +0.031 C 
ATOM     22  C   UNL     1       1.184  -8.294  -0.958  0.00  0.00    +0.106 C 
ATOM     23  N   UNL     1       1.029  -8.842  -2.312  0.00  0.00    -0.329 N 
ATOM     24  C   UNL     1       0.049  -8.223  -3.216  0.00  0.00    +0.106 C 
ATOM     25  C   UNL     1       0.332  -6.719  -3.294  0.00  0.00    +0.031 C 
BRANCH  20  27
ATOM     26  N   UNL     1       0.638  -3.913  -0.827  0.00  0.00    -0.285 N 
ATOM     27  C   UNL     1       0.588  -4.646  -1.957  0.00  0.00    +0.220 C 
ATOM     28  O   UNL     1       0.739  -4.111  -3.035  0.00  0.00    -0.275 OA
ATOM     29  H   UNL     1       0.578  -4.350   0.037  0.00  0.00    +0.155 HD
BRANCH  26  34
ATOM     30  C   UNL     1       1.203   1.724  -1.127  0.00  0.00    +0.044 C 
ATOM     31  C   UNL     1       1.053   0.226  -1.047  0.00  0.00    -0.050 A 
ATOM     32  C   UNL     1       1.667  -0.580  -1.988  0.00  0.00    +0.005 A 
ATOM     33  C   UNL     1       1.532  -1.952  -1.918  0.00  0.00    +0.024 A 
ATOM     34  C   UNL     1       0.778  -2.523  -0.901  0.00  0.00    +0.036 A 
ATOM     35  C   UNL     1       0.163  -1.711   0.043  0.00  0.00    -0.029 A 
ATOM     36  C   UNL     1       0.306  -0.339  -0.030  0.00  0.00    +0.008 A 
ATOM     37  C   UNL     1      -0.656  -2.326   1.148  0.00  0.00    +0.045 C 
ENDBRANCH  26  34
ENDBRANCH  20  27
ENDBRANCH   1  23
TORSDOF 4
