REMARK  Name = ZINC20243990
REMARK  7 active torsions:
REMARK  status: ('A' for Active; 'I' for Inactive)
REMARK    1  A    between atoms: C_4  and  O_7
REMARK    2  A    between atoms: O_7  and  C_8
REMARK    3  A    between atoms: C_11  and  C_14
REMARK    4  A    between atoms: N_15  and  N_16
REMARK    5  A    between atoms: C_17  and  C_19
REMARK    6  A    between atoms: C_22  and  C_25
REMARK    7  A    between atoms: C_25  and  N_26
REMARK                            x       y       z     vdW  Elec       q    Type
REMARK                         _______ _______ _______ _____ _____    ______ ____
ROOT
ATOM      1  N   UNL     1       3.989  -8.355  -0.213  0.00  0.00    -0.203 N 
ATOM      2  C   UNL     1       5.088  -9.136  -0.186  0.00  0.00    +0.263 C 
ATOM      3  O   UNL     1       6.192  -8.630  -0.128  0.00  0.00    -0.268 OA
ATOM      4  H   UNL     1       3.108  -8.758  -0.260  0.00  0.00    +0.178 HD
ENDROOT
BRANCH   2   5
ATOM      5  C   UNL     1       4.949 -10.607  -0.229  0.00  0.00    +0.038 A 
ATOM      6  C   UNL     1       3.683 -11.190  -0.302  0.00  0.00    +0.013 A 
ATOM      7  C   UNL     1       3.562 -12.564  -0.342  0.00  0.00    +0.002 A 
ATOM      8  C   UNL     1       4.691 -13.363  -0.309  0.00  0.00    -0.064 A 
ATOM      9  C   UNL     1       5.949 -12.791  -0.236  0.00  0.00    +0.002 A 
ATOM     10  C   UNL     1       6.085 -11.418  -0.201  0.00  0.00    +0.013 A 
BRANCH   8  11
ATOM     11  C   UNL     1       4.550 -14.862  -0.353  0.00  0.00    -0.043 C 
BRANCH  11  12
ATOM     12  N   UNL     1       4.569 -15.316  -1.750  0.00  0.00    +0.385 N 
ATOM     13  C   UNL     1       4.323 -16.765  -1.800  0.00  0.00    -0.073 C 
ATOM     14  C   UNL     1       4.042 -17.162  -3.250  0.00  0.00    +0.017 C 
ATOM     15  C   UNL     1       5.125 -16.619  -4.147  0.00  0.00    -0.048 A 
ATOM     16  C   UNL     1       5.255 -17.141  -5.425  0.00  0.00    +0.004 A 
ATOM     17  C   UNL     1       6.233 -16.666  -6.275  0.00  0.00    +0.000 A 
ATOM     18  C   UNL     1       7.087 -15.665  -5.851  0.00  0.00    +0.000 A 
ATOM     19  C   UNL     1       6.959 -15.146  -4.578  0.00  0.00    +0.002 A 
ATOM     20  C   UNL     1       5.978 -15.622  -3.722  0.00  0.00    -0.061 A 
ATOM     21  C   UNL     1       5.880 -15.033  -2.340  0.00  0.00    -0.042 C 
ATOM     22  H   UNL     1       3.853 -14.832  -2.271  0.00  0.00    -0.081 HD
ENDBRANCH  11  12
ENDBRANCH   8  11
ENDBRANCH   2   5
BRANCH   1  24
ATOM     23  C   UNL     1       3.062  -6.208  -0.199  0.00  0.00    +0.138 C 
ATOM     24  N   UNL     1       4.120  -6.960  -0.173  0.00  0.00    -0.187 NA
BRANCH  23  28
ATOM     25  C   UNL     1       3.459  -1.983  -0.076  0.00  0.00    +0.128 A 
ATOM     26  C   UNL     1       2.196  -2.559  -0.144  0.00  0.00    +0.047 A 
ATOM     27  C   UNL     1       2.063  -3.930  -0.184  0.00  0.00    +0.013 A 
ATOM     28  C   UNL     1       3.200  -4.741  -0.157  0.00  0.00    -0.005 A 
ATOM     29  C   UNL     1       4.468  -4.158  -0.088  0.00  0.00    +0.013 A 
ATOM     30  C   UNL     1       4.592  -2.786  -0.054  0.00  0.00    +0.047 A 
BRANCH  25  31
ATOM     31  O   UNL     1       3.586  -0.632  -0.036  0.00  0.00    -0.456 OA
BRANCH  31  35
ATOM     32  C   UNL     1       3.919   1.389  -3.618  0.00  0.00    +0.000 A 
ATOM     33  C   UNL     1       3.778   0.013  -3.611  0.00  0.00    +0.004 A 
ATOM     34  C   UNL     1       3.667  -0.666  -2.414  0.00  0.00    +0.046 A 
ATOM     35  C   UNL     1       3.696   0.034  -1.216  0.00  0.00    +0.128 A 
ATOM     36  C   UNL     1       3.836   1.414  -1.225  0.00  0.00    +0.046 A 
ATOM     37  C   UNL     1       3.948   2.088  -2.425  0.00  0.00    +0.004 A 
ENDBRANCH  31  35
ENDBRANCH  25  31
ENDBRANCH  23  28
ENDBRANCH   1  24
TORSDOF 7
