REMARK  Name = ZINC44905374
REMARK  8 active torsions:
REMARK  status: ('A' for Active; 'I' for Inactive)
REMARK    1  A    between atoms: C_3  and  O_26
REMARK    2  A    between atoms: C_6  and  C_7
REMARK    3  A    between atoms: C_7  and  N_8
REMARK    4  A    between atoms: C_9  and  C_11
REMARK    5  A    between atoms: N_16  and  C_18
REMARK    6  A    between atoms: C_18  and  C_19
REMARK    7  A    between atoms: O_26  and  C_27
REMARK    8  A    between atoms: C_27  and  C_28
REMARK                            x       y       z     vdW  Elec       q    Type
REMARK                         _______ _______ _______ _____ _____    ______ ____
ROOT
ATOM      1  N   UNL     1      -1.727  -1.016  -1.368  0.00  0.00    -0.311 N 
ATOM      2  C   UNL     1      -2.868  -1.692  -1.606  0.00  0.00    +0.215 C 
ATOM      3  O   UNL     1      -3.537  -2.099  -0.680  0.00  0.00    -0.276 OA
ATOM      4  H   UNL     1      -1.192  -0.690  -2.108  0.00  0.00    +0.149 HD
ENDROOT
BRANCH   2   5
ATOM      5  C   UNL     1      -3.314  -1.941  -3.024  0.00  0.00    +0.058 C 
ATOM      6  C   UNL     1      -2.245  -2.753  -3.761  0.00  0.00    +0.009 C 
ATOM      7  C   UNL     1      -2.742  -3.067  -5.175  0.00  0.00    -0.018 C 
ATOM      8  C   UNL     1      -4.077  -3.810  -5.088  0.00  0.00    -0.078 C 
ATOM      9  N   UNL     1      -5.063  -2.971  -4.396  0.00  0.00    +0.383 N 
ATOM     10  C   UNL     1      -4.628  -2.724  -3.016  0.00  0.00    -0.066 C 
ATOM     11  H   UNL     1      -5.154  -2.091  -4.881  0.00  0.00    -0.081 HD
BRANCH   9  12
ATOM     12  C   UNL     1      -6.363  -3.656  -4.383  0.00  0.00    -0.043 C 
BRANCH  12  13
ATOM     13  C   UNL     1      -6.873  -3.792  -5.795  0.00  0.00    -0.064 A 
ATOM     14  C   UNL     1      -7.658  -2.795  -6.345  0.00  0.00    +0.003 A 
ATOM     15  C   UNL     1      -8.126  -2.919  -7.639  0.00  0.00    +0.020 A 
ATOM     16  C   UNL     1      -7.810  -4.040  -8.385  0.00  0.00    +0.041 A 
ATOM     17  C   UNL     1      -7.024  -5.037  -7.834  0.00  0.00    +0.020 A 
ATOM     18  C   UNL     1      -6.552  -4.910  -6.541  0.00  0.00    +0.003 A 
ATOM     19 CL   UNL     1      -8.398  -4.197 -10.010  0.00  0.00    -0.084 Cl
ENDBRANCH  12  13
ENDBRANCH   9  12
ENDBRANCH   2   5
BRANCH   1  20
ATOM     20  C   UNL     1      -1.293  -0.774   0.011  0.00  0.00    +0.139 C 
BRANCH  20  26
ATOM     21  C   UNL     1      -0.017   1.378   0.010  0.00  0.00    +0.009 A 
ATOM     22  C   UNL     1       1.169   2.087   0.002  0.00  0.00    +0.046 A 
ATOM     23  C   UNL     1       2.380   1.409  -0.013  0.00  0.00    +0.121 A 
ATOM     24  C   UNL     1       2.396   0.022  -0.021  0.00  0.00    +0.046 A 
ATOM     25  C   UNL     1       1.207  -0.681  -0.013  0.00  0.00    +0.009 A 
ATOM     26  C   UNL     1       0.002  -0.004   0.002  0.00  0.00    -0.030 A 
BRANCH  23  27
ATOM     27  O   UNL     1       3.548   2.104  -0.021  0.00  0.00    -0.487 OA
BRANCH  27  28
ATOM     28  C   UNL     1       4.756   1.341  -0.036  0.00  0.00    +0.264 C 
BRANCH  28  29
ATOM     29  C   UNL     1       5.940   2.274  -0.043  0.00  0.00    -0.010 A 
ATOM     30  C   UNL     1       6.467   2.712  -1.244  0.00  0.00    +0.010 A 
ATOM     31  C   UNL     1       7.552   3.568  -1.251  0.00  0.00    +0.039 A 
ATOM     32  C   UNL     1       8.111   3.986  -0.056  0.00  0.00    +0.123 A 
ATOM     33  C   UNL     1       7.582   3.547   1.146  0.00  0.00    +0.039 A 
ATOM     34  C   UNL     1       6.494   2.695   1.151  0.00  0.00    +0.010 A 
ATOM     35  F   UNL     1       9.172   4.823  -0.062  0.00  0.00    -0.205 F 
ENDBRANCH  28  29
ENDBRANCH  27  28
ENDBRANCH  23  27
ENDBRANCH  20  26
ENDBRANCH   1  20
TORSDOF 8
