REMARK  Name = ZINC12278503
REMARK  7 active torsions:
REMARK  status: ('A' for Active; 'I' for Inactive)
REMARK    1  A    between atoms: C_1  and  C_2
REMARK    2  A    between atoms: C_2  and  C_10
REMARK    3  A    between atoms: C_3  and  C_4
REMARK    4  A    between atoms: N_14  and  C_18
REMARK    5  A    between atoms: C_18  and  C_19
REMARK    6  A    between atoms: N_21  and  N_22
REMARK    7  A    between atoms: C_23  and  C_25
REMARK                            x       y       z     vdW  Elec       q    Type
REMARK                         _______ _______ _______ _____ _____    ______ ____
ROOT
ATOM      1  C   UNL     1       6.988  -1.292  -2.226  0.00  0.00    +0.023 C 
ATOM      2  C   UNL     1       6.135  -0.888  -1.240  0.00  0.00    +0.077 C 
ATOM      3  C   UNL     1       4.833  -0.203  -1.346  0.00  0.00    +0.259 C 
ATOM      4  O   UNL     1       4.354   0.096  -2.424  0.00  0.00    -0.269 OA
ATOM      5  N   UNL     1       4.213   0.072  -0.211  0.00  0.00    -0.246 N 
ATOM      6  C   UNL     1       4.751  -0.256   0.982  0.00  0.00    +0.121 C 
ATOM      7  S   UNL     1       4.113   0.018   2.547  0.00  0.00    -0.027 S 
ATOM      8  S   UNL     1       6.287  -1.046   0.534  0.00  0.00    -0.061 S 
ENDROOT
BRANCH   1  10
ATOM      9  C   UNL     1       8.313  -2.569  -0.497  0.00  0.00    +0.044 C 
ATOM     10  C   UNL     1       8.118  -2.069  -1.905  0.00  0.00    -0.049 C 
ATOM     11  C   UNL     1       9.029  -2.367  -2.861  0.00  0.00    +0.011 C 
BRANCH  11  12
ATOM     12  C   UNL     1      10.266  -3.076  -2.503  0.00  0.00    -0.025 A 
ATOM     13  C   UNL     1      10.903  -2.808  -1.286  0.00  0.00    +0.008 A 
ATOM     14  C   UNL     1      12.060  -3.482  -0.955  0.00  0.00    +0.001 A 
ATOM     15  C   UNL     1      12.598  -4.411  -1.829  0.00  0.00    +0.000 A 
ATOM     16  C   UNL     1      11.978  -4.677  -3.037  0.00  0.00    +0.001 A 
ATOM     17  C   UNL     1      10.817  -4.017  -3.380  0.00  0.00    +0.008 A 
ENDBRANCH  11  12
ENDBRANCH   1  10
BRANCH   5  18
ATOM     18  C   UNL     1       2.917   0.752  -0.249  0.00  0.00    +0.212 C 
BRANCH  18  19
ATOM     19  C   UNL     1       1.814  -0.272  -0.318  0.00  0.00    +0.247 C 
ATOM     20  O   UNL     1       2.084  -1.454  -0.333  0.00  0.00    -0.273 OA
ATOM     21  N   UNL     1       0.527   0.126  -0.363  0.00  0.00    -0.233 N 
ATOM     22  H   UNL     1       0.310   1.071  -0.351  0.00  0.00    +0.173 HD
BRANCH  21  23
ATOM     23  N   UNL     1      -0.499  -0.827  -0.427  0.00  0.00    -0.230 N 
ATOM     24  C   UNL     1      -1.786  -0.429  -0.477  0.00  0.00    +0.260 C 
ATOM     25  O   UNL     1      -2.057   0.756  -0.462  0.00  0.00    -0.269 OA
ATOM     26  H   UNL     1      -0.283  -1.772  -0.439  0.00  0.00    +0.173 HD
BRANCH  24  27
ATOM     27  C   UNL     1      -2.867  -1.434  -0.551  0.00  0.00    +0.038 A 
ATOM     28  C   UNL     1      -2.559  -2.795  -0.574  0.00  0.00    +0.014 A 
ATOM     29  C   UNL     1      -3.573  -3.728  -0.636  0.00  0.00    +0.016 A 
ATOM     30  C   UNL     1      -4.894  -3.316  -0.688  0.00  0.00    +0.018 A 
ATOM     31  C   UNL     1      -5.206  -1.967  -0.671  0.00  0.00    +0.016 A 
ATOM     32  C   UNL     1      -4.201  -1.025  -0.603  0.00  0.00    +0.014 A 
ATOM     33 BR   UNL     1      -6.278  -4.602  -0.781  0.00  0.00    -0.050 Br
ENDBRANCH  24  27
ENDBRANCH  21  23
ENDBRANCH  18  19
ENDBRANCH   5  18
TORSDOF 6
