REMARK  Name = ZINC12314999
REMARK  7 active torsions:
REMARK  status: ('A' for Active; 'I' for Inactive)
REMARK    1  A    between atoms: C_1  and  C_2
REMARK    2  A    between atoms: C_4  and  C_32
REMARK    3  A    between atoms: C_8  and  C_31
REMARK    4  A    between atoms: C_9  and  C_12
REMARK    5  A    between atoms: C_17  and  N_20
REMARK    6  A    between atoms: C_21  and  N_25
REMARK    7  A    between atoms: C_26  and  C_28
REMARK                            x       y       z     vdW  Elec       q    Type
REMARK                         _______ _______ _______ _____ _____    ______ ____
ROOT
ATOM      1  C   UNL     1       0.089  -5.575   2.320  0.00  0.00    +0.263 C 
ATOM      2  O   UNL     1       0.199  -5.602   3.531  0.00  0.00    -0.268 OA
ATOM      3  N   UNL     1      -0.001  -6.726   1.625  0.00  0.00    -0.296 N 
ATOM      4  C   UNL     1      -0.005  -6.715   0.156  0.00  0.00    +0.110 C 
ATOM      5  C   UNL     1       1.092  -7.659  -0.346  0.00  0.00    +0.046 C 
ATOM      6  C   UNL     1       0.892  -9.044   0.272  0.00  0.00    +0.112 C 
ATOM      7  C   UNL     1       1.001  -8.944   1.796  0.00  0.00    +0.046 C 
ATOM      8  C   UNL     1      -0.091  -8.016   2.323  0.00  0.00    +0.110 C 
ENDROOT
BRANCH   1  17
ATOM      9  C   UNL     1      -1.432   0.664  -1.449  0.00  0.00    +0.044 C 
ATOM     10  C   UNL     1      -0.687  -0.396  -0.679  0.00  0.00    -0.050 A 
ATOM     11  C   UNL     1       0.666  -0.229  -0.410  0.00  0.00    +0.008 A 
ATOM     12  C   UNL     1       1.365  -1.186   0.291  0.00  0.00    -0.026 A 
ATOM     13  C   UNL     1       0.714  -2.332   0.736  0.00  0.00    +0.050 A 
ATOM     14  C   UNL     1      -0.658  -2.499   0.463  0.00  0.00    +0.004 A 
ATOM     15  C   UNL     1      -1.349  -1.509  -0.248  0.00  0.00    +0.013 A 
ATOM     16  C   UNL     1      -1.044  -3.738   1.029  0.00  0.00    -0.013 A 
ATOM     17  C   UNL     1       0.053  -4.285   1.615  0.00  0.00    +0.106 A 
ATOM     18  N   UNL     1       1.129  -3.437   1.442  0.00  0.00    -0.350 N 
ATOM     19  H   UNL     1       2.030  -3.594   1.765  0.00  0.00    +0.166 HD
ATOM     20  C   UNL     1      -2.425  -4.341   0.989  0.00  0.00    +0.047 C 
ATOM     21  C   UNL     1       2.833  -0.992   0.574  0.00  0.00    +0.046 C 
ENDBRANCH   1  17
BRANCH   6  22
ATOM     22  N   UNL     1       1.920  -9.957  -0.232  0.00  0.00    -0.247 N 
ATOM     23  C   UNL     1       1.701 -11.095  -0.930  0.00  0.00    +0.123 A 
ATOM     24  C   UNL     1       2.914 -11.646  -1.208  0.00  0.00    +0.065 A 
ATOM     25  C   UNL     1       3.897 -10.816  -0.661  0.00  0.00    +0.136 A 
ATOM     26  N   UNL     1       3.304  -9.804  -0.082  0.00  0.00    -0.178 NA
BRANCH  23  27
ATOM     27  N   UNL     1       0.458 -11.610  -1.298  0.00  0.00    -0.270 N 
ATOM     28  C   UNL     1       0.385 -12.760  -1.996  0.00  0.00    +0.221 C 
ATOM     29  O   UNL     1       1.400 -13.347  -2.305  0.00  0.00    -0.275 OA
ATOM     30  H   UNL     1      -0.354 -11.140  -1.050  0.00  0.00    +0.156 HD
BRANCH  28  31
ATOM     31  C   UNL     1      -0.958 -13.316  -2.393  0.00  0.00    +0.075 C 
ATOM     32  C   UNL     1      -1.413 -14.613  -1.720  0.00  0.00    +0.013 C 
ATOM     33  C   UNL     1      -0.974 -14.625  -3.186  0.00  0.00    +0.013 C 
ENDBRANCH  28  31
ENDBRANCH  23  27
ENDBRANCH   6  22
TORSDOF 4
