REMARK  Name = ZINC06131744
REMARK  7 active torsions:
REMARK  status: ('A' for Active; 'I' for Inactive)
REMARK    1  A    between atoms: C_4  and  N_22
REMARK    2  A    between atoms: C_5  and  C_7
REMARK    3  A    between atoms: N_9  and  N_10
REMARK    4  A    between atoms: C_11  and  C_12
REMARK    5  A    between atoms: C_16  and  N_18
REMARK    6  A    between atoms: N_22  and  S_23
REMARK    7  A    between atoms: S_23  and  C_26
REMARK                            x       y       z     vdW  Elec       q    Type
REMARK                         _______ _______ _______ _____ _____    ______ ____
ROOT
ATOM      1  C   UNL     1       3.580   6.115   0.194  0.00  0.00    +0.265 C 
ATOM      2  O   UNL     1       4.672   5.605   0.032  0.00  0.00    -0.268 OA
ATOM      3  N   UNL     1       2.482   5.339   0.296  0.00  0.00    -0.203 N 
ATOM      4  H   UNL     1       1.611   5.746   0.425  0.00  0.00    +0.178 HD
ENDROOT
BRANCH   1   9
ATOM      5  C   UNL     1       2.095   9.543   0.543  0.00  0.00    +0.001 A 
ATOM      6  C   UNL     1       3.223  10.342   0.439  0.00  0.00    +0.002 A 
ATOM      7  C   UNL     1       4.467   9.774   0.255  0.00  0.00    +0.025 A 
ATOM      8  C   UNL     1       4.597   8.393   0.178  0.00  0.00    +0.060 A 
ATOM      9  C   UNL     1       3.457   7.581   0.279  0.00  0.00    +0.061 A 
ATOM     10  C   UNL     1       2.204   8.172   0.465  0.00  0.00    +0.015 A 
BRANCH   8  11
ATOM     11  N   UNL     1       5.849   7.819  -0.002  0.00  0.00    -0.215 N 
ATOM     12  H   UNL     1       5.943   7.019  -0.543  0.00  0.00    +0.174 HD
BRANCH  11  13
ATOM     13  S   UNL     1       7.182   8.499   0.708  0.00  0.00    +0.079 S 
ATOM     14  O   UNL     1       8.269   7.620   0.456  0.00  0.00    -0.149 OA
ATOM     15  O   UNL     1       7.199   9.864   0.315  0.00  0.00    -0.149 OA
BRANCH  13  16
ATOM     16  C   UNL     1       6.912   8.480   2.449  0.00  0.00    +0.146 A 
ATOM     17  C   UNL     1       7.234   7.522   3.352  0.00  0.00    +0.036 A 
ATOM     18  C   UNL     1       6.923   7.724   4.684  0.00  0.00    +0.010 A 
ATOM     19  C   UNL     1       6.305   8.875   5.047  0.00  0.00    +0.047 A 
ATOM     20  S   UNL     1       6.151   9.721   3.482  0.00  0.00    -0.077 S 
ENDBRANCH  13  16
ENDBRANCH  11  13
ENDBRANCH   8  11
ENDBRANCH   1   9
BRANCH   3  21
ATOM     21  N   UNL     1       2.600   3.946   0.216  0.00  0.00    -0.187 NA
ATOM     22  C   UNL     1       1.543   3.198   0.314  0.00  0.00    +0.142 C 
BRANCH  22  23
ATOM     23  C   UNL     1       1.666   1.732   0.230  0.00  0.00    +0.045 A 
ATOM     24  C   UNL     1       0.531   0.925   0.335  0.00  0.00    +0.033 A 
ATOM     25  C   UNL     1       0.654  -0.447   0.254  0.00  0.00    +0.044 A 
ATOM     26  C   UNL     1       1.899  -1.027   0.069  0.00  0.00    +0.056 A 
ATOM     27  C   UNL     1       3.028  -0.238  -0.036  0.00  0.00    +0.175 A 
ATOM     28  C   UNL     1       2.923   1.141   0.042  0.00  0.00    +0.218 A 
ATOM     29 CL   UNL     1      -0.757  -1.451   0.386  0.00  0.00    -0.083 Cl
ATOM     30  O   UNL     1       4.033   1.916  -0.061  0.00  0.00    -0.285 OA
BRANCH  27  31
ATOM     31  N   UNL     1       4.353  -0.868  -0.235  0.00  0.00    +0.060 N 
ATOM     32  O   UNL     1       4.447  -2.080  -0.304  0.00  0.00    -0.126 OA
ATOM     33  O   UNL     1       5.350  -0.173  -0.328  0.00  0.00    -0.126 OA
ENDBRANCH  27  31
ENDBRANCH  22  23
ENDBRANCH   3  21
TORSDOF 7
