REMARK  Name = ZINC36579606
REMARK  15 active torsions:
REMARK  status: ('A' for Active; 'I' for Inactive)
REMARK    1  A    between atoms: C_1  and  C_2
REMARK    2  A    between atoms: C_2  and  C_3
REMARK    3  A    between atoms: C_2  and  C_4
REMARK    4  A    between atoms: C_2  and  N_5
REMARK    5  A    between atoms: C_6  and  C_8
REMARK    6  A    between atoms: C_8  and  C_10
REMARK    7  A    between atoms: C_8  and  N_19
REMARK    8  A    between atoms: N_19  and  C_38
REMARK    9  A    between atoms: C_20  and  C_22
REMARK   10  A    between atoms: C_28  and  O_30
REMARK   11  A    between atoms: O_30  and  C_31
REMARK   12  A    between atoms: C_31  and  C_32
REMARK   13  A    between atoms: C_38  and  C_39
REMARK   14  A    between atoms: C_38  and  C_40
REMARK   15  A    between atoms: C_38  and  C_41
REMARK                            x       y       z     vdW  Elec       q    Type
REMARK                         _______ _______ _______ _____ _____    ______ ____
ROOT
ATOM      1  N   UNL     1       4.305  -0.772  -2.819  0.00  0.00    -0.279 N 
ATOM      2  C   UNL     1       5.017  -1.900  -3.017  0.00  0.00    +0.238 C 
ATOM      3  O   UNL     1       4.658  -2.941  -2.508  0.00  0.00    -0.274 OA
ENDROOT
BRANCH   2   4
ATOM      4  C   UNL     1       6.258  -1.867  -3.870  0.00  0.00    +0.165 C 
ATOM      5  C   UNL     1       7.511  -1.998  -2.979  0.00  0.00    +0.033 C 
ATOM      6  C   UNL     1       8.448  -2.897  -3.828  0.00  0.00    +0.021 C 
ATOM      7  C   UNL     1       7.434  -3.851  -4.506  0.00  0.00    +0.112 C 
ATOM      8  N   UNL     1       6.257  -3.007  -4.799  0.00  0.00    -0.256 N 
ATOM      9  C   UNL     1       5.336  -3.241  -5.754  0.00  0.00    +0.404 C 
ATOM     10  O   UNL     1       4.406  -2.474  -5.903  0.00  0.00    -0.226 OA
BRANCH   9  11
ATOM     11  O   UNL     1       5.447  -4.325  -6.545  0.00  0.00    -0.445 OA
BRANCH  11  12
ATOM     12  C   UNL     1       4.435  -4.512  -7.536  0.00  0.00    +0.269 C 
BRANCH  12  13
ATOM     13  C   UNL     1       4.723  -5.767  -8.318  0.00  0.00    -0.010 A 
ATOM     14  C   UNL     1       5.508  -5.709  -9.454  0.00  0.00    +0.007 A 
ATOM     15  C   UNL     1       5.773  -6.861 -10.172  0.00  0.00    +0.000 A 
ATOM     16  C   UNL     1       5.252  -8.071  -9.753  0.00  0.00    +0.000 A 
ATOM     17  C   UNL     1       4.468  -8.129  -8.616  0.00  0.00    +0.000 A 
ATOM     18  C   UNL     1       4.207  -6.978  -7.896  0.00  0.00    +0.007 A 
ENDBRANCH  12  13
ENDBRANCH  11  12
ENDBRANCH   9  11
ENDBRANCH   2   4
BRANCH   1  19
ATOM     19  C   UNL     1       4.783   0.501  -3.362  0.00  0.00    +0.030 C 
ATOM     20  C   UNL     1       3.993   1.652  -2.735  0.00  0.00    +0.031 C 
ATOM     21  C   UNL     1       6.270   0.667  -3.038  0.00  0.00    +0.031 C 
ATOM     22  C   UNL     1       4.587   0.515  -4.879  0.00  0.00    +0.031 C 
ENDBRANCH   1  19
BRANCH   1  23
ATOM     23  C   UNL     1       3.052  -0.821  -2.061  0.00  0.00    +0.193 C 
BRANCH  23  24
ATOM     24  C   UNL     1       3.341  -1.231  -0.640  0.00  0.00    -0.015 A 
ATOM     25  C   UNL     1       4.585  -1.730  -0.305  0.00  0.00    +0.010 A 
ATOM     26  C   UNL     1       4.855  -2.108   0.997  0.00  0.00    +0.050 A 
ATOM     27  C   UNL     1       3.877  -1.986   1.971  0.00  0.00    +0.166 A 
ATOM     28  C   UNL     1       2.623  -1.483   1.634  0.00  0.00    +0.167 A 
ATOM     29  C   UNL     1       2.361  -1.102   0.328  0.00  0.00    +0.055 A 
ATOM     30  O   UNL     1       1.845  -1.463   2.755  0.00  0.00    -0.453 OA
ATOM     31  C   UNL     1       2.500  -2.337   3.693  0.00  0.00    +0.466 C 
ATOM     32  O   UNL     1       3.885  -2.281   3.304  0.00  0.00    -0.453 OA
ENDBRANCH  23  24
BRANCH  23  34
ATOM     33  N   UNL     1       0.920  -2.074  -2.134  0.00  0.00    -0.309 N 
ATOM     34  C   UNL     1       2.120  -1.823  -2.693  0.00  0.00    +0.239 C 
ATOM     35  O   UNL     1       2.451  -2.403  -3.706  0.00  0.00    -0.273 OA
ATOM     36  H   UNL     1       0.656  -1.610  -1.324  0.00  0.00    +0.149 HD
BRANCH  33  38
ATOM     37  C   UNL     1       0.694  -4.417  -2.796  0.00  0.00    +0.031 C 
ATOM     38  C   UNL     1       0.015  -3.047  -2.749  0.00  0.00    +0.026 C 
ATOM     39  C   UNL     1      -0.327  -2.598  -4.171  0.00  0.00    +0.031 C 
ATOM     40  C   UNL     1      -1.269  -3.143  -1.922  0.00  0.00    +0.031 C 
ENDBRANCH  33  38
ENDBRANCH  23  34
ENDBRANCH   1  23
TORSDOF 9
