REMARK  Name = ZINC59331397
REMARK  13 active torsions:
REMARK  status: ('A' for Active; 'I' for Inactive)
REMARK    1  A    between atoms: C_1  and  C_2
REMARK    2  A    between atoms: C_4  and  N_20
REMARK    3  A    between atoms: C_7  and  N_8
REMARK    4  A    between atoms: C_9  and  C_11
REMARK    5  A    between atoms: N_20  and  C_21
REMARK    6  A    between atoms: C_21  and  N_23
REMARK    7  A    between atoms: C_24  and  C_26
REMARK    8  A    between atoms: C_28  and  O_36
REMARK    9  A    between atoms: C_29  and  O_34
REMARK   10  A    between atoms: C_30  and  O_32
REMARK   11  A    between atoms: O_32  and  C_33
REMARK   12  A    between atoms: O_34  and  C_35
REMARK   13  A    between atoms: O_36  and  C_37
REMARK                            x       y       z     vdW  Elec       q    Type
REMARK                         _______ _______ _______ _____ _____    ______ ____
ROOT
ATOM      1  C   UNL     1       2.049  -1.460   1.808  0.00  0.00    +0.046 C 
ATOM      2  C   UNL     1       0.909  -1.214   0.854  0.00  0.00    -0.027 A 
ATOM      3  C   UNL     1       0.804  -1.959  -0.303  0.00  0.00    +0.028 A 
ATOM      4  C   UNL     1      -0.246  -1.732  -1.183  0.00  0.00    +0.033 A 
ATOM      5  C   UNL     1      -1.192  -0.755  -0.898  0.00  0.00    +0.025 A 
ATOM      6  C   UNL     1      -1.087  -0.009   0.259  0.00  0.00    +0.025 A 
ATOM      7  C   UNL     1      -0.039  -0.240   1.141  0.00  0.00    +0.037 A 
ENDROOT
BRANCH   7   8
ATOM      8  N   UNL     1       0.064   0.512   2.317  0.00  0.00    -0.279 N 
ATOM      9  C   UNL     1      -0.429   1.766   2.361  0.00  0.00    +0.284 C 
ATOM     10  O   UNL     1      -1.024   2.219   1.401  0.00  0.00    -0.266 OA
ATOM     11  H   UNL     1       0.491   0.131   3.101  0.00  0.00    +0.155 HD
BRANCH   9  12
ATOM     12  C   UNL     1      -0.249   2.585   3.567  0.00  0.00    +0.191 A 
ATOM     13  C   UNL     1      -0.706   3.854   3.726  0.00  0.00    +0.063 A 
ATOM     14  C   UNL     1      -0.299   4.266   5.069  0.00  0.00    +0.021 A 
ATOM     15  C   UNL     1      -0.459   5.434   5.819  0.00  0.00    +0.011 A 
ATOM     16  C   UNL     1       0.057   5.502   7.083  0.00  0.00    +0.001 A 
ATOM     17  C   UNL     1       0.738   4.420   7.624  0.00  0.00    +0.004 A 
ATOM     18  C   UNL     1       0.907   3.260   6.900  0.00  0.00    +0.047 A 
ATOM     19  C   UNL     1       0.391   3.167   5.613  0.00  0.00    +0.136 A 
ATOM     20  O   UNL     1       0.391   2.188   4.687  0.00  0.00    -0.450 OA
ENDBRANCH   9  12
ENDBRANCH   7   8
BRANCH   4  21
ATOM     21  N   UNL     1      -0.352  -2.488  -2.357  0.00  0.00    -0.297 N 
ATOM     22  H   UNL     1      -0.550  -2.050  -3.199  0.00  0.00    +0.154 HD
BRANCH  21  23
ATOM     23  C   UNL     1      -0.180  -3.824  -2.316  0.00  0.00    +0.141 C 
ATOM     24  S   UNL     1       0.269  -4.585  -0.849  0.00  0.00    -0.018 S 
BRANCH  23  25
ATOM     25  N   UNL     1      -0.362  -4.562  -3.429  0.00  0.00    -0.264 N 
ATOM     26  C   UNL     1      -0.190  -5.898  -3.388  0.00  0.00    +0.250 C 
ATOM     27  O   UNL     1       0.129  -6.438  -2.347  0.00  0.00    -0.270 OA
ATOM     28  H   UNL     1      -0.616  -4.131  -4.260  0.00  0.00    +0.157 HD
BRANCH  26  29
ATOM     29  C   UNL     1      -0.389  -6.705  -4.607  0.00  0.00    +0.044 A 
ATOM     30  C   UNL     1      -0.749  -6.085  -5.806  0.00  0.00    +0.062 A 
ATOM     31  C   UNL     1      -0.934  -6.843  -6.947  0.00  0.00    +0.166 A 
ATOM     32  C   UNL     1      -0.762  -8.224  -6.901  0.00  0.00    +0.204 A 
ATOM     33  C   UNL     1      -0.402  -8.845  -5.708  0.00  0.00    +0.166 A 
ATOM     34  C   UNL     1      -0.210  -8.090  -4.566  0.00  0.00    +0.062 A 
BRANCH  33  35
ATOM     35  O   UNL     1      -0.235 -10.194  -5.667  0.00  0.00    -0.491 OA
ATOM     36  C   UNL     1       0.134 -10.764  -4.410  0.00  0.00    +0.277 C 
ENDBRANCH  33  35
BRANCH  32  37
ATOM     37  O   UNL     1      -0.945  -8.968  -8.024  0.00  0.00    -0.488 OA
ATOM     38  C   UNL     1       0.197  -9.179  -8.856  0.00  0.00    +0.277 C 
ENDBRANCH  32  37
BRANCH  31  39
ATOM     39  O   UNL     1      -1.286  -6.240  -8.114  0.00  0.00    -0.491 OA
ATOM     40  C   UNL     1      -1.446  -4.820  -8.088  0.00  0.00    +0.277 C 
ENDBRANCH  31  39
ENDBRANCH  26  29
ENDBRANCH  23  25
ENDBRANCH  21  23
ENDBRANCH   4  21
TORSDOF 9
