REMARK  Name = ZINC19853735
REMARK  11 active torsions:
REMARK  status: ('A' for Active; 'I' for Inactive)
REMARK    1  A    between atoms: C_1  and  C_2
REMARK    2  A    between atoms: C_3  and  C_29
REMARK    3  A    between atoms: C_4  and  N_28
REMARK    4  A    between atoms: C_9  and  C_10
REMARK    5  A    between atoms: C_12  and  O_21
REMARK    6  A    between atoms: C_13  and  O_17
REMARK    7  A    between atoms: O_17  and  C_18
REMARK    8  A    between atoms: C_18  and  C_19
REMARK    9  A    between atoms: O_21  and  C_22
REMARK   10  A    between atoms: C_23  and  C_27
REMARK   11  A    between atoms: C_24  and  C_25
REMARK                            x       y       z     vdW  Elec       q    Type
REMARK                         _______ _______ _______ _____ _____    ______ ____
ROOT
ATOM      1  C   UNL     1      -0.418  -3.218   0.233  0.00  0.00    +0.046 C 
ATOM      2  C   UNL     1       1.082  -3.125   0.122  0.00  0.00    -0.020 A 
ATOM      3  C   UNL     1       1.844  -4.230  -0.273  0.00  0.00    +0.095 A 
ATOM      4  C   UNL     1       3.244  -4.100  -0.363  0.00  0.00    +0.135 A 
ATOM      5  N   UNL     1       3.840  -2.957  -0.082  0.00  0.00    -0.230 NA
ATOM      6  C   UNL     1       3.152  -1.883   0.297  0.00  0.00    +0.092 A 
ATOM      7  C   UNL     1       1.747  -1.941   0.415  0.00  0.00    +0.013 A 
ATOM      8  C   UNL     1       1.292  -0.603   0.843  0.00  0.00    -0.011 C 
ATOM      9  C   UNL     1      -0.016  -0.221   1.075  0.00  0.00    +0.017 C 
ATOM     10  C   UNL     1       2.435   0.217   0.979  0.00  0.00    -0.023 C 
ATOM     11  C   UNL     1       3.561  -0.515   0.661  0.00  0.00    +0.081 C 
ATOM     12  C   UNL     1       2.426   1.662   1.405  0.00  0.00    +0.046 C 
ENDROOT
BRANCH   9  13
ATOM     13  C   UNL     1      -0.300   1.032   1.773  0.00  0.00    -0.020 A 
ATOM     14  C   UNL     1       0.409   1.367   2.937  0.00  0.00    +0.057 A 
ATOM     15  C   UNL     1       0.140   2.553   3.586  0.00  0.00    +0.163 A 
ATOM     16  C   UNL     1      -0.843   3.413   3.094  0.00  0.00    +0.175 A 
ATOM     17  C   UNL     1      -1.551   3.082   1.944  0.00  0.00    +0.059 A 
ATOM     18  C   UNL     1      -1.286   1.902   1.284  0.00  0.00    +0.026 A 
ATOM     19  I   UNL     1      -3.023   4.380   1.213  0.00  0.00    -0.040 I 
BRANCH  15  20
ATOM     20  O   UNL     1       0.830   2.883   4.711  0.00  0.00    -0.491 OA
ATOM     21  C   UNL     1       1.866   1.990   5.123  0.00  0.00    +0.277 C 
ENDBRANCH  15  20
BRANCH  16  22
ATOM     22  O   UNL     1      -1.109   4.577   3.739  0.00  0.00    -0.483 OA
BRANCH  22  23
ATOM     23  C   UNL     1      -2.110   4.541   4.757  0.00  0.00    +0.256 C 
BRANCH  23  24
ATOM     24  C   UNL     1      -2.267   5.914   5.358  0.00  0.00    +0.006 C 
ATOM     25  C   UNL     1      -3.463   6.405   5.566  0.00  0.00    +0.007 C 
ENDBRANCH  23  24
ENDBRANCH  22  23
ENDBRANCH  16  22
ENDBRANCH   9  13
BRANCH   4  26
ATOM     26  N   UNL     1       4.006  -5.189  -0.753  0.00  0.00    -0.342 N 
ATOM     27  H   UNL     1       5.099  -5.097  -0.827  0.00  0.00    +0.144 HD
ATOM     28  H   UNL     1       3.517  -6.146  -0.989  0.00  0.00    +0.144 HD
ENDBRANCH   4  26
BRANCH  11  29
ATOM     29  C   UNL     1       4.906  -0.025   0.681  0.00  0.00    +0.102 C 
ATOM     30  N   UNL     1       5.973   0.363   0.696  0.00  0.00    -0.191 NA
ENDBRANCH  11  29
BRANCH   3  31
ATOM     31  C   UNL     1       1.209  -5.477  -0.580  0.00  0.00    +0.103 C 
ATOM     32  N   UNL     1       0.706  -6.465  -0.824  0.00  0.00    -0.191 NA
ENDBRANCH   3  31
TORSDOF 8
