REMARK  Name = ZINC13241638
REMARK  11 active torsions:
REMARK  status: ('A' for Active; 'I' for Inactive)
REMARK    1  A    between atoms: C_1  and  C_2
REMARK    2  A    between atoms: C_6  and  C_32
REMARK    3  A    between atoms: C_7  and  N_8
REMARK    4  A    between atoms: C_9  and  C_11
REMARK    5  A    between atoms: C_11  and  S_12
REMARK    6  A    between atoms: S_12  and  C_13
REMARK    7  A    between atoms: C_16  and  C_26
REMARK    8  A    between atoms: N_17  and  C_18
REMARK    9  A    between atoms: C_18  and  C_19
REMARK   10  A    between atoms: C_19  and  C_20
REMARK   11  A    between atoms: C_26  and  C_27
REMARK                            x       y       z     vdW  Elec       q    Type
REMARK                         _______ _______ _______ _____ _____    ______ ____
ROOT
ATOM      1  C   UNL     1       1.835  -2.476  -3.894  0.00  0.00    +0.192 A 
ATOM      2  N   UNL     1       2.862  -3.161  -3.449  0.00  0.00    -0.122 NA
ATOM      3  N   UNL     1       3.196  -2.738  -2.282  0.00  0.00    -0.133 NA
ATOM      4  C   UNL     1       2.408  -1.767  -1.916  0.00  0.00    +0.139 A 
ATOM      5  N   UNL     1       1.510  -1.568  -2.927  0.00  0.00    -0.305 N 
ENDROOT
BRANCH   1   6
ATOM      6  S   UNL     1       1.024  -2.692  -5.444  0.00  0.00    -0.077 S 
BRANCH   6   7
ATOM      7  C   UNL     1       2.009  -4.048  -6.127  0.00  0.00    +0.173 C 
BRANCH   7   9
ATOM      8  N   UNL     1       2.065  -5.404  -8.195  0.00  0.00    -0.284 N 
ATOM      9  C   UNL     1       1.482  -4.413  -7.491  0.00  0.00    +0.228 C 
ATOM     10  O   UNL     1       0.535  -3.816  -7.955  0.00  0.00    -0.275 OA
ATOM     11  H   UNL     1       2.856  -5.846  -7.848  0.00  0.00    +0.155 HD
BRANCH   8  18
ATOM     12  C   UNL     1      -0.679  -6.141  -8.288  0.00  0.00    +0.046 C 
ATOM     13  C   UNL     1       0.196  -6.163  -9.515  0.00  0.00    -0.028 A 
ATOM     14  C   UNL     1      -0.332  -6.544 -10.732  0.00  0.00    +0.005 A 
ATOM     15  C   UNL     1       0.465  -6.573 -11.865  0.00  0.00    +0.001 A 
ATOM     16  C   UNL     1       1.794  -6.215 -11.790  0.00  0.00    +0.017 A 
ATOM     17  C   UNL     1       2.342  -5.822 -10.566  0.00  0.00    +0.085 A 
ATOM     18  C   UNL     1       1.531  -5.794  -9.421  0.00  0.00    +0.051 A 
BRANCH  17  19
ATOM     19  C   UNL     1       3.762  -5.437 -10.479  0.00  0.00    +0.388 C 
ATOM     20  O   UNL     1       4.259  -5.189  -9.398  0.00  0.00    -0.241 OA
ATOM     21  O   UNL     1       4.509  -5.361 -11.598  0.00  0.00    -0.241 OA
ENDBRANCH  17  19
ENDBRANCH   8  18
ENDBRANCH   7   9
ENDBRANCH   6   7
ENDBRANCH   1   6
BRANCH   5  22
ATOM     22  C   UNL     1       0.425  -0.584  -2.967  0.00  0.00    +0.130 C 
BRANCH  22  23
ATOM     23  C   UNL     1       0.940   0.717  -3.585  0.00  0.00    +0.057 C 
BRANCH  23  24
ATOM     24  C   UNL     1      -0.175   1.730  -3.626  0.00  0.00    -0.046 A 
ATOM     25  C   UNL     1      -0.999   1.807  -4.733  0.00  0.00    +0.004 A 
ATOM     26  C   UNL     1      -2.026   2.732  -4.768  0.00  0.00    +0.000 A 
ATOM     27  C   UNL     1      -2.221   3.588  -3.700  0.00  0.00    +0.000 A 
ATOM     28  C   UNL     1      -1.394   3.514  -2.595  0.00  0.00    +0.000 A 
ATOM     29  C   UNL     1      -0.371   2.586  -2.558  0.00  0.00    +0.004 A 
ENDBRANCH  23  24
ENDBRANCH  22  23
ENDBRANCH   5  22
BRANCH   4  30
ATOM     30  C   UNL     1       2.472  -1.007  -0.616  0.00  0.00    +0.118 C 
BRANCH  30  31
ATOM     31  C   UNL     1       3.377   0.187  -0.775  0.00  0.00    -0.003 A 
ATOM     32  C   UNL     1       3.067   1.447  -1.167  0.00  0.00    +0.011 A 
ATOM     33  C   UNL     1       4.072   2.392  -1.242  0.00  0.00    +0.008 A 
ATOM     34  C   UNL     1       5.339   2.031  -0.923  0.00  0.00    +0.045 A 
ATOM     35  S   UNL     1       5.136   0.309  -0.499  0.00  0.00    -0.101 S 
ENDBRANCH  30  31
ENDBRANCH   4  30
TORSDOF 10
