REMARK  Name = ZINC40112198
REMARK  9 active torsions:
REMARK  status: ('A' for Active; 'I' for Inactive)
REMARK    1  A    between atoms: C_1  and  C_2
REMARK    2  A    between atoms: C_5  and  C_7
REMARK    3  A    between atoms: C_9  and  C_18
REMARK    4  A    between atoms: N_13  and  C_14
REMARK    5  A    between atoms: C_14  and  C_15
REMARK    6  A    between atoms: C_15  and  O_16
REMARK    7  A    between atoms: C_18  and  C_20
REMARK    8  A    between atoms: C_23  and  S_26
REMARK    9  A    between atoms: S_26  and  N_29
REMARK                            x       y       z     vdW  Elec       q    Type
REMARK                         _______ _______ _______ _____ _____    ______ ____
ROOT
ATOM      1  C   UNL     1       1.251  -3.685  -2.597  0.00  0.00    +0.195 C 
ATOM      2  O   UNL     1       1.741  -4.111  -3.626  0.00  0.00    -0.287 OA
ENDROOT
BRANCH   1   4
ATOM      3  C   UNL     1       2.216  -1.814  -0.972  0.00  0.00    +0.180 C 
ATOM      4  C   UNL     1       2.118  -3.222  -1.509  0.00  0.00    +0.079 C 
ATOM      5  C   UNL     1       2.985  -3.975  -0.792  0.00  0.00    +0.249 C 
ATOM      6  C   UNL     1       3.660  -3.119   0.207  0.00  0.00    +0.288 C 
ATOM      7  O   UNL     1       4.495  -3.501   1.002  0.00  0.00    -0.266 OA
ATOM      8  N   UNL     1       3.212  -1.853   0.105  0.00  0.00    -0.278 N 
ATOM      9  O   UNL     1       3.199  -5.300  -0.962  0.00  0.00    -0.282 OA
BRANCH   3  14
ATOM     10  C   UNL     1       5.176   0.601  -4.266  0.00  0.00    +0.086 C 
ATOM     11  C   UNL     1       3.954   0.176  -3.493  0.00  0.00    +0.102 A 
ATOM     12  C   UNL     1       2.712   0.667  -3.652  0.00  0.00    +0.045 A 
ATOM     13  C   UNL     1       1.883  -0.010  -2.729  0.00  0.00    +0.047 A 
ATOM     14  C   UNL     1       2.667  -0.874  -2.061  0.00  0.00    +0.130 A 
ATOM     15  O   UNL     1       3.920  -0.761  -2.531  0.00  0.00    -0.463 OA
ENDBRANCH   3  14
BRANCH   8  16
ATOM     16  C   UNL     1       3.643  -0.717   0.923  0.00  0.00    +0.137 C 
BRANCH  16  17
ATOM     17  C   UNL     1       2.750  -0.613   2.162  0.00  0.00    +0.175 C 
BRANCH  17  18
ATOM     18  O   UNL     1       2.941  -1.765   2.985  0.00  0.00    -0.393 OA
ATOM     19  H   UNL     1       2.405  -1.766   3.790  0.00  0.00    +0.209 HD
ENDBRANCH  17  18
ENDBRANCH  16  17
ENDBRANCH   8  16
ENDBRANCH   1   4
BRANCH   1  20
ATOM     20  C   UNL     1      -0.218  -3.634  -2.443  0.00  0.00    +0.022 A 
ATOM     21  C   UNL     1      -0.784  -3.249  -1.226  0.00  0.00    +0.013 A 
ATOM     22  C   UNL     1      -2.155  -3.203  -1.090  0.00  0.00    +0.029 A 
ATOM     23  C   UNL     1      -2.971  -3.539  -2.156  0.00  0.00    +0.106 A 
ATOM     24  C   UNL     1      -2.418  -3.921  -3.365  0.00  0.00    +0.029 A 
ATOM     25  C   UNL     1      -1.048  -3.966  -3.517  0.00  0.00    +0.013 A 
BRANCH  23  26
ATOM     26  S   UNL     1      -4.723  -3.479  -1.973  0.00  0.00    +0.061 S 
ATOM     27  O   UNL     1      -5.263  -4.363  -2.945  0.00  0.00    -0.153 OA
ATOM     28  O   UNL     1      -4.991  -3.618  -0.584  0.00  0.00    -0.153 OA
BRANCH  26  29
ATOM     29  N   UNL     1      -5.208  -1.953  -2.398  0.00  0.00    -0.177 NA
ATOM     30  C   UNL     1      -5.266  -0.934  -1.374  0.00  0.00    +0.109 C 
ATOM     31  C   UNL     1      -6.666  -0.942  -0.713  0.00  0.00    +0.017 C 
ATOM     32  C   UNL     1      -7.675  -0.413  -1.645  0.00  0.00    +0.001 C 
ATOM     33  C   UNL     1      -7.852  -1.240  -2.914  0.00  0.00    +0.001 C 
ATOM     34  C   UNL     1      -6.824  -0.818  -3.934  0.00  0.00    +0.017 C 
ATOM     35  C   UNL     1      -5.556  -1.689  -3.808  0.00  0.00    +0.109 C 
ENDBRANCH  26  29
ENDBRANCH  23  26
ENDBRANCH   1  20
TORSDOF 8
