REMARK  Name = ZINC67388809
REMARK  11 active torsions:
REMARK  status: ('A' for Active; 'I' for Inactive)
REMARK    1  A    between atoms: C_1  and  C_2
REMARK    2  A    between atoms: C_2  and  C_3
REMARK    3  A    between atoms: C_2  and  C_4
REMARK    4  A    between atoms: C_4  and  C_5
REMARK    5  A    between atoms: C_5  and  C_6
REMARK    6  A    between atoms: N_8  and  N_9
REMARK    7  A    between atoms: N_12  and  C_13
REMARK    8  A    between atoms: C_13  and  C_14
REMARK    9  A    between atoms: C_19  and  C_20
REMARK   10  A    between atoms: C_20  and  N_21
REMARK   11  A    between atoms: N_24  and  C_27
REMARK                            x       y       z     vdW  Elec       q    Type
REMARK                         _______ _______ _______ _____ _____    ______ ____
ROOT
ATOM      1  C   UNL     1      -4.261  -8.279  -0.187  0.00  0.00    +0.141 C 
ENDROOT
BRANCH   1   5
ATOM      2  N   UNL     1      -5.226  -4.735  -0.036  0.00  0.00    -0.218 N 
ATOM      3  C   UNL     1      -5.287  -6.080   0.026  0.00  0.00    +0.316 C 
ATOM      4  O   UNL     1      -6.328  -6.627   0.335  0.00  0.00    -0.251 OA
ATOM      5  N   UNL     1      -4.195  -6.817  -0.255  0.00  0.00    -0.294 N 
ATOM      6  H   UNL     1      -6.012  -4.203   0.166  0.00  0.00    +0.174 HD
ATOM      7  H   UNL     1      -3.365  -6.381  -0.502  0.00  0.00    +0.151 HD
BRANCH   2  10
ATOM      8  C   UNL     1      -3.966  -2.759  -0.455  0.00  0.00    +0.229 C 
ATOM      9  O   UNL     1      -4.949  -2.095  -0.203  0.00  0.00    -0.274 OA
ATOM     10  N   UNL     1      -4.027  -4.104  -0.393  0.00  0.00    -0.233 N 
ATOM     11  H   UNL     1      -3.241  -4.635  -0.595  0.00  0.00    +0.173 HD
BRANCH   8  12
ATOM     12  C   UNL     1      -2.676  -2.080  -0.839  0.00  0.00    +0.097 C 
BRANCH  12  13
ATOM     13  C   UNL     1      -2.877  -0.563  -0.834  0.00  0.00    +0.012 C 
BRANCH  13  15
ATOM     14  C   UNL     1      -1.799   1.634  -1.339  0.00  0.00    +0.007 C 
ATOM     15  C   UNL     1      -1.567   0.126  -1.223  0.00  0.00    -0.017 C 
ATOM     16  C   UNL     1      -0.510  -0.146  -0.151  0.00  0.00    +0.007 C 
ENDBRANCH  13  15
ENDBRANCH  12  13
ENDBRANCH   8  12
ENDBRANCH   2  10
ENDBRANCH   1   5
BRANCH   1  17
ATOM     17  C   UNL     1      -2.917  -8.860  -0.544  0.00  0.00    -0.026 A 
ATOM     18  C   UNL     1      -2.692  -9.352  -1.816  0.00  0.00    +0.005 A 
ATOM     19  C   UNL     1      -1.460  -9.885  -2.143  0.00  0.00    +0.000 A 
ATOM     20  C   UNL     1      -0.451  -9.926  -1.198  0.00  0.00    +0.000 A 
ATOM     21  C   UNL     1      -0.676  -9.434   0.074  0.00  0.00    +0.005 A 
ATOM     22  C   UNL     1      -1.908  -8.897   0.400  0.00  0.00    -0.029 A 
BRANCH  22  23
ATOM     23  C   UNL     1      -2.151  -8.355   1.785  0.00  0.00    +0.119 C 
BRANCH  23  24
ATOM     24  N   UNL     1      -2.084  -6.888   1.756  0.00  0.00    -0.302 NA
ATOM     25  C   UNL     1      -0.709  -6.428   1.517  0.00  0.00    +0.066 C 
ATOM     26  C   UNL     1      -0.692  -4.900   1.435  0.00  0.00    -0.064 C 
ATOM     27  N   UNL     1      -1.204  -4.336   2.690  0.00  0.00    +0.379 N 
ATOM     28  C   UNL     1      -2.587  -4.784   2.902  0.00  0.00    -0.064 C 
ATOM     29  C   UNL     1      -2.619  -6.311   2.997  0.00  0.00    +0.066 C 
ATOM     30  C   UNL     1      -1.171  -2.869   2.617  0.00  0.00    -0.096 C 
ATOM     31  H   UNL     1      -0.628  -4.647   3.458  0.00  0.00    -0.082 HD
ENDBRANCH  23  24
ENDBRANCH  22  23
ENDBRANCH   1  17
TORSDOF 8
