REMARK  Name = ZINC04352564
REMARK  14 active torsions:
REMARK  status: ('A' for Active; 'I' for Inactive)
REMARK    1  A    between atoms: C_4  and  C_7
REMARK    2  A    between atoms: C_7  and  O_8
REMARK    3  A    between atoms: O_8  and  P_9
REMARK    4  A    between atoms: P_9  and  O_11
REMARK    5  A    between atoms: P_9  and  O_19
REMARK    6  A    between atoms: O_11  and  C_12
REMARK    7  A    between atoms: C_12  and  C_13
REMARK    8  A    between atoms: O_19  and  P_20
REMARK    9  A    between atoms: P_20  and  O_22
REMARK   10  A    between atoms: P_20  and  O_30
REMARK   11  A    between atoms: O_22  and  C_23
REMARK   12  A    between atoms: C_23  and  C_24
REMARK   13  A    between atoms: O_30  and  C_31
REMARK   14  A    between atoms: C_31  and  C_32
REMARK                            x       y       z     vdW  Elec       q    Type
REMARK                         _______ _______ _______ _____ _____    ______ ____
ROOT
ATOM      1  O   UNL     1       1.723  -2.577   1.109  0.00  0.00    -0.186 OA
ENDROOT
BRANCH   1   2
ATOM      2  P   UNL     1       0.320  -2.215   1.810  0.00  0.00    +0.487 P 
ATOM      3  O   UNL     1       0.345  -2.656   3.223  0.00  0.00    -0.227 OA
BRANCH   2   4
ATOM      4  O   UNL     1       0.084  -0.623   1.749  0.00  0.00    -0.282 OA
BRANCH   4   5
ATOM      5  C   UNL     1      -0.044   0.098   0.522  0.00  0.00    +0.207 C 
BRANCH   5   9
ATOM      6  C   UNL     1      -0.313   4.280   1.350  0.00  0.00    +0.000 A 
ATOM      7  C   UNL     1       0.925   3.678   1.224  0.00  0.00    +0.000 A 
ATOM      8  C   UNL     1       1.012   2.325   0.957  0.00  0.00    +0.006 A 
ATOM      9  C   UNL     1      -0.139   1.573   0.814  0.00  0.00    -0.021 A 
ATOM     10  C   UNL     1      -1.377   2.176   0.934  0.00  0.00    +0.006 A 
ATOM     11  C   UNL     1      -1.464   3.528   1.206  0.00  0.00    +0.000 A 
ENDBRANCH   5   9
ENDBRANCH   4   5
ENDBRANCH   2   4
BRANCH   2  12
ATOM     12  O   UNL     1      -0.876  -2.965   1.036  0.00  0.00    -0.282 OA
BRANCH  12  13
ATOM     13  C   UNL     1      -2.234  -2.928   1.479  0.00  0.00    +0.207 C 
BRANCH  13  14
ATOM     14  C   UNL     1      -3.093  -3.728   0.533  0.00  0.00    -0.021 A 
ATOM     15  C   UNL     1      -3.680  -3.112  -0.556  0.00  0.00    +0.006 A 
ATOM     16  C   UNL     1      -4.464  -3.847  -1.426  0.00  0.00    +0.000 A 
ATOM     17  C   UNL     1      -4.668  -5.195  -1.201  0.00  0.00    +0.000 A 
ATOM     18  C   UNL     1      -4.086  -5.810  -0.108  0.00  0.00    +0.000 A 
ATOM     19  C   UNL     1      -3.298  -5.077   0.759  0.00  0.00    +0.006 A 
ENDBRANCH  13  14
ENDBRANCH  12  13
ENDBRANCH   2  12
ENDBRANCH   1   2
BRANCH   1  20
ATOM     20  P   UNL     1       3.265  -2.415   1.544  0.00  0.00    +0.487 P 
ATOM     21  O   UNL     1       3.478  -1.065   2.111  0.00  0.00    -0.227 OA
BRANCH  20  22
ATOM     22  O   UNL     1       3.630  -3.526   2.651  0.00  0.00    -0.282 OA
BRANCH  22  23
ATOM     23  C   UNL     1       4.895  -3.578   3.313  0.00  0.00    +0.207 C 
BRANCH  23  24
ATOM     24  C   UNL     1       4.907  -4.731   4.283  0.00  0.00    -0.021 A 
ATOM     25  C   UNL     1       4.497  -4.540   5.589  0.00  0.00    +0.006 A 
ATOM     26  C   UNL     1       4.503  -5.599   6.478  0.00  0.00    +0.000 A 
ATOM     27  C   UNL     1       4.929  -6.847   6.062  0.00  0.00    +0.000 A 
ATOM     28  C   UNL     1       5.345  -7.037   4.758  0.00  0.00    +0.000 A 
ATOM     29  C   UNL     1       5.333  -5.979   3.868  0.00  0.00    +0.006 A 
ENDBRANCH  23  24
ENDBRANCH  22  23
ENDBRANCH  20  22
BRANCH  20  30
ATOM     30  O   UNL     1       4.209  -2.611   0.255  0.00  0.00    -0.282 OA
BRANCH  30  31
ATOM     31  C   UNL     1       4.153  -3.768  -0.582  0.00  0.00    +0.207 C 
BRANCH  31  32
ATOM     32  C   UNL     1       5.240  -3.688  -1.623  0.00  0.00    -0.021 A 
ATOM     33  C   UNL     1       5.015  -3.014  -2.808  0.00  0.00    +0.006 A 
ATOM     34  C   UNL     1       6.014  -2.936  -3.760  0.00  0.00    +0.000 A 
ATOM     35  C   UNL     1       7.235  -3.543  -3.532  0.00  0.00    +0.000 A 
ATOM     36  C   UNL     1       7.459  -4.222  -2.349  0.00  0.00    +0.000 A 
ATOM     37  C   UNL     1       6.462  -4.295  -1.394  0.00  0.00    +0.006 A 
ENDBRANCH  31  32
ENDBRANCH  30  31
ENDBRANCH  20  30
ENDBRANCH   1  20
TORSDOF 14
