REMARK  Name = ZINC12570918
REMARK  8 active torsions:
REMARK  status: ('A' for Active; 'I' for Inactive)
REMARK    1  A    between atoms: C_1  and  C_2
REMARK    2  A    between atoms: C_7  and  O_8
REMARK    3  A    between atoms: O_8  and  C_9
REMARK    4  A    between atoms: C_9  and  C_10
REMARK    5  A    between atoms: N_12  and  N_13
REMARK    6  A    between atoms: N_13  and  C_14
REMARK    7  A    between atoms: C_14  and  N_16
REMARK    8  A    between atoms: C_17  and  C_19
REMARK                            x       y       z     vdW  Elec       q    Type
REMARK                         _______ _______ _______ _____ _____    ______ ____
ROOT
ATOM      1  C   UNL     1       1.030   3.512   0.011  0.00  0.00    +0.267 C 
ATOM      2  O   UNL     1      -0.097   3.960   0.024  0.00  0.00    -0.271 OA
ATOM      3  N   UNL     1       2.088   4.348   0.005  0.00  0.00    -0.232 N 
ATOM      4  H   UNL     1       2.989   3.989  -0.005  0.00  0.00    +0.173 HD
ENDROOT
BRANCH   3   5
ATOM      5  N   UNL     1       1.885   5.734   0.015  0.00  0.00    -0.245 N 
ATOM      6  H   UNL     1       0.984   6.092   0.025  0.00  0.00    +0.172 HD
BRANCH   5   7
ATOM      7  C   UNL     1       2.943   6.569   0.009  0.00  0.00    +0.153 C 
ATOM      8  S   UNL     1       2.696   8.263   0.021  0.00  0.00    -0.017 S 
BRANCH   7   9
ATOM      9  N   UNL     1       4.195   6.071  -0.005  0.00  0.00    -0.260 N 
ATOM     10  C   UNL     1       5.253   6.907  -0.011  0.00  0.00    +0.285 C 
ATOM     11  O   UNL     1       5.077   8.111  -0.003  0.00  0.00    -0.266 OA
ATOM     12  H   UNL     1       4.335   5.111  -0.012  0.00  0.00    +0.157 HD
BRANCH  10  13
ATOM     13  C   UNL     1       6.613   6.365  -0.027  0.00  0.00    +0.191 A 
ATOM     14  C   UNL     1       7.768   7.096  -0.034  0.00  0.00    +0.056 A 
ATOM     15  C   UNL     1       8.827   6.177  -0.049  0.00  0.00    +0.058 A 
ATOM     16  C   UNL     1       8.281   4.939  -0.051  0.00  0.00    +0.171 A 
ATOM     17  O   UNL     1       6.947   5.057  -0.031  0.00  0.00    -0.444 OA
ATOM     18 BR   UNL     1       9.242   3.311  -0.069  0.00  0.00    -0.008 Br
ENDBRANCH  10  13
ENDBRANCH   7   9
ENDBRANCH   5   7
ENDBRANCH   3   5
BRANCH   1  19
ATOM     19  C   UNL     1       1.248   2.021   0.001  0.00  0.00    +0.326 C 
BRANCH  19  20
ATOM     20  O   UNL     1      -0.016   1.355   0.009  0.00  0.00    -0.482 OA
BRANCH  20  27
ATOM     21  C   UNL     1      -2.505   0.019   0.039  0.00  0.00    +0.047 C 
ATOM     22  C   UNL     1      -1.189  -0.715   0.015  0.00  0.00    -0.008 A 
ATOM     23  C   UNL     1      -1.168  -2.096   0.002  0.00  0.00    +0.022 A 
ATOM     24  C   UNL     1       0.040  -2.771  -0.013  0.00  0.00    +0.018 A 
ATOM     25  C   UNL     1       1.229  -2.063  -0.021  0.00  0.00    +0.019 A 
ATOM     26  C   UNL     1       1.212  -0.682  -0.013  0.00  0.00    +0.047 A 
ATOM     27  C   UNL     1       0.002  -0.004   0.002  0.00  0.00    +0.124 A 
ATOM     28 BR   UNL     1       0.065  -4.661  -0.023  0.00  0.00    -0.050 Br
ENDBRANCH  20  27
ENDBRANCH  19  20
ENDBRANCH   1  19
TORSDOF 7
