REMARK  Name = ZINC21108414
REMARK  4 active torsions:
REMARK  status: ('A' for Active; 'I' for Inactive)
REMARK    1  A    between atoms: C_1  and  C_2
REMARK    2  A    between atoms: C_7  and  S_8
REMARK    3  A    between atoms: S_8  and  N_11
REMARK    4  A    between atoms: N_11  and  C_12
REMARK                            x       y       z     vdW  Elec       q    Type
REMARK                         _______ _______ _______ _____ _____    ______ ____
ROOT
ATOM      1  S   UNL     1       0.078   1.565   0.013  0.00  0.00    +0.073 S 
ATOM      2  O   UNL     1      -0.890   2.096  -0.881  0.00  0.00    -0.150 OA
ATOM      3  O   UNL     1       0.010   1.769   1.418  0.00  0.00    -0.150 OA
ENDROOT
BRANCH   1  10
ATOM      4  C   UNL     1       1.921  -0.336   1.464  0.00  0.00    +0.046 C 
ATOM      5  C   UNL     1       0.980  -0.968   0.471  0.00  0.00    -0.022 A 
ATOM      6  C   UNL     1       1.000  -2.338   0.277  0.00  0.00    +0.032 A 
ATOM      7  C   UNL     1       0.135  -2.917  -0.636  0.00  0.00    +0.076 A 
ATOM      8  C   UNL     1      -0.754  -2.119  -1.356  0.00  0.00    +0.144 A 
ATOM      9  C   UNL     1      -0.773  -0.751  -1.152  0.00  0.00    +0.076 A 
ATOM     10  C   UNL     1       0.098  -0.178  -0.242  0.00  0.00    +0.115 A 
ATOM     11  O   UNL     1      -1.598  -2.699  -2.251  0.00  0.00    -0.481 OA
ATOM     12  C   UNL     1      -1.114  -3.858  -2.934  0.00  0.00    +0.325 C 
ATOM     13  C   UNL     1      -0.474  -4.799  -1.945  0.00  0.00    +0.255 C 
ATOM     14  O   UNL     1      -0.510  -5.996  -2.133  0.00  0.00    -0.272 OA
ATOM     15  N   UNL     1       0.138  -4.303  -0.848  0.00  0.00    -0.280 N 
ATOM     16  H   UNL     1       0.635  -4.968  -0.126  0.00  0.00    +0.155 HD
ENDBRANCH   1  10
BRANCH   1  17
ATOM     17  N   UNL     1       1.548   2.149  -0.479  0.00  0.00    -0.216 N 
ATOM     18  H   UNL     1       2.245   2.575   0.257  0.00  0.00    +0.174 HD
BRANCH  17  19
ATOM     19  C   UNL     1       1.902   2.101  -1.832  0.00  0.00    +0.052 A 
ATOM     20  C   UNL     1       1.702   0.936  -2.561  0.00  0.00    +0.028 A 
ATOM     21  C   UNL     1       2.046   0.889  -3.899  0.00  0.00    +0.051 A 
ATOM     22  C   UNL     1       2.601   2.000  -4.513  0.00  0.00    +0.166 A 
ATOM     23  C   UNL     1       2.808   3.167  -3.783  0.00  0.00    +0.168 A 
ATOM     24  C   UNL     1       2.458   3.216  -2.444  0.00  0.00    +0.074 A 
ATOM     25  O   UNL     1       3.360   4.105  -4.607  0.00  0.00    -0.453 OA
ATOM     26  C   UNL     1       3.866   3.373  -5.739  0.00  0.00    +0.466 C 
ATOM     27  O   UNL     1       3.025   2.206  -5.796  0.00  0.00    -0.453 OA
ENDBRANCH  17  19
ENDBRANCH   1  17
TORSDOF 3
