REMARK  Name = ZINC08915221
REMARK  7 active torsions:
REMARK  status: ('A' for Active; 'I' for Inactive)
REMARK    1  A    between atoms: C_1  and  S_2
REMARK    2  A    between atoms: S_2  and  C_3
REMARK    3  A    between atoms: C_7  and  C_9
REMARK    4  A    between atoms: N_11  and  C_12
REMARK    5  A    between atoms: C_13  and  C_21
REMARK    6  A    between atoms: N_23  and  C_24
REMARK    7  A    between atoms: C_24  and  C_25
REMARK                            x       y       z     vdW  Elec       q    Type
REMARK                         _______ _______ _______ _____ _____    ______ ____
ROOT
ATOM      1  C   UNL     1      -2.420   0.185   0.027  0.00  0.00    +0.085 A 
ATOM      2  C   UNL     1      -1.304  -0.641   0.012  0.00  0.00    +0.069 A 
ATOM      3  C   UNL     1       0.002  -0.004   0.002  0.00  0.00    -0.023 A 
ATOM      4  C   UNL     1      -0.016   1.347   0.009  0.00  0.00    -0.004 A 
ATOM      5  S   UNL     1      -1.734   1.776   0.036  0.00  0.00    -0.077 S 
ATOM      6  C   UNL     1       1.166   2.266   0.003  0.00  0.00    +0.043 C 
ATOM      7  C   UNL     1       2.415   1.450   0.367  0.00  0.00    +0.005 C 
ATOM      8  C   UNL     1       2.431   0.172  -0.477  0.00  0.00    +0.005 C 
ATOM      9  C   UNL     1       1.319  -0.771  -0.015  0.00  0.00    +0.037 C 
ENDROOT
BRANCH   1  12
ATOM     10  C   UNL     1      -4.712   0.776   0.052  0.00  0.00    +0.268 C 
ATOM     11  O   UNL     1      -4.399   1.950   0.055  0.00  0.00    -0.268 OA
ATOM     12  N   UNL     1      -3.757  -0.176   0.038  0.00  0.00    -0.274 N 
ATOM     13  H   UNL     1      -4.007  -1.113   0.036  0.00  0.00    +0.156 HD
BRANCH  10  18
ATOM     14  C   UNL     1      -7.774  -1.242   0.072  0.00  0.00    +0.189 A 
ATOM     15  N   UNL     1      -8.744  -0.337   0.086  0.00  0.00    -0.229 NA
ATOM     16  C   UNL     1      -8.468   0.955   0.090  0.00  0.00    +0.131 A 
ATOM     17  C   UNL     1      -7.141   1.366   0.079  0.00  0.00    +0.066 A 
ATOM     18  C   UNL     1      -6.144   0.389   0.065  0.00  0.00    +0.144 A 
ATOM     19  N   UNL     1      -6.498  -0.894   0.056  0.00  0.00    -0.216 NA
ATOM     20 BR   UNL     1      -6.697   3.204   0.084  0.00  0.00    -0.046 Br
BRANCH  14  22
ATOM     21  C   UNL     1     -10.003  -2.829   0.085  0.00  0.00    +0.093 C 
ATOM     22  S   UNL     1      -8.197  -2.952   0.067  0.00  0.00    -0.089 S 
ENDBRANCH  14  22
ENDBRANCH  10  18
ENDBRANCH   1  12
BRANCH   2  23
ATOM     23  C   UNL     1      -1.438  -2.101   0.005  0.00  0.00    +0.247 C 
ATOM     24  O   UNL     1      -1.483  -2.712   1.057  0.00  0.00    -0.270 OA
ATOM     25  N   UNL     1      -1.512  -2.766  -1.165  0.00  0.00    -0.309 N 
ATOM     26  H   UNL     1      -1.476  -2.278  -2.002  0.00  0.00    +0.149 HD
BRANCH  25  27
ATOM     27  C   UNL     1      -1.646  -4.224  -1.171  0.00  0.00    +0.136 C 
BRANCH  27  28
ATOM     28  C   UNL     1      -1.707  -4.725  -2.615  0.00  0.00    +0.135 C 
ATOM     29  C   UNL     1      -1.974  -6.246  -2.647  0.00  0.00    +0.035 C 
ATOM     30  C   UNL     1      -1.121  -6.752  -3.831  0.00  0.00    +0.031 C 
ATOM     31  C   UNL     1      -0.440  -5.477  -4.376  0.00  0.00    +0.160 C 
ATOM     32  O   UNL     1      -0.424  -4.562  -3.259  0.00  0.00    -0.375 OA
ENDBRANCH  27  28
ENDBRANCH  25  27
ENDBRANCH   2  23
TORSDOF 6
