REMARK  Name = ZINC09512139
REMARK  8 active torsions:
REMARK  status: ('A' for Active; 'I' for Inactive)
REMARK    1  A    between atoms: C_1  and  C_2
REMARK    2  A    between atoms: C_7  and  N_8
REMARK    3  A    between atoms: C_13  and  C_15
REMARK    4  A    between atoms: C_13  and  C_16
REMARK    5  A    between atoms: C_13  and  N_64
REMARK    6  A    between atoms: N_18  and  C_19
REMARK    7  A    between atoms: C_22  and  S_25
REMARK    8  A    between atoms: S_25  and  N_28
REMARK                            x       y       z     vdW  Elec       q    Type
REMARK                         _______ _______ _______ _____ _____    ______ ____
ROOT
ATOM      1  C   UNL     1      -2.804   4.215   5.427  0.00  0.00    +0.203 C 
ATOM      2  O   UNL     1      -1.999   4.979   4.938  0.00  0.00    -0.277 OA
ATOM      3  N   UNL     1      -3.076   3.043   4.821  0.00  0.00    -0.287 N 
ATOM      4  H   UNL     1      -3.768   2.462   5.174  0.00  0.00    +0.155 HD
ENDROOT
BRANCH   3   5
ATOM      5  C   UNL     1      -2.360   2.663   3.680  0.00  0.00    +0.033 A 
ATOM      6  C   UNL     1      -1.952   3.622   2.763  0.00  0.00    +0.025 A 
ATOM      7  C   UNL     1      -1.245   3.244   1.638  0.00  0.00    +0.030 A 
ATOM      8  C   UNL     1      -0.944   1.911   1.425  0.00  0.00    +0.106 A 
ATOM      9  C   UNL     1      -1.353   0.953   2.334  0.00  0.00    +0.030 A 
ATOM     10  C   UNL     1      -2.055   1.325   3.463  0.00  0.00    +0.025 A 
BRANCH   8  11
ATOM     11  S   UNL     1      -0.043   1.432  -0.011  0.00  0.00    +0.061 S 
ATOM     12  O   UNL     1      -0.255   2.449  -0.981  0.00  0.00    -0.153 OA
ATOM     13  O   UNL     1      -0.361   0.069  -0.255  0.00  0.00    -0.153 OA
BRANCH  11  14
ATOM     14  N   UNL     1       1.565   1.480   0.381  0.00  0.00    -0.177 NA
ATOM     15  C   UNL     1       2.450   2.645   0.229  0.00  0.00    +0.109 C 
ATOM     16  C   UNL     1       3.857   2.216   0.697  0.00  0.00    +0.018 C 
ATOM     17  C   UNL     1       3.815   0.672   0.545  0.00  0.00    +0.018 C 
ATOM     18  C   UNL     1       2.349   0.360   0.934  0.00  0.00    +0.109 C 
ENDBRANCH  11  14
ENDBRANCH   8  11
ENDBRANCH   3   5
BRANCH   1  19
ATOM     19  C   UNL     1      -3.502   4.577   6.713  0.00  0.00    +0.017 C 
ATOM     20  C   UNL     1      -3.183   3.527   7.779  0.00  0.00    -0.004 C 
BRANCH  19  26
ATOM     21  N   UNL     1      -1.877   7.725   9.015  0.00  0.00    -0.333 N 
ATOM     22  C   UNL     1      -3.322   7.740   8.752  0.00  0.00    +0.086 C 
ATOM     23  C   UNL     1      -3.780   6.334   8.357  0.00  0.00    -0.059 C 
ATOM     24  C   UNL     1      -1.590   5.879   7.432  0.00  0.00    -0.059 C 
ATOM     25  C   UNL     1      -1.132   7.285   7.827  0.00  0.00    +0.086 C 
ATOM     26  N   UNL     1      -3.041   5.913   7.149  0.00  0.00    +0.389 N 
ATOM     27  H   UNL     1      -3.218   6.588   6.396  0.00  0.00    -0.081 HD
BRANCH  21  34
ATOM     28  C   UNL     1      -0.664   7.905  11.582  0.00  0.00    +0.045 C 
ATOM     29  C   UNL     1      -0.836   9.111  10.694  0.00  0.00    -0.029 A 
ATOM     30  C   UNL     1      -0.399  10.350  11.120  0.00  0.00    +0.006 A 
ATOM     31  C   UNL     1      -0.555  11.457  10.307  0.00  0.00    +0.020 A 
ATOM     32  C   UNL     1      -1.151  11.328   9.064  0.00  0.00    +0.043 A 
ATOM     33  C   UNL     1      -1.586  10.090   8.630  0.00  0.00    +0.043 A 
ATOM     34  C   UNL     1      -1.434   8.977   9.448  0.00  0.00    +0.034 A 
ATOM     35 CL   UNL     1      -1.345  12.721   8.046  0.00  0.00    -0.083 Cl
ENDBRANCH  21  34
ENDBRANCH  19  26
ENDBRANCH   1  19
TORSDOF 6
