REMARK  Name = ZINC32527475
REMARK  11 active torsions:
REMARK  status: ('A' for Active; 'I' for Inactive)
REMARK    1  A    between atoms: C_1  and  C_2
REMARK    2  A    between atoms: C_2  and  C_3
REMARK    3  A    between atoms: C_3  and  C_5
REMARK    4  A    between atoms: C_3  and  N_23
REMARK    5  A    between atoms: N_7  and  C_8
REMARK    6  A    between atoms: C_9  and  C_20
REMARK    7  A    between atoms: C_10  and  C_13
REMARK    8  A    between atoms: C_16  and  C_19
REMARK    9  A    between atoms: C_27  and  C_36
REMARK   10  A    between atoms: C_30  and  C_35
REMARK   11  A    between atoms: C_32  and  C_34
REMARK                            x       y       z     vdW  Elec       q    Type
REMARK                         _______ _______ _______ _____ _____    ______ ____
ROOT
ATOM      1  C   UNL     1       4.585   0.587  -1.175  0.00  0.00    +0.241 C 
ATOM      2  O   UNL     1       4.448  -0.474  -1.747  0.00  0.00    -0.273 OA
ATOM      3  N   UNL     1       3.655   1.552  -1.314  0.00  0.00    -0.278 N 
ATOM      4  H   UNL     1       3.779   2.514  -0.795  0.00  0.00    +0.155 HD
ENDROOT
BRANCH   3   5
ATOM      5  C   UNL     1       2.542   1.333  -2.111  0.00  0.00    +0.085 A 
ATOM      6  C   UNL     1       1.490   2.198  -2.374  0.00  0.00    +0.073 A 
ATOM      7  C   UNL     1       0.445   1.708  -3.253  0.00  0.00    +0.003 A 
ATOM      8  C   UNL     1       0.596   0.449  -3.737  0.00  0.00    +0.056 A 
ATOM      9  S   UNL     1       2.135  -0.084  -3.017  0.00  0.00    -0.081 S 
BRANCH   7  10
ATOM     10  C   UNL     1      -0.726   2.544  -3.611  0.00  0.00    -0.017 A 
ATOM     11  C   UNL     1      -1.466   3.175  -2.612  0.00  0.00    +0.009 A 
ATOM     12  C   UNL     1      -2.552   3.956  -2.952  0.00  0.00    +0.004 A 
ATOM     13  C   UNL     1      -2.913   4.104  -4.279  0.00  0.00    -0.050 A 
ATOM     14  C   UNL     1      -2.185   3.476  -5.274  0.00  0.00    +0.004 A 
ATOM     15  C   UNL     1      -1.094   2.697  -4.947  0.00  0.00    +0.009 A 
ATOM     16  C   UNL     1      -4.104   4.953  -4.643  0.00  0.00    +0.044 C 
ENDBRANCH   7  10
BRANCH   6  17
ATOM     17  C   UNL     1       1.435   3.541  -1.791  0.00  0.00    +0.244 C 
ATOM     18  O   UNL     1       0.891   3.717  -0.716  0.00  0.00    -0.270 OA
ATOM     19  N   UNL     1       1.988   4.582  -2.445  0.00  0.00    -0.325 N 
ATOM     20  H   UNL     1       1.948   5.590  -2.007  0.00  0.00    +0.145 HD
ATOM     21  H   UNL     1       2.480   4.423  -3.416  0.00  0.00    +0.145 HD
ENDBRANCH   6  17
ENDBRANCH   3   5
BRANCH   1  22
ATOM     22  C   UNL     1       5.794   0.825  -0.308  0.00  0.00    +0.176 C 
BRANCH  22  23
ATOM     23  N   UNL     1       6.647  -0.367  -0.321  0.00  0.00    -0.296 N 
ATOM     24  C   UNL     1       6.474  -1.315   0.616  0.00  0.00    +0.253 A 
ATOM     25  O   UNL     1       5.608  -1.165   1.461  0.00  0.00    -0.268 OA
ATOM     26  C   UNL     1       7.265  -2.484   0.642  0.00  0.00    +0.074 A 
ATOM     27  C   UNL     1       8.238  -2.671  -0.284  0.00  0.00    -0.036 A 
ATOM     28  C   UNL     1       8.438  -1.641  -1.305  0.00  0.00    +0.002 A 
ATOM     29  C   UNL     1       7.618  -0.496  -1.291  0.00  0.00    +0.056 A 
ATOM     30  C   UNL     1       7.801   0.487  -2.256  0.00  0.00    -0.026 A 
ATOM     31  C   UNL     1       8.782   0.333  -3.213  0.00  0.00    +0.008 A 
ATOM     32  C   UNL     1       9.588  -0.797  -3.224  0.00  0.00    -0.050 A 
ATOM     33  C   UNL     1       9.426  -1.777  -2.286  0.00  0.00    +0.013 A 
ATOM     34  C   UNL     1      10.652  -0.944  -4.281  0.00  0.00    +0.044 C 
ATOM     35  C   UNL     1       6.932   1.719  -2.256  0.00  0.00    +0.046 C 
ATOM     36  C   UNL     1       9.093  -3.911  -0.263  0.00  0.00    +0.044 C 
ENDBRANCH  22  23
BRANCH  22  38
ATOM     37  C   UNL     1       6.563   1.479   1.978  0.00  0.00    +0.006 C 
ATOM     38  C   UNL     1       5.345   1.115   1.126  0.00  0.00    +0.031 C 
ENDBRANCH  22  38
ENDBRANCH   1  22
TORSDOF 6
