REMARK  Name = ZINC39686483
REMARK  10 active torsions:
REMARK  status: ('A' for Active; 'I' for Inactive)
REMARK    1  A    between atoms: C_1  and  C_2
REMARK    2  A    between atoms: C_2  and  C_4
REMARK    3  A    between atoms: C_2  and  N_13
REMARK    4  A    between atoms: C_4  and  C_5
REMARK    5  A    between atoms: C_10  and  O_11
REMARK    6  A    between atoms: O_11  and  C_12
REMARK    7  A    between atoms: C_14  and  C_16
REMARK    8  A    between atoms: C_27  and  C_29
REMARK    9  A    between atoms: C_32  and  O_35
REMARK   10  A    between atoms: O_35  and  C_36
REMARK                            x       y       z     vdW  Elec       q    Type
REMARK                         _______ _______ _______ _____ _____    ______ ____
ROOT
ATOM      1  C   UNL     1      -3.325  -0.507   1.279  0.00  0.00    +0.100 C 
ATOM      2  C   UNL     1      -4.441   0.230   0.504  0.00  0.00    +0.121 C 
ATOM      3  N   UNL     1      -5.654   0.053   1.336  0.00  0.00    -0.296 N 
ATOM      4  C   UNL     1      -5.169   0.195   2.730  0.00  0.00    +0.115 C 
ATOM      5  C   UNL     1      -3.806  -0.526   2.740  0.00  0.00    -0.004 C 
ATOM      6  C   UNL     1      -2.820   0.222   3.631  0.00  0.00    -0.010 C 
ATOM      7  C   UNL     1      -3.289   0.139   5.087  0.00  0.00    -0.082 C 
ATOM      8  N   UNL     1      -3.378  -1.269   5.494  0.00  0.00    +0.379 N 
ATOM      9  C   UNL     1      -4.396  -1.959   4.693  0.00  0.00    -0.082 C 
ATOM     10  C   UNL     1      -3.974  -1.964   3.222  0.00  0.00    -0.010 C 
ATOM     11  C   UNL     1      -6.914  -0.183   0.920  0.00  0.00    +0.247 C 
ATOM     12  O   UNL     1      -7.135  -0.402  -0.255  0.00  0.00    -0.270 OA
ATOM     13  H   UNL     1      -2.483  -1.715   5.355  0.00  0.00    -0.086 HD
ATOM     14  H   UNL     1      -3.628  -1.320   6.470  0.00  0.00    -0.086 HD
ENDROOT
BRANCH  11  15
ATOM     15  C   UNL     1      -8.025  -0.175   1.891  0.00  0.00    +0.037 A 
ATOM     16  C   UNL     1      -7.882   0.484   3.115  0.00  0.00    +0.016 A 
ATOM     17  C   UNL     1      -8.922   0.489   4.018  0.00  0.00    +0.047 A 
ATOM     18  C   UNL     1     -10.112  -0.161   3.714  0.00  0.00    +0.130 A 
ATOM     19  C   UNL     1     -10.258  -0.818   2.498  0.00  0.00    +0.047 A 
ATOM     20  C   UNL     1      -9.226  -0.823   1.587  0.00  0.00    +0.016 A 
BRANCH  18  21
ATOM     21  O   UNL     1     -11.134  -0.154   4.607  0.00  0.00    -0.406 OA
BRANCH  21  22
ATOM     22  C   UNL     1     -12.329  -0.842   4.231  0.00  0.00    +0.575 C 
ATOM     23  F   UNL     1     -12.038  -2.191   4.003  0.00  0.00    -0.133 F 
ATOM     24  F   UNL     1     -13.271  -0.736   5.260  0.00  0.00    -0.133 F 
ATOM     25  F   UNL     1     -12.847  -0.272   3.063  0.00  0.00    -0.133 F 
ENDBRANCH  21  22
ENDBRANCH  18  21
ENDBRANCH  11  15
BRANCH   1  27
ATOM     26  N   UNL     1      -0.879  -0.424   0.924  0.00  0.00    -0.312 N 
ATOM     27  C   UNL     1      -2.024   0.245   1.166  0.00  0.00    +0.218 C 
ATOM     28  O   UNL     1      -2.007   1.451   1.292  0.00  0.00    -0.275 OA
ATOM     29  H   UNL     1      -0.892  -1.389   0.823  0.00  0.00    +0.149 HD
BRANCH  26  31
ATOM     30  C   UNL     1       0.556   0.820  -0.618  0.00  0.00    +0.028 C 
ATOM     31  C   UNL     1       0.387   0.306   0.814  0.00  0.00    +0.074 C 
BRANCH  31  32
ATOM     32  C   UNL     1       1.547  -0.628   1.161  0.00  0.00    +0.060 C 
BRANCH  32  33
ATOM     33  C   UNL     1       1.447  -1.036   2.608  0.00  0.00    -0.004 A 
ATOM     34  C   UNL     1       2.147  -0.338   3.573  0.00  0.00    +0.007 A 
ATOM     35  C   UNL     1       2.057  -0.713   4.901  0.00  0.00    +0.000 A 
ATOM     36  C   UNL     1       1.265  -1.786   5.267  0.00  0.00    +0.004 A 
ATOM     37  C   UNL     1       0.563  -2.487   4.306  0.00  0.00    +0.046 A 
ATOM     38  C   UNL     1       0.648  -2.110   2.973  0.00  0.00    +0.123 A 
BRANCH  38  39
ATOM     39  O   UNL     1      -0.046  -2.795   2.026  0.00  0.00    -0.495 OA
ATOM     40  C   UNL     1      -0.848  -3.889   2.475  0.00  0.00    +0.277 C 
ENDBRANCH  38  39
ENDBRANCH  32  33
ENDBRANCH  31  32
ENDBRANCH  26  31
ENDBRANCH   1  27
TORSDOF 8
