REMARK  Name = ZINC34733137
REMARK  9 active torsions:
REMARK  status: ('A' for Active; 'I' for Inactive)
REMARK    1  A    between atoms: C_1  and  O_2
REMARK    2  A    between atoms: O_2  and  C_3
REMARK    3  A    between atoms: C_6  and  N_11
REMARK    4  A    between atoms: C_8  and  O_9
REMARK    5  A    between atoms: O_9  and  C_10
REMARK    6  A    between atoms: C_12  and  C_14
REMARK    7  A    between atoms: C_18  and  C_32
REMARK    8  A    between atoms: N_24  and  C_25
REMARK    9  A    between atoms: C_25  and  C_26
REMARK                            x       y       z     vdW  Elec       q    Type
REMARK                         _______ _______ _______ _____ _____    ______ ____
ROOT
ATOM      1  C   UNL     1      -7.209  -3.145   0.693  0.00  0.00    +0.093 C 
ATOM      2  C   UNL     1      -7.957  -1.845   0.388  0.00  0.00    +0.016 C 
ATOM      3  C   UNL     1      -7.733  -0.847   1.526  0.00  0.00    +0.028 C 
ATOM      4  C   UNL     1      -8.288  -1.431   2.829  0.00  0.00    +0.108 C 
ATOM      5  N   UNL     1      -7.679  -2.749   3.054  0.00  0.00    -0.278 N 
ATOM      6  C   UNL     1      -7.758  -3.755   1.986  0.00  0.00    +0.122 C 
ATOM      7  C   UNL     1      -7.060  -3.030   4.218  0.00  0.00    +0.303 C 
ATOM      8  O   UNL     1      -6.919  -2.161   5.056  0.00  0.00    -0.253 OA
ATOM      9  N   UNL     1      -6.597  -4.274   4.452  0.00  0.00    -0.295 N 
ATOM     10  H   UNL     1      -6.643  -4.947   3.755  0.00  0.00    +0.151 HD
ENDROOT
BRANCH   4  11
ATOM     11  C   UNL     1      -7.953  -0.514   3.977  0.00  0.00    -0.027 A 
ATOM     12  C   UNL     1      -6.651  -0.090   4.166  0.00  0.00    +0.005 A 
ATOM     13  C   UNL     1      -6.343   0.751   5.219  0.00  0.00    +0.000 A 
ATOM     14  C   UNL     1      -7.338   1.169   6.083  0.00  0.00    +0.000 A 
ATOM     15  C   UNL     1      -8.641   0.747   5.893  0.00  0.00    +0.000 A 
ATOM     16  C   UNL     1      -8.949  -0.091   4.838  0.00  0.00    +0.005 A 
ENDBRANCH   4  11
BRANCH   1  18
ATOM     17  N   UNL     1      -4.880  -3.853   1.135  0.00  0.00    -0.285 N 
ATOM     18  C   UNL     1      -5.740  -2.852   0.859  0.00  0.00    +0.222 C 
ATOM     19  O   UNL     1      -5.331  -1.716   0.744  0.00  0.00    -0.275 OA
ATOM     20  H   UNL     1      -5.194  -4.771   1.152  0.00  0.00    +0.155 HD
BRANCH  17  24
ATOM     21  C   UNL     1      -0.873  -2.998   1.923  0.00  0.00    +0.162 A 
ATOM     22  C   UNL     1      -1.849  -2.051   2.188  0.00  0.00    +0.051 A 
ATOM     23  C   UNL     1      -3.177  -2.335   1.928  0.00  0.00    +0.027 A 
ATOM     24  C   UNL     1      -3.534  -3.568   1.399  0.00  0.00    +0.037 A 
ATOM     25  C   UNL     1      -2.558  -4.518   1.132  0.00  0.00    +0.072 A 
ATOM     26  C   UNL     1      -1.227  -4.232   1.388  0.00  0.00    +0.163 A 
BRANCH  21  28
ATOM     27  C   UNL     1       0.726  -1.431   2.728  0.00  0.00    +0.277 C 
ATOM     28  O   UNL     1       0.434  -2.717   2.179  0.00  0.00    -0.491 OA
ENDBRANCH  21  28
BRANCH  26  29
ATOM     29  O   UNL     1      -0.269  -5.160   1.122  0.00  0.00    -0.491 OA
ATOM     30  C   UNL     1      -0.705  -6.405   0.574  0.00  0.00    +0.277 C 
ENDBRANCH  26  29
ENDBRANCH  17  24
ENDBRANCH   1  18
BRANCH   9  31
ATOM     31  C   UNL     1      -6.024  -4.609   5.758  0.00  0.00    +0.141 C 
BRANCH  31  32
ATOM     32  C   UNL     1      -5.585  -6.050   5.759  0.00  0.00    -0.030 A 
ATOM     33  C   UNL     1      -6.468  -7.041   6.144  0.00  0.00    +0.005 A 
ATOM     34  C   UNL     1      -6.065  -8.364   6.145  0.00  0.00    +0.000 A 
ATOM     35  C   UNL     1      -4.779  -8.695   5.761  0.00  0.00    +0.000 A 
ATOM     36  C   UNL     1      -3.897  -7.703   5.375  0.00  0.00    +0.000 A 
ATOM     37  C   UNL     1      -4.301  -6.381   5.369  0.00  0.00    +0.005 A 
ENDBRANCH  31  32
ENDBRANCH   9  31
TORSDOF 7
