REMARK  Name = ZINC40386815
REMARK  6 active torsions:
REMARK  status: ('A' for Active; 'I' for Inactive)
REMARK    1  A    between atoms: C_1  and  N_2
REMARK    2  A    between atoms: C_3  and  N_35
REMARK    3  A    between atoms: C_5  and  C_25
REMARK    4  A    between atoms: N_14  and  C_17
REMARK    5  A    between atoms: C_17  and  C_18
REMARK    6  A    between atoms: C_28  and  C_31
REMARK                            x       y       z     vdW  Elec       q    Type
REMARK                         _______ _______ _______ _____ _____    ______ ____
ROOT
ATOM      1  C   UNL     1      -1.048   1.180  -0.101  0.00  0.00    +0.174 C 
ATOM      2  N   UNL     1      -0.468  -0.164  -0.059  0.00  0.00    -0.251 N 
ATOM      3  C   UNL     1      -0.031  -0.850  -1.130  0.00  0.00    +0.126 A 
ATOM      4  C   UNL     1       0.444  -2.075  -0.677  0.00  0.00    +0.086 A 
ATOM      5  C   UNL     1       1.019  -3.220  -1.272  0.00  0.00    +0.089 A 
ATOM      6  N   UNL     1       1.359  -4.233  -0.486  0.00  0.00    -0.214 NA
ATOM      7  C   UNL     1       1.175  -4.199   0.831  0.00  0.00    +0.220 A 
ATOM      8  N   UNL     1       0.647  -3.174   1.467  0.00  0.00    -0.193 NA
ATOM      9  C   UNL     1       0.258  -2.079   0.785  0.00  0.00    +0.188 A 
ATOM     10  N   UNL     1      -0.280  -0.922   1.102  0.00  0.00    -0.149 NA
ATOM     11  N   UNL     1       1.559  -5.302   1.573  0.00  0.00    -0.297 N 
ATOM     12  C   UNL     1       2.161  -6.477   0.924  0.00  0.00    +0.123 C 
ATOM     13  C   UNL     1       3.461  -6.825   1.656  0.00  0.00    +0.103 C 
ATOM     14  N   UNL     1       3.185  -6.981   3.090  0.00  0.00    -0.295 NA
ATOM     15  C   UNL     1       2.708  -5.724   3.681  0.00  0.00    +0.103 C 
ATOM     16  C   UNL     1       1.383  -5.328   3.033  0.00  0.00    +0.123 C 
ENDROOT
BRANCH   5  17
ATOM     17  C   UNL     1       1.237  -3.288  -2.735  0.00  0.00    +0.001 A 
ATOM     18  C   UNL     1       1.798  -2.204  -3.411  0.00  0.00    +0.010 A 
ATOM     19  C   UNL     1       1.998  -2.273  -4.774  0.00  0.00    +0.013 A 
ATOM     20  C   UNL     1       1.643  -3.414  -5.471  0.00  0.00    +0.055 A 
ATOM     21  C   UNL     1       1.085  -4.492  -4.807  0.00  0.00    +0.013 A 
ATOM     22  C   UNL     1       0.886  -4.438  -3.442  0.00  0.00    +0.010 A 
BRANCH  20  23
ATOM     23  C   UNL     1       1.863  -3.483  -6.960  0.00  0.00    +0.417 C 
ATOM     24  F   UNL     1       3.136  -4.002  -7.219  0.00  0.00    -0.166 F 
ATOM     25  F   UNL     1       0.895  -4.312  -7.537  0.00  0.00    -0.166 F 
ATOM     26  F   UNL     1       1.764  -2.199  -7.506  0.00  0.00    -0.166 F 
ENDBRANCH  20  23
ENDBRANCH   5  17
BRANCH   3  27
ATOM     27  N   UNL     1      -0.052  -0.415  -2.442  0.00  0.00    -0.343 N 
ATOM     28  H   UNL     1      -0.145   0.530  -2.638  0.00  0.00    +0.144 HD
ATOM     29  H   UNL     1       0.028  -1.056  -3.166  0.00  0.00    +0.144 HD
ENDBRANCH   3  27
BRANCH  14  30
ATOM     30  C   UNL     1       4.367  -7.483   3.803  0.00  0.00    +0.119 C 
BRANCH  30  31
ATOM     31  C   UNL     1       3.983  -7.863   5.210  0.00  0.00    -0.033 A 
ATOM     32  C   UNL     1       4.051  -6.923   6.221  0.00  0.00    +0.008 A 
ATOM     33  C   UNL     1       3.699  -7.270   7.512  0.00  0.00    +0.038 A 
ATOM     34  C   UNL     1       3.277  -8.559   7.791  0.00  0.00    +0.123 A 
ATOM     35  C   UNL     1       3.209  -9.499   6.777  0.00  0.00    +0.038 A 
ATOM     36  C   UNL     1       3.557  -9.148   5.486  0.00  0.00    +0.008 A 
ATOM     37  F   UNL     1       2.932  -8.899   9.052  0.00  0.00    -0.205 F 
ENDBRANCH  30  31
ENDBRANCH  14  30
TORSDOF 5
