REMARK  Name = ZINC46704520
REMARK  7 active torsions:
REMARK  status: ('A' for Active; 'I' for Inactive)
REMARK    1  A    between atoms: C_1  and  C_2
REMARK    2  A    between atoms: C_6  and  N_8
REMARK    3  A    between atoms: N_11  and  N_12
REMARK    4  A    between atoms: C_13  and  C_15
REMARK    5  A    between atoms: C_15  and  C_17
REMARK    6  A    between atoms: C_15  and  O_18
REMARK    7  A    between atoms: O_18  and  C_19
REMARK                            x       y       z     vdW  Elec       q    Type
REMARK                         _______ _______ _______ _____ _____    ______ ____
ROOT
ATOM      1  N   UNL     1       0.151  -4.173   4.787  0.00  0.00    -0.230 N 
ATOM      2  C   UNL     1       0.030  -4.827   5.960  0.00  0.00    +0.270 C 
ATOM      3  O   UNL     1       0.127  -6.035   5.994  0.00  0.00    -0.270 OA
ATOM      4  H   UNL     1       0.074  -3.207   4.760  0.00  0.00    +0.173 HD
ENDROOT
BRANCH   1   8
ATOM      5  N   UNL     1       0.402  -2.894   2.397  0.00  0.00    -0.268 N 
ATOM      6  C   UNL     1       0.510  -4.237   2.434  0.00  0.00    +0.320 C 
ATOM      7  O   UNL     1       0.716  -4.860   1.410  0.00  0.00    -0.251 OA
ATOM      8  N   UNL     1       0.389  -4.891   3.607  0.00  0.00    -0.218 N 
ATOM      9  H   UNL     1       0.311  -2.392   3.222  0.00  0.00    +0.156 HD
ATOM     10  H   UNL     1       0.466  -5.857   3.634  0.00  0.00    +0.174 HD
BRANCH   5  16
ATOM     11  C   UNL     1      -0.691  -2.811  -2.396  0.00  0.00    +0.044 C 
ATOM     12  C   UNL     1      -0.100  -2.161  -1.171  0.00  0.00    -0.049 A 
ATOM     13  C   UNL     1       0.463  -0.901  -1.261  0.00  0.00    +0.003 A 
ATOM     14  C   UNL     1       1.006  -0.302  -0.140  0.00  0.00    +0.002 A 
ATOM     15  C   UNL     1       0.987  -0.960   1.074  0.00  0.00    +0.023 A 
ATOM     16  C   UNL     1       0.423  -2.225   1.168  0.00  0.00    +0.035 A 
ATOM     17  C   UNL     1      -0.127  -2.822   0.041  0.00  0.00    +0.026 A 
ENDBRANCH   5  16
ENDBRANCH   1   8
BRANCH   2  18
ATOM     18  C   UNL     1      -0.225  -4.055   7.229  0.00  0.00    +0.257 C 
ATOM     19  C   UNL     1       0.981  -3.165   7.536  0.00  0.00    +0.062 C 
BRANCH  18  20
ATOM     20  O   UNL     1      -0.429  -4.969   8.309  0.00  0.00    -0.480 OA
BRANCH  20  21
ATOM     21  C   UNL     1      -1.158  -4.522   9.365  0.00  0.00    +0.123 A 
ATOM     22  C   UNL     1      -1.571  -3.199   9.415  0.00  0.00    +0.046 A 
ATOM     23  C   UNL     1      -2.312  -2.747  10.489  0.00  0.00    +0.005 A 
ATOM     24  C   UNL     1      -2.642  -3.612  11.516  0.00  0.00    +0.015 A 
ATOM     25  C   UNL     1      -2.231  -4.932  11.470  0.00  0.00    +0.021 A 
ATOM     26  C   UNL     1      -1.495  -5.390  10.393  0.00  0.00    +0.061 A 
ATOM     27 BR   UNL     1      -2.683  -6.112  12.877  0.00  0.00    -0.050 Br
ENDBRANCH  20  21
ENDBRANCH  18  20
ENDBRANCH   2  18
TORSDOF 5
