REMARK  Name = ZINC39639424
REMARK  11 active torsions:
REMARK  status: ('A' for Active; 'I' for Inactive)
REMARK    1  A    between atoms: C_1  and  C_2
REMARK    2  A    between atoms: C_5  and  C_8
REMARK    3  A    between atoms: C_8  and  C_10
REMARK    4  A    between atoms: C_8  and  N_11
REMARK    5  A    between atoms: C_12  and  C_14
REMARK    6  A    between atoms: C_25  and  C_27
REMARK    7  A    between atoms: C_27  and  C_29
REMARK    8  A    between atoms: C_27  and  O_32
REMARK    9  A    between atoms: C_29  and  C_30
REMARK   10  A    between atoms: C_29  and  C_31
REMARK   11  A    between atoms: O_32  and  C_33
REMARK                            x       y       z     vdW  Elec       q    Type
REMARK                         _______ _______ _______ _____ _____    ______ ____
ROOT
ATOM      1  C   UNL     1       2.465  -6.567   1.959  0.00  0.00    +0.100 C 
ATOM      2  C   UNL     1       1.730  -6.543   3.318  0.00  0.00    +0.121 C 
ATOM      3  N   UNL     1       1.242  -7.929   3.504  0.00  0.00    -0.297 N 
ATOM      4  C   UNL     1       2.346  -8.780   3.000  0.00  0.00    +0.115 C 
ATOM      5  C   UNL     1       2.871  -8.036   1.756  0.00  0.00    -0.004 C 
ATOM      6  C   UNL     1       4.390  -8.158   1.669  0.00  0.00    -0.010 C 
ATOM      7  C   UNL     1       4.766  -9.619   1.408  0.00  0.00    -0.082 C 
ATOM      8  N   UNL     1       4.147 -10.070   0.156  0.00  0.00    +0.379 N 
ATOM      9  C   UNL     1       2.685 -10.038   0.281  0.00  0.00    -0.082 C 
ATOM     10  C   UNL     1       2.220  -8.595   0.494  0.00  0.00    -0.010 C 
ATOM     11  C   UNL     1       0.061  -8.327   4.016  0.00  0.00    +0.257 C 
ATOM     12  O   UNL     1      -0.195  -9.510   4.105  0.00  0.00    -0.272 OA
ATOM     13  H   UNL     1       4.433  -9.462  -0.597  0.00  0.00    -0.086 HD
ATOM     14  H   UNL     1       4.446 -11.013  -0.044  0.00  0.00    -0.086 HD
ENDROOT
BRANCH   1  16
ATOM     15  N   UNL     1       2.042  -5.497  -0.231  0.00  0.00    -0.308 N 
ATOM     16  C   UNL     1       1.542  -6.120   0.855  0.00  0.00    +0.219 C 
ATOM     17  O   UNL     1       0.349  -6.321   0.943  0.00  0.00    -0.275 OA
ATOM     18  H   UNL     1       2.996  -5.336  -0.301  0.00  0.00    +0.149 HD
BRANCH  15  19
ATOM     19  C   UNL     1       1.144  -5.062  -1.304  0.00  0.00    +0.100 C 
ATOM     20  C   UNL     1       0.567  -3.687  -0.962  0.00  0.00    +0.033 C 
BRANCH  19  25
ATOM     21  C   UNL     1       4.089  -4.731  -6.265  0.00  0.00    +0.044 C 
ATOM     22  C   UNL     1       3.321  -4.817  -4.971  0.00  0.00    -0.050 A 
ATOM     23  C   UNL     1       2.034  -5.322  -4.964  0.00  0.00    +0.004 A 
ATOM     24  C   UNL     1       1.330  -5.402  -3.777  0.00  0.00    +0.006 A 
ATOM     25  C   UNL     1       1.913  -4.977  -2.598  0.00  0.00    -0.027 A 
ATOM     26  C   UNL     1       3.200  -4.473  -2.605  0.00  0.00    +0.006 A 
ATOM     27  C   UNL     1       3.906  -4.397  -3.791  0.00  0.00    +0.004 A 
ENDBRANCH  19  25
ENDBRANCH  15  19
ENDBRANCH   1  16
BRANCH  11  28
ATOM     28  C   UNL     1      -0.943  -7.303   4.480  0.00  0.00    +0.261 C 
BRANCH  28  29
ATOM     29  C   UNL     1      -0.373  -6.534   5.673  0.00  0.00    +0.033 C 
ATOM     30  C   UNL     1      -1.392  -5.494   6.144  0.00  0.00    +0.011 C 
ATOM     31  C   UNL     1      -0.076  -7.510   6.814  0.00  0.00    +0.011 C 
ENDBRANCH  28  29
BRANCH  28  32
ATOM     32  O   UNL     1      -2.150  -7.962   4.870  0.00  0.00    -0.479 OA
BRANCH  32  33
ATOM     33  C   UNL     1      -3.315  -7.296   4.649  0.00  0.00    +0.122 A 
ATOM     34  C   UNL     1      -3.303  -6.075   3.991  0.00  0.00    +0.045 A 
ATOM     35  C   UNL     1      -4.489  -5.401   3.768  0.00  0.00    +0.004 A 
ATOM     36  C   UNL     1      -5.685  -5.943   4.200  0.00  0.00    +0.000 A 
ATOM     37  C   UNL     1      -5.699  -7.160   4.856  0.00  0.00    +0.004 A 
ATOM     38  C   UNL     1      -4.517  -7.841   5.076  0.00  0.00    +0.045 A 
ENDBRANCH  32  33
ENDBRANCH  28  32
ENDBRANCH  11  28
TORSDOF 7
