REMARK  Name = ZINC04063778
REMARK  6 active torsions:
REMARK  status: ('A' for Active; 'I' for Inactive)
REMARK    1  A    between atoms: C_1  and  C_2
REMARK    2  A    between atoms: N_4  and  C_5
REMARK    3  A    between atoms: C_16  and  S_21
REMARK    4  A    between atoms: S_21  and  C_22
REMARK    5  A    between atoms: C_27  and  N_28
REMARK    6  A    between atoms: C_31  and  C_34
REMARK                            x       y       z     vdW  Elec       q    Type
REMARK                         _______ _______ _______ _____ _____    ______ ____
ROOT
ATOM      1  C   UNL     1       1.173   2.087  -0.003  0.00  0.00    +0.034 A 
ATOM      2  C   UNL     1      -0.009   1.378  -0.173  0.00  0.00    +0.025 A 
ATOM      3  C   UNL     1       0.008  -0.001  -0.186  0.00  0.00    +0.025 A 
ATOM      4  C   UNL     1       1.204  -0.691  -0.024  0.00  0.00    +0.031 A 
ATOM      5  C   UNL     1       2.389   0.026   0.155  0.00  0.00    -0.020 A 
ATOM      6  C   UNL     1       2.371   1.404   0.159  0.00  0.00    +0.029 A 
ATOM      7  C   UNL     1       3.648  -0.740   0.350  0.00  0.00    +0.045 C 
ATOM      8  C   UNL     1       3.545  -2.045  -0.486  0.00  0.00    +0.024 C 
ATOM      9  C   UNL     1       4.966  -2.599  -0.359  0.00  0.00    +0.022 C 
ATOM     10  C   UNL     1       5.846  -1.329  -0.526  0.00  0.00    +0.070 C 
ATOM     11  C   UNL     1       4.956  -0.124  -0.123  0.00  0.00    +0.101 C 
ATOM     12 CL   UNL     1       5.729   0.806   1.214  0.00  0.00    -0.120 Cl
ATOM     13  C   UNL     1       2.434  -2.869   0.141  0.00  0.00    +0.107 C 
ATOM     14  N   UNL     1       1.192  -2.093  -0.061  0.00  0.00    -0.336 N 
ATOM     15  H   UNL     1       0.357  -2.560  -0.221  0.00  0.00    +0.147 HD
ENDROOT
BRANCH  13  16
ATOM     16  C   UNL     1       2.327  -4.207  -0.544  0.00  0.00    +0.008 A 
ATOM     17  C   UNL     1       1.468  -4.370  -1.615  0.00  0.00    +0.008 A 
ATOM     18  C   UNL     1       1.374  -5.596  -2.246  0.00  0.00    +0.000 A 
ATOM     19  C   UNL     1       2.130  -6.664  -1.801  0.00  0.00    +0.003 A 
ATOM     20  C   UNL     1       2.985  -6.506  -0.727  0.00  0.00    +0.039 A 
ATOM     21  C   UNL     1       3.084  -5.277  -0.097  0.00  0.00    +0.128 A 
ATOM     22  F   UNL     1       3.920  -5.120   0.953  0.00  0.00    -0.205 F 
ENDBRANCH  13  16
BRANCH   1  26
ATOM     23  C   UNL     1       0.022   5.649   0.406  0.00  0.00    +0.109 C 
ATOM     24  C   UNL     1       0.094   4.147   0.505  0.00  0.00    +0.214 C 
ATOM     25  O   UNL     1      -0.806   3.532   1.037  0.00  0.00    -0.276 OA
ATOM     26  N   UNL     1       1.157   3.488   0.004  0.00  0.00    -0.286 N 
ATOM     27  H   UNL     1       1.911   3.984  -0.352  0.00  0.00    +0.155 HD
ENDBRANCH   1  26
BRANCH  10  28
ATOM     28  S   UNL     1       7.293  -1.426   0.563  0.00  0.00    -0.118 S 
BRANCH  28  29
ATOM     29  C   UNL     1       8.217   0.024   0.176  0.00  0.00    +0.038 A 
ATOM     30  C   UNL     1       7.750   0.911  -0.787  0.00  0.00    +0.017 A 
ATOM     31  C   UNL     1       8.476   2.046  -1.088  0.00  0.00    +0.001 A 
ATOM     32  C   UNL     1       9.666   2.302  -0.432  0.00  0.00    +0.002 A 
ATOM     33  C   UNL     1      10.134   1.422   0.527  0.00  0.00    +0.034 A 
ATOM     34  C   UNL     1       9.410   0.287   0.837  0.00  0.00    +0.140 A 
BRANCH  34  35
ATOM     35  N   UNL     1       9.908  -0.651   1.868  0.00  0.00    +0.058 N 
ATOM     36  O   UNL     1      10.954  -0.419   2.447  0.00  0.00    -0.126 OA
ATOM     37  O   UNL     1       9.272  -1.654   2.138  0.00  0.00    -0.126 OA
ENDBRANCH  34  35
ENDBRANCH  28  29
ENDBRANCH  10  28
TORSDOF 5
