REMARK  Name = ZINC21228568
REMARK  10 active torsions:
REMARK  status: ('A' for Active; 'I' for Inactive)
REMARK    1  A    between atoms: C_1  and  C_2
REMARK    2  A    between atoms: C_11  and  N_32
REMARK    3  A    between atoms: C_13  and  S_15
REMARK    4  A    between atoms: S_15  and  C_16
REMARK    5  A    between atoms: C_16  and  C_17
REMARK    6  A    between atoms: N_19  and  C_20
REMARK    7  A    between atoms: N_19  and  C_24
REMARK    8  A    between atoms: C_20  and  C_21
REMARK    9  A    between atoms: C_21  and  C_22
REMARK   10  A    between atoms: C_21  and  C_23
REMARK                            x       y       z     vdW  Elec       q    Type
REMARK                         _______ _______ _______ _____ _____    ______ ____
ROOT
ATOM      1  C   UNL     1      -4.411   4.642   2.469  0.00  0.00    +0.008 C 
ATOM      2  C   UNL     1      -3.042   3.983   2.292  0.00  0.00    -0.009 C 
ATOM      3  C   UNL     1      -2.228   4.758   1.253  0.00  0.00    +0.008 C 
ATOM      4  C   UNL     1      -0.781   4.264   1.252  0.00  0.00    +0.037 C 
ATOM      5  C   UNL     1      -0.778   2.746   1.092  0.00  0.00    -0.025 A 
ATOM      6  C   UNL     1      -1.891   2.026   1.338  0.00  0.00    -0.004 A 
ATOM      7  S   UNL     1      -1.431   0.343   1.028  0.00  0.00    -0.073 S 
ATOM      8  C   UNL     1       0.260   0.609   0.561  0.00  0.00    +0.115 A 
ATOM      9  C   UNL     1       0.410   2.007   0.660  0.00  0.00    +0.051 A 
ATOM     10  C   UNL     1       1.700   2.510   0.333  0.00  0.00    +0.129 A 
ATOM     11  N   UNL     1       2.650   1.665  -0.033  0.00  0.00    -0.207 NA
ATOM     12  C   UNL     1       2.440   0.356  -0.106  0.00  0.00    +0.191 A 
ATOM     13  N   UNL     1       1.257  -0.169   0.188  0.00  0.00    -0.214 NA
ATOM     14  C   UNL     1      -3.226   2.541   1.784  0.00  0.00    +0.046 C 
ENDROOT
BRANCH  10  15
ATOM     15  N   UNL     1       1.958   3.867   0.397  0.00  0.00    -0.343 N 
ATOM     16  H   UNL     1       2.958   4.249   0.142  0.00  0.00    +0.144 HD
ATOM     17  H   UNL     1       1.164   4.564   0.702  0.00  0.00    +0.144 HD
ENDBRANCH  10  15
BRANCH  12  18
ATOM     18  S   UNL     1       3.757  -0.705  -0.601  0.00  0.00    -0.077 S 
BRANCH  18  19
ATOM     19  C   UNL     1       5.065   0.519  -0.860  0.00  0.00    +0.173 C 
BRANCH  19  20
ATOM     20  C   UNL     1       6.326  -0.179  -1.302  0.00  0.00    +0.226 C 
ATOM     21  O   UNL     1       6.338  -1.385  -1.429  0.00  0.00    -0.275 OA
ATOM     22  N   UNL     1       7.439   0.537  -1.556  0.00  0.00    -0.296 N 
BRANCH  22  23
ATOM     23  C   UNL     1       8.664  -0.141  -1.985  0.00  0.00    +0.098 C 
ATOM     24  C   UNL     1       9.020  -1.242  -0.972  0.00  0.00    +0.046 C 
ATOM     25  C   UNL     1      10.124  -2.139  -1.599  0.00  0.00    +0.168 C 
ATOM     26  S   UNL     1       9.514  -2.260  -3.333  0.00  0.00    -0.029 S 
ATOM     27  O   UNL     1       8.698  -3.417  -3.457  0.00  0.00    -0.174 OA
ATOM     28  O   UNL     1      10.607  -2.076  -4.222  0.00  0.00    -0.174 OA
ATOM     29  C   UNL     1       8.443  -0.766  -3.384  0.00  0.00    +0.188 C 
ENDBRANCH  22  23
BRANCH  22  30
ATOM     30  C   UNL     1       7.424   1.994  -1.402  0.00  0.00    +0.111 C 
BRANCH  30  31
ATOM     31  C   UNL     1       7.724   2.357   0.054  0.00  0.00    +0.000 C 
ATOM     32  C   UNL     1       9.163   1.963   0.391  0.00  0.00    +0.009 C 
ATOM     33  C   UNL     1       7.548   3.864   0.251  0.00  0.00    +0.009 C 
ENDBRANCH  30  31
ENDBRANCH  22  30
ENDBRANCH  19  20
ENDBRANCH  18  19
ENDBRANCH  12  18
TORSDOF 7
