REMARK  Name = ZINC00714618
REMARK  8 active torsions:
REMARK  status: ('A' for Active; 'I' for Inactive)
REMARK    1  A    between atoms: C_1  and  C_2
REMARK    2  A    between atoms: C_2  and  C_35
REMARK    3  A    between atoms: C_6  and  C_23
REMARK    4  A    between atoms: C_8  and  C_19
REMARK    5  A    between atoms: C_9  and  N_18
REMARK    6  A    between atoms: N_10  and  C_11
REMARK    7  A    between atoms: C_19  and  O_21
REMARK    8  A    between atoms: O_21  and  C_22
REMARK                            x       y       z     vdW  Elec       q    Type
REMARK                         _______ _______ _______ _____ _____    ______ ____
ROOT
ATOM      1  C   UNL     1       0.009   0.054   0.213  0.00  0.00    +0.011 C 
ATOM      2  C   UNL     1      -0.039   1.583   0.171  0.00  0.00    -0.023 C 
ATOM      3  C   UNL     1      -0.718   2.041  -1.121  0.00  0.00    +0.058 C 
ATOM      4  C   UNL     1      -0.808   3.547  -1.139  0.00  0.00    +0.025 C 
ATOM      5  C   UNL     1      -0.933   4.250   0.006  0.00  0.00    +0.025 C 
ATOM      6  C   UNL     1      -1.043   5.753  -0.014  0.00  0.00    +0.094 C 
ATOM      7  C   UNL     1      -0.562   6.314  -1.320  0.00  0.00    +0.084 C 
ATOM      8  C   UNL     1      -0.442   5.523  -2.422  0.00  0.00    +0.103 C 
ATOM      9  N   UNL     1      -0.758   4.188  -2.350  0.00  0.00    -0.258 N 
ATOM     10  C   UNL     1      -0.968   3.601   1.254  0.00  0.00    +0.162 C 
ATOM     11  O   UNL     1      -1.093   4.262   2.266  0.00  0.00    -0.292 OA
ATOM     12  C   UNL     1      -0.849   2.105   1.362  0.00  0.00    +0.086 C 
ATOM     13  C   UNL     1       1.384   2.143   0.231  0.00  0.00    +0.011 C 
ENDROOT
BRANCH   6  14
ATOM     14  C   UNL     1      -2.484   6.146   0.191  0.00  0.00    -0.031 A 
ATOM     15  C   UNL     1      -3.448   5.727  -0.707  0.00  0.00    +0.008 A 
ATOM     16  C   UNL     1      -4.771   6.080  -0.520  0.00  0.00    +0.050 A 
ATOM     17  C   UNL     1      -5.133   6.865   0.562  0.00  0.00    +0.166 A 
ATOM     18  C   UNL     1      -4.161   7.292   1.464  0.00  0.00    +0.167 A 
ATOM     19  C   UNL     1      -2.838   6.929   1.274  0.00  0.00    +0.054 A 
ATOM     20  O   UNL     1      -4.764   8.043   2.431  0.00  0.00    -0.453 OA
ATOM     21  C   UNL     1      -6.046   8.412   1.889  0.00  0.00    +0.466 C 
ATOM     22  O   UNL     1      -6.344   7.349   0.964  0.00  0.00    -0.453 OA
ENDBRANCH   6  14
BRANCH   9  23
ATOM     23  C   UNL     1      -1.030   3.474  -3.525  0.00  0.00    +0.075 A 
ATOM     24  C   UNL     1      -2.329   3.400  -4.008  0.00  0.00    +0.027 A 
ATOM     25  C   UNL     1      -2.595   2.696  -5.167  0.00  0.00    +0.002 A 
ATOM     26  C   UNL     1      -1.569   2.066  -5.846  0.00  0.00    +0.003 A 
ATOM     27  C   UNL     1      -0.273   2.137  -5.369  0.00  0.00    +0.040 A 
ATOM     28  C   UNL     1       0.001   2.844  -4.212  0.00  0.00    +0.145 A 
ATOM     29  F   UNL     1       1.268   2.918  -3.748  0.00  0.00    -0.204 F 
ENDBRANCH   9  23
BRANCH   8  30
ATOM     30  N   UNL     1      -0.006   6.060  -3.606  0.00  0.00    -0.346 N 
ATOM     31  H   UNL     1       0.304   6.979  -3.636  0.00  0.00    +0.143 HD
ATOM     32  H   UNL     1      -0.007   5.522  -4.412  0.00  0.00    +0.143 HD
ENDBRANCH   8  30
BRANCH   7  33
ATOM     33  C   UNL     1      -0.229   7.673  -1.407  0.00  0.00    +0.339 C 
ATOM     34  O   UNL     1       0.838   8.068  -0.973  0.00  0.00    -0.245 OA
BRANCH  33  35
ATOM     35  O   UNL     1      -1.093   8.545  -1.972  0.00  0.00    -0.465 OA
ATOM     36  C   UNL     1      -0.689   9.915  -2.026  0.00  0.00    +0.280 C 
ENDBRANCH  33  35
ENDBRANCH   7  33
TORSDOF 5
