REMARK  Name = ZINC63072167
REMARK  11 active torsions:
REMARK  status: ('A' for Active; 'I' for Inactive)
REMARK    1  A    between atoms: C_1  and  C_2
REMARK    2  A    between atoms: C_2  and  O_3
REMARK    3  A    between atoms: O_3  and  C_4
REMARK    4  A    between atoms: C_9  and  N_10
REMARK    5  A    between atoms: C_11  and  C_13
REMARK    6  A    between atoms: C_22  and  N_24
REMARK    7  A    between atoms: N_24  and  C_25
REMARK    8  A    between atoms: C_25  and  C_26
REMARK    9  A    between atoms: C_35  and  O_37
REMARK   10  A    between atoms: O_37  and  C_38
REMARK   11  A    between atoms: C_38  and  C_39
REMARK                            x       y       z     vdW  Elec       q    Type
REMARK                         _______ _______ _______ _____ _____    ______ ____
ROOT
ATOM      1  C   UNL     1       3.179  -1.109  -5.024  0.00  0.00    +0.042 C 
ATOM      2  C   UNL     1       3.678  -1.577  -6.143  0.00  0.00    -0.043 C 
ATOM      3  C   UNL     1       3.837  -3.063  -6.461  0.00  0.00    +0.051 C 
ATOM      4  C   UNL     1       4.658  -3.166  -7.752  0.00  0.00    +0.115 C 
ATOM      5  N   UNL     1       4.033  -2.380  -8.819  0.00  0.00    -0.266 N 
ATOM      6  C   UNL     1       3.417  -1.077  -8.529  0.00  0.00    +0.129 C 
ATOM      7  C   UNL     1       4.037  -0.554  -7.228  0.00  0.00    +0.092 C 
ATOM      8  S   UNL     1       3.117   0.926  -6.643  0.00  0.00    -0.128 S 
ATOM      9  C   UNL     1       2.956   0.385  -4.887  0.00  0.00    +0.148 C 
ATOM     10  C   UNL     1       4.021  -2.858 -10.080  0.00  0.00    +0.403 C 
ATOM     11  O   UNL     1       3.504  -2.211 -10.969  0.00  0.00    -0.226 OA
ENDROOT
BRANCH   1  13
ATOM     12  N   UNL     1       1.684  -2.718  -3.957  0.00  0.00    -0.279 N 
ATOM     13  C   UNL     1       2.836  -2.019  -3.921  0.00  0.00    +0.247 C 
ATOM     14  O   UNL     1       3.592  -2.142  -2.976  0.00  0.00    -0.270 OA
ATOM     15  H   UNL     1       1.115  -2.675  -4.741  0.00  0.00    +0.155 HD
BRANCH  12  21
ATOM     16  C   UNL     1      -0.040  -3.733  -2.595  0.00  0.00    +0.142 A 
ATOM     17  C   UNL     1      -0.405  -4.518  -1.513  0.00  0.00    +0.047 A 
ATOM     18  C   UNL     1       0.566  -5.069  -0.698  0.00  0.00    +0.004 A 
ATOM     19  C   UNL     1       1.905  -4.839  -0.959  0.00  0.00    +0.002 A 
ATOM     20  C   UNL     1       2.278  -4.058  -2.037  0.00  0.00    +0.027 A 
ATOM     21  C   UNL     1       1.309  -3.506  -2.862  0.00  0.00    +0.076 A 
BRANCH  16  22
ATOM     22  O   UNL     1      -0.994  -3.191  -3.397  0.00  0.00    -0.490 OA
BRANCH  22  24
ATOM     23  C   UNL     1      -3.276  -2.670  -4.000  0.00  0.00    +0.048 C 
ATOM     24  C   UNL     1      -2.355  -3.368  -2.997  0.00  0.00    +0.226 C 
ENDBRANCH  22  24
ENDBRANCH  16  22
ENDBRANCH  12  21
ENDBRANCH   1  13
BRANCH   9  25
ATOM     25  N   UNL     1       1.614   0.674  -4.364  0.00  0.00    -0.297 NA
ATOM     26  H   UNL     1       0.992   0.965  -5.104  0.00  0.00    +0.124 HD
BRANCH  25  27
ATOM     27  C   UNL     1       1.671   1.683  -3.297  0.00  0.00    +0.115 C 
BRANCH  27  28
ATOM     28  C   UNL     1       0.298   1.860  -2.700  0.00  0.00    -0.028 C 
ATOM     29  C   UNL     1      -0.199   1.239  -1.607  0.00  0.00    +0.000 A 
ATOM     30  C   UNL     1       0.366   0.248  -0.682  0.00  0.00    +0.010 A 
ATOM     31  C   UNL     1      -0.393  -0.199   0.344  0.00  0.00    +0.001 A 
ATOM     32  C   UNL     1      -1.702   0.258   0.546  0.00  0.00    +0.002 A 
ATOM     33  C   UNL     1      -2.291   1.167  -0.260  0.00  0.00    +0.026 A 
ATOM     34  C   UNL     1      -1.584   1.706  -1.371  0.00  0.00    +0.043 A 
ATOM     35  N   UNL     1      -1.929   2.582  -2.283  0.00  0.00    -0.380 N 
ATOM     36  C   UNL     1      -0.799   2.774  -3.198  0.00  0.00    +0.146 C 
ATOM     37  H   UNL     1      -2.787   3.030  -2.341  0.00  0.00    +0.160 HD
ENDBRANCH  27  28
ENDBRANCH  25  27
ENDBRANCH   9  25
BRANCH  10  38
ATOM     38  O   UNL     1       4.582  -4.051 -10.353  0.00  0.00    -0.451 OA
BRANCH  38  39
ATOM     39  C   UNL     1       4.533  -4.495 -11.710  0.00  0.00    +0.230 C 
ATOM     40  C   UNL     1       5.216  -5.859 -11.825  0.00  0.00    +0.048 C 
ENDBRANCH  38  39
ENDBRANCH  10  38
TORSDOF 9
