REMARK  Name = ZINC04984416
REMARK  7 active torsions:
REMARK  status: ('A' for Active; 'I' for Inactive)
REMARK    1  A    between atoms: C_6  and  O_7
REMARK    2  A    between atoms: O_7  and  C_8
REMARK    3  A    between atoms: C_10  and  O_23
REMARK    4  A    between atoms: C_12  and  O_22
REMARK    5  A    between atoms: C_14  and  O_21
REMARK    6  A    between atoms: C_16  and  C_19
REMARK    7  A    between atoms: C_19  and  O_20
REMARK                            x       y       z     vdW  Elec       q    Type
REMARK                         _______ _______ _______ _____ _____    ______ ____
ROOT
ATOM      1  C   UNL     1       0.628  -0.573  -1.150  0.00  0.00    +0.339 C 
ATOM      2  C   UNL     1       2.091  -0.124  -1.207  0.00  0.00    +0.214 C 
ATOM      3  C   UNL     1       2.147   1.406  -1.233  0.00  0.00    +0.180 C 
ATOM      4  C   UNL     1       1.419   1.953  -0.001  0.00  0.00    +0.177 C 
ATOM      5  C   UNL     1      -0.017   1.425   0.010  0.00  0.00    +0.179 C 
ATOM      6  O   UNL     1       0.002  -0.004   0.002  0.00  0.00    -0.331 OA
ENDROOT
BRANCH   4   7
ATOM      7  O   UNL     1       2.095   1.524   1.183  0.00  0.00    -0.386 OA
ATOM      8  H   UNL     1       3.013   1.824   1.242  0.00  0.00    +0.210 HD
ENDBRANCH   4   7
BRANCH   3   9
ATOM      9  O   UNL     1       3.510   1.835  -1.212  0.00  0.00    -0.386 OA
ATOM     10  H   UNL     1       4.033   1.518  -1.962  0.00  0.00    +0.210 HD
ENDBRANCH   3   9
BRANCH   2  11
ATOM     11  O   UNL     1       2.785  -0.610  -0.056  0.00  0.00    -0.383 OA
ATOM     12  H   UNL     1       2.785  -1.573   0.026  0.00  0.00    +0.210 HD
ENDBRANCH   2  11
BRANCH   1  13
ATOM     13  O   UNL     1       0.570  -1.998  -1.069  0.00  0.00    -0.461 OA
BRANCH  13  19
ATOM     14  C   UNL     1      -1.772  -1.784  -1.434  0.00  0.00    +0.047 A 
ATOM     15  C   UNL     1      -3.012  -2.373  -1.591  0.00  0.00    +0.019 A 
ATOM     16  C   UNL     1      -3.139  -3.749  -1.524  0.00  0.00    +0.018 A 
ATOM     17  C   UNL     1      -2.024  -4.539  -1.305  0.00  0.00    +0.019 A 
ATOM     18  C   UNL     1      -0.782  -3.954  -1.152  0.00  0.00    +0.047 A 
ATOM     19  C   UNL     1      -0.652  -2.575  -1.219  0.00  0.00    +0.124 A 
ATOM     20 BR   UNL     1      -4.838  -4.551  -1.732  0.00  0.00    -0.050 Br
ENDBRANCH  13  19
ENDBRANCH   1  13
BRANCH   5  21
ATOM     21  C   UNL     1      -0.733   1.919   1.269  0.00  0.00    +0.190 C 
BRANCH  21  22
ATOM     22  O   UNL     1      -2.105   1.522   1.223  0.00  0.00    -0.392 OA
ATOM     23  H   UNL     1      -2.621   1.802   1.991  0.00  0.00    +0.210 HD
ENDBRANCH  21  22
ENDBRANCH   5  21
TORSDOF 7
