REMARK  Name = ZINC34978245
REMARK  7 active torsions:
REMARK  status: ('A' for Active; 'I' for Inactive)
REMARK    1  A    between atoms: C_1  and  C_2
REMARK    2  A    between atoms: C_9  and  C_11
REMARK    3  A    between atoms: C_17  and  C_19
REMARK    4  A    between atoms: C_19  and  C_21
REMARK    5  A    between atoms: C_19  and  N_28
REMARK    6  A    between atoms: C_21  and  C_22
REMARK    7  A    between atoms: N_31  and  C_32
REMARK                            x       y       z     vdW  Elec       q    Type
REMARK                         _______ _______ _______ _____ _____    ______ ____
ROOT
ATOM      1  C   UNL     1      -4.721  -0.186  -0.208  0.00  0.00    +0.165 C 
ENDROOT
BRANCH   1  11
ATOM      2  C   UNL     1      -1.139   1.092   0.296  0.00  0.00    +0.029 C 
ATOM      3  C   UNL     1      -0.778  -0.380   0.085  0.00  0.00    +0.090 C 
ATOM      4  C   UNL     1      -2.049  -1.183  -0.216  0.00  0.00    +0.130 C 
ATOM      5  N   UNL     1      -2.856  -1.262   1.010  0.00  0.00    -0.297 N 
ATOM      6  C   UNL     1      -2.240  -1.798   2.231  0.00  0.00    +0.127 C 
ATOM      7  C   UNL     1      -0.968  -0.995   2.532  0.00  0.00    +0.127 C 
ATOM      8  N   UNL     1      -0.157  -0.915   1.305  0.00  0.00    -0.295 N 
ATOM      9  C   UNL     1       1.126  -1.328   1.298  0.00  0.00    +0.219 C 
ATOM     10  O   UNL     1       1.807  -1.173   0.306  0.00  0.00    -0.275 OA
ATOM     11  C   UNL     1      -4.139  -0.848   1.014  0.00  0.00    +0.236 C 
ATOM     12  O   UNL     1      -4.825  -1.009   2.001  0.00  0.00    -0.274 OA
BRANCH   9  13
ATOM     13  C   UNL     1       1.714  -1.983   2.521  0.00  0.00    +0.075 C 
ATOM     14  C   UNL     1       1.793  -0.961   3.657  0.00  0.00    +0.013 C 
ATOM     15  C   UNL     1       2.390  -1.626   4.900  0.00  0.00    +0.001 C 
ATOM     16  C   UNL     1       3.794  -2.140   4.578  0.00  0.00    +0.000 C 
ATOM     17  C   UNL     1       3.715  -3.162   3.441  0.00  0.00    +0.001 C 
ATOM     18  C   UNL     1       3.118  -2.497   2.199  0.00  0.00    +0.013 C 
ENDBRANCH   9  13
ENDBRANCH   1  11
BRANCH   1  19
ATOM     19  N   UNL     1      -6.037   0.369   0.117  0.00  0.00    -0.288 N 
ATOM     20  C   UNL     1      -6.528   1.402  -0.596  0.00  0.00    +0.304 C 
ATOM     21  O   UNL     1      -5.879   1.873  -1.510  0.00  0.00    -0.252 OA
ATOM     22  N   UNL     1      -7.739   1.913  -0.297  0.00  0.00    -0.269 N 
ATOM     23  H   UNL     1      -6.555  -0.007   0.846  0.00  0.00    +0.151 HD
ATOM     24  H   UNL     1      -8.228   1.581   0.473  0.00  0.00    +0.156 HD
BRANCH  22  25
ATOM     25  C   UNL     1      -8.291   2.920  -1.096  0.00  0.00    +0.035 A 
ATOM     26  C   UNL     1      -9.662   2.967  -1.308  0.00  0.00    +0.023 A 
ATOM     27  C   UNL     1     -10.204   3.963  -2.097  0.00  0.00    +0.002 A 
ATOM     28  C   UNL     1      -9.382   4.913  -2.676  0.00  0.00    +0.000 A 
ATOM     29  C   UNL     1      -8.015   4.868  -2.467  0.00  0.00    +0.002 A 
ATOM     30  C   UNL     1      -7.468   3.878  -1.675  0.00  0.00    +0.023 A 
ENDBRANCH  22  25
ENDBRANCH   1  19
BRANCH   1  31
ATOM     31  C   UNL     1      -4.865  -1.218  -1.328  0.00  0.00    +0.067 C 
BRANCH  31  32
ATOM     32  C   UNL     1      -5.356  -0.537  -2.579  0.00  0.00    -0.045 A 
ATOM     33  C   UNL     1      -6.713  -0.422  -2.818  0.00  0.00    +0.004 A 
ATOM     34  C   UNL     1      -7.162   0.203  -3.966  0.00  0.00    +0.000 A 
ATOM     35  C   UNL     1      -6.255   0.714  -4.875  0.00  0.00    +0.000 A 
ATOM     36  C   UNL     1      -4.898   0.600  -4.637  0.00  0.00    +0.000 A 
ATOM     37  C   UNL     1      -4.449  -0.022  -3.486  0.00  0.00    +0.004 A 
ENDBRANCH  31  32
ENDBRANCH   1  31
TORSDOF 6
