REMARK  Name = ZINC39636817
REMARK  7 active torsions:
REMARK  status: ('A' for Active; 'I' for Inactive)
REMARK    1  A    between atoms: C_3  and  C_11
REMARK    2  A    between atoms: C_5  and  C_7
REMARK    3  A    between atoms: C_11  and  N_12
REMARK    4  A    between atoms: C_13  and  C_15
REMARK    5  A    between atoms: C_26  and  C_28
REMARK    6  A    between atoms: C_28  and  O_29
REMARK    7  A    between atoms: O_29  and  C_30
REMARK                            x       y       z     vdW  Elec       q    Type
REMARK                         _______ _______ _______ _____ _____    ______ ____
ROOT
ATOM      1  C   UNL     1       5.692   3.353   3.012  0.00  0.00    +0.100 C 
ATOM      2  C   UNL     1       4.725   4.332   3.714  0.00  0.00    +0.121 C 
ATOM      3  N   UNL     1       5.599   5.175   4.565  0.00  0.00    -0.297 N 
ATOM      4  C   UNL     1       6.805   5.410   3.735  0.00  0.00    +0.115 C 
ATOM      5  C   UNL     1       7.055   4.064   3.027  0.00  0.00    -0.004 C 
ATOM      6  C   UNL     1       7.543   4.302   1.601  0.00  0.00    -0.010 C 
ATOM      7  C   UNL     1       8.926   4.957   1.642  0.00  0.00    -0.082 C 
ATOM      8  N   UNL     1       9.862   4.084   2.361  0.00  0.00    +0.379 N 
ATOM      9  C   UNL     1       9.435   3.936   3.758  0.00  0.00    -0.082 C 
ATOM     10  C   UNL     1       8.073   3.238   3.807  0.00  0.00    -0.010 C 
ATOM     11  C   UNL     1       5.353   5.625   5.811  0.00  0.00    +0.253 C 
ATOM     12  O   UNL     1       6.175   6.311   6.381  0.00  0.00    -0.272 OA
ATOM     13  H   UNL     1       9.882   3.177   1.919  0.00  0.00    -0.086 HD
ATOM     14  H   UNL     1      10.786   4.489   2.334  0.00  0.00    -0.086 HD
ENDROOT
BRANCH   1  16
ATOM     15  N   UNL     1       5.534   1.930   0.994  0.00  0.00    -0.311 N 
ATOM     16  C   UNL     1       5.246   3.102   1.594  0.00  0.00    +0.218 C 
ATOM     17  O   UNL     1       4.628   3.955   0.993  0.00  0.00    -0.275 OA
ATOM     18  H   UNL     1       6.028   1.248   1.475  0.00  0.00    +0.149 HD
BRANCH  15  19
ATOM     19  C   UNL     1       5.101   1.687  -0.384  0.00  0.00    +0.139 C 
BRANCH  19  22
ATOM     20  C   UNL     1       5.128  -2.037  -1.004  0.00  0.00    +0.001 A 
ATOM     21  C   UNL     1       4.721  -0.777  -0.608  0.00  0.00    +0.005 A 
ATOM     22  C   UNL     1       5.545   0.313  -0.815  0.00  0.00    -0.030 A 
ATOM     23  C   UNL     1       6.778   0.143  -1.418  0.00  0.00    +0.017 A 
ATOM     24  C   UNL     1       7.186  -1.117  -1.813  0.00  0.00    +0.055 A 
ATOM     25  C   UNL     1       6.360  -2.207  -1.607  0.00  0.00    +0.012 A 
BRANCH  24  26
ATOM     26  C   UNL     1       8.529  -1.303  -2.471  0.00  0.00    +0.417 C 
ATOM     27  F   UNL     1       9.497  -1.552  -1.492  0.00  0.00    -0.166 F 
ATOM     28  F   UNL     1       8.470  -2.385  -3.355  0.00  0.00    -0.166 F 
ATOM     29  F   UNL     1       8.867  -0.143  -3.176  0.00  0.00    -0.166 F 
ENDBRANCH  24  26
ENDBRANCH  19  22
ENDBRANCH  15  19
ENDBRANCH   1  16
BRANCH  11  30
ATOM     30  C   UNL     1       4.057   5.275   6.496  0.00  0.00    +0.324 C 
BRANCH  30  31
ATOM     31  O   UNL     1       4.032   5.865   7.798  0.00  0.00    -0.483 OA
BRANCH  31  32
ATOM     32  C   UNL     1       2.925   5.645   8.554  0.00  0.00    +0.123 A 
ATOM     33  C   UNL     1       1.885   4.872   8.055  0.00  0.00    +0.046 A 
ATOM     34  C   UNL     1       0.760   4.649   8.825  0.00  0.00    +0.005 A 
ATOM     35  C   UNL     1       0.669   5.195  10.092  0.00  0.00    +0.020 A 
ATOM     36  C   UNL     1       1.704   5.966  10.592  0.00  0.00    +0.044 A 
ATOM     37  C   UNL     1       2.834   6.187   9.827  0.00  0.00    +0.065 A 
ATOM     38 CL   UNL     1       1.585   6.650  12.183  0.00  0.00    -0.083 Cl
ENDBRANCH  31  32
ENDBRANCH  30  31
ENDBRANCH  11  30
TORSDOF 7
