REMARK  Name = ZINC21180808
REMARK  10 active torsions:
REMARK  status: ('A' for Active; 'I' for Inactive)
REMARK    1  A    between atoms: C_1  and  C_2
REMARK    2  A    between atoms: N_13  and  C_29
REMARK    3  A    between atoms: C_14  and  S_16
REMARK    4  A    between atoms: S_16  and  C_17
REMARK    5  A    between atoms: C_17  and  C_18
REMARK    6  A    between atoms: N_20  and  N_21
REMARK    7  A    between atoms: C_22  and  C_24
REMARK    8  A    between atoms: C_29  and  C_30
REMARK    9  A    between atoms: C_30  and  C_31
REMARK   10  A    between atoms: C_30  and  C_32
REMARK                            x       y       z     vdW  Elec       q    Type
REMARK                         _______ _______ _______ _____ _____    ______ ____
ROOT
ATOM      1  C   UNL     1      16.928  -2.143  -0.059  0.00  0.00    +0.008 C 
ATOM      2  C   UNL     1      15.801  -1.153   0.243  0.00  0.00    -0.009 C 
ATOM      3  C   UNL     1      15.997   0.118  -0.590  0.00  0.00    +0.008 C 
ATOM      4  C   UNL     1      15.028   1.202  -0.119  0.00  0.00    +0.037 C 
ATOM      5  C   UNL     1      13.613   0.630  -0.112  0.00  0.00    -0.023 A 
ATOM      6  C   UNL     1      13.409  -0.703  -0.117  0.00  0.00    -0.004 A 
ATOM      7  S   UNL     1      11.648  -0.900  -0.105  0.00  0.00    -0.073 S 
ATOM      8  C   UNL     1      11.188   0.815  -0.093  0.00  0.00    +0.117 A 
ATOM      9  C   UNL     1      12.424   1.484  -0.100  0.00  0.00    +0.076 A 
ATOM     10  C   UNL     1      12.358   2.913  -0.094  0.00  0.00    +0.263 A 
ATOM     11  O   UNL     1      13.379   3.579  -0.100  0.00  0.00    -0.267 OA
ATOM     12  N   UNL     1      11.153   3.513  -0.082  0.00  0.00    -0.287 N 
ATOM     13  C   UNL     1       9.999   2.784  -0.074  0.00  0.00    +0.173 A 
ATOM     14  N   UNL     1      10.031   1.467  -0.075  0.00  0.00    -0.216 NA
ATOM     15  C   UNL     1      14.450  -1.781  -0.129  0.00  0.00    +0.046 C 
ENDROOT
BRANCH  13  16
ATOM     16  S   UNL     1       8.446   3.616  -0.057  0.00  0.00    -0.078 S 
BRANCH  16  17
ATOM     17  C   UNL     1       7.328   2.193  -0.053  0.00  0.00    +0.174 C 
BRANCH  17  18
ATOM     18  C   UNL     1       5.900   2.676  -0.038  0.00  0.00    +0.239 C 
ATOM     19  O   UNL     1       5.662   3.865  -0.031  0.00  0.00    -0.273 OA
ATOM     20  N   UNL     1       4.888   1.786  -0.033  0.00  0.00    -0.233 N 
ATOM     21  H   UNL     1       5.103   0.707  -0.040  0.00  0.00    +0.173 HD
BRANCH  20  22
ATOM     22  N   UNL     1       3.561   2.235  -0.019  0.00  0.00    -0.230 N 
ATOM     23  C   UNL     1       2.548   1.345  -0.014  0.00  0.00    +0.267 C 
ATOM     24  O   UNL     1       2.787   0.152  -0.021  0.00  0.00    -0.268 OA
ATOM     25  H   UNL     1       3.345   3.314  -0.012  0.00  0.00    +0.173 HD
BRANCH  23  26
ATOM     26  C   UNL     1       1.160   1.815   0.001  0.00  0.00    +0.075 A 
ATOM     27  C   UNL     1      -0.013   1.076   0.008  0.00  0.00    +0.021 A 
ATOM     28  C   UNL     1      -1.193   1.776   0.017  0.00  0.00    +0.008 A 
ATOM     29  C   UNL     1      -1.159   3.135   0.029  0.00  0.00    +0.046 A 
ATOM     30  S   UNL     1       0.539   3.487   0.015  0.00  0.00    -0.092 S 
ENDBRANCH  23  26
ENDBRANCH  20  22
ENDBRANCH  17  18
ENDBRANCH  16  17
ENDBRANCH  13  16
BRANCH  12  31
ATOM     31  C   UNL     1      11.079   4.976  -0.075  0.00  0.00    +0.130 C 
BRANCH  31  32
ATOM     32  C   UNL     1      11.065   5.480   1.369  0.00  0.00    +0.003 C 
ATOM     33  C   UNL     1      12.397   5.139   2.041  0.00  0.00    +0.009 C 
ATOM     34  C   UNL     1      10.863   6.996   1.378  0.00  0.00    +0.009 C 
ENDBRANCH  31  32
ENDBRANCH  12  31
TORSDOF 7
