REMARK  Name = ZINC04147673
REMARK  9 active torsions:
REMARK  status: ('A' for Active; 'I' for Inactive)
REMARK    1  A    between atoms: C_1  and  N_2
REMARK    2  A    between atoms: N_2  and  C_3
REMARK    3  A    between atoms: N_2  and  C_4
REMARK    4  A    between atoms: C_8  and  O_10
REMARK    5  A    between atoms: O_10  and  C_11
REMARK    6  A    between atoms: N_15  and  C_16
REMARK    7  A    between atoms: C_26  and  N_28
REMARK    8  A    between atoms: N_31  and  C_32
REMARK    9  A    between atoms: C_36  and  C_38
REMARK                            x       y       z     vdW  Elec       q    Type
REMARK                         _______ _______ _______ _____ _____    ______ ____
ROOT
ATOM      1  C   UNL     1       0.860   2.563   3.242  0.00  0.00    +0.171 C 
ATOM      2  C   UNL     1       0.185   1.321   3.866  0.00  0.00    +0.190 C 
ATOM      3  O   UNL     1       0.147   0.347   2.800  0.00  0.00    -0.370 OA
ATOM      4  C   UNL     1      -0.216   1.099   1.607  0.00  0.00    +0.172 C 
ATOM      5  C   UNL     1       0.610   2.408   1.724  0.00  0.00    +0.176 C 
ATOM      6  O   UNL     1       1.862   2.164   1.077  0.00  0.00    -0.370 OA
ATOM      7  C   UNL     1       1.796   1.000   0.253  0.00  0.00    +0.185 C 
ATOM      8  C   UNL     1       0.378   0.417   0.359  0.00  0.00    +0.131 C 
ENDROOT
BRANCH   8   9
ATOM      9  N   UNL     1      -0.405   0.752  -0.833  0.00  0.00    -0.292 N 
ATOM     10  C   UNL     1      -0.373  -0.059  -1.909  0.00  0.00    +0.304 C 
ATOM     11  O   UNL     1       0.306  -1.067  -1.891  0.00  0.00    -0.252 OA
ATOM     12  N   UNL     1      -1.093   0.249  -3.006  0.00  0.00    -0.269 N 
ATOM     13  H   UNL     1      -0.947   1.556  -0.847  0.00  0.00    +0.151 HD
ATOM     14  H   UNL     1      -1.574   1.091  -3.051  0.00  0.00    +0.156 HD
BRANCH  12  15
ATOM     15  C   UNL     1      -1.148  -0.645  -4.081  0.00  0.00    +0.035 A 
ATOM     16  C   UNL     1      -0.988  -2.007  -3.862  0.00  0.00    +0.023 A 
ATOM     17  C   UNL     1      -1.043  -2.887  -4.925  0.00  0.00    +0.002 A 
ATOM     18  C   UNL     1      -1.258  -2.414  -6.206  0.00  0.00    +0.012 A 
ATOM     19  C   UNL     1      -1.418  -1.058  -6.428  0.00  0.00    +0.057 A 
ATOM     20  C   UNL     1      -1.369  -0.173  -5.368  0.00  0.00    +0.035 A 
BRANCH  19  21
ATOM     21  C   UNL     1      -1.652  -0.547  -7.826  0.00  0.00    +0.417 C 
ATOM     22  F   UNL     1      -1.666  -1.623  -8.720  0.00  0.00    -0.166 F 
ATOM     23  F   UNL     1      -2.881   0.120  -7.879  0.00  0.00    -0.166 F 
ATOM     24  F   UNL     1      -0.626   0.338  -8.176  0.00  0.00    -0.166 F 
ENDBRANCH  19  21
ENDBRANCH  12  15
ENDBRANCH   8   9
BRANCH   1  29
ATOM     25  C   UNL     1       0.848   4.840   4.335  0.00  0.00    +0.342 A 
ATOM     26  N   UNL     1      -0.083   5.719   4.625  0.00  0.00    -0.071 NA
ATOM     27  N   UNL     1      -1.235   5.296   4.247  0.00  0.00    -0.020 NA
ATOM     28  N   UNL     1      -1.127   4.133   3.702  0.00  0.00    -0.041 NA
ATOM     29  N   UNL     1       0.236   3.791   3.742  0.00  0.00    -0.187 N 
BRANCH  25  30
ATOM     30  O   UNL     1       2.174   4.960   4.586  0.00  0.00    -0.423 OA
BRANCH  30  35
ATOM     31  C   UNL     1       4.440   7.568   5.741  0.00  0.00    +0.033 A 
ATOM     32  C   UNL     1       3.529   8.544   6.128  0.00  0.00    +0.023 A 
ATOM     33  C   UNL     1       2.174   8.315   5.998  0.00  0.00    +0.005 A 
ATOM     34  C   UNL     1       1.719   7.119   5.477  0.00  0.00    +0.046 A 
ATOM     35  C   UNL     1       2.623   6.138   5.093  0.00  0.00    +0.134 A 
ATOM     36  C   UNL     1       3.985   6.364   5.223  0.00  0.00    +0.069 A 
BRANCH  31  38
ATOM     37  C   UNL     1       6.770   6.770   5.463  0.00  0.00    +0.129 C 
ATOM     38  N   UNL     1       5.811   7.799   5.872  0.00  0.00    -0.336 N 
ATOM     39  C   UNL     1       6.290   9.071   6.419  0.00  0.00    +0.129 C 
ENDBRANCH  31  38
ENDBRANCH  30  35
ENDBRANCH  25  30
ENDBRANCH   1  29
TORSDOF 7
