REMARK  Name = ZINC20940932
REMARK  7 active torsions:
REMARK  status: ('A' for Active; 'I' for Inactive)
REMARK    1  A    between atoms: C_1  and  C_2
REMARK    2  A    between atoms: C_6  and  N_8
REMARK    3  A    between atoms: C_9  and  C_25
REMARK    4  A    between atoms: C_10  and  C_13
REMARK    5  A    between atoms: N_15  and  C_16
REMARK    6  A    between atoms: C_19  and  C_22
REMARK    7  A    between atoms: C_22  and  C_24
REMARK                            x       y       z     vdW  Elec       q    Type
REMARK                         _______ _______ _______ _____ _____    ______ ____
ROOT
ATOM      1  N   UNL     1       2.363   3.810  -0.106  0.00  0.00    -0.236 N 
ATOM      2  C   UNL     1       3.420   3.569   0.692  0.00  0.00    +0.060 A 
ATOM      3  C   UNL     1       4.326   4.593   0.495  0.00  0.00    +0.078 A 
ATOM      4  C   UNL     1       3.767   5.468  -0.462  0.00  0.00    +0.148 A 
ATOM      5  N   UNL     1       2.604   4.992  -0.816  0.00  0.00    -0.174 NA
ENDROOT
BRANCH   2   6
ATOM      6  C   UNL     1       3.584   2.398   1.626  0.00  0.00    +0.035 C 
ATOM      7  C   UNL     1       3.790   2.909   3.055  0.00  0.00    -0.010 C 
ATOM      8  C   UNL     1       4.017   1.718   3.989  0.00  0.00    -0.082 C 
ATOM      9  N   UNL     1       5.196   0.964   3.545  0.00  0.00    +0.379 N 
ATOM     10  C   UNL     1       5.002   0.423   2.193  0.00  0.00    -0.082 C 
ATOM     11  C   UNL     1       4.805   1.576   1.206  0.00  0.00    -0.010 C 
ATOM     12  H   UNL     1       6.073   1.627   3.536  0.00  0.00    -0.086 HD
ATOM     13  H   UNL     1       5.377   0.126   4.235  0.00  0.00    -0.086 HD
ENDBRANCH   2   6
BRANCH   1  19
ATOM     14  C   UNL     1      -2.534   3.442  -0.370  0.00  0.00    +0.044 C 
ATOM     15  C   UNL     1      -1.168   2.806  -0.342  0.00  0.00    -0.048 A 
ATOM     16  C   UNL     1      -1.044   1.431  -0.425  0.00  0.00    +0.003 A 
ATOM     17  C   UNL     1       0.207   0.844  -0.394  0.00  0.00    +0.002 A 
ATOM     18  C   UNL     1       1.338   1.629  -0.290  0.00  0.00    +0.028 A 
ATOM     19  C   UNL     1       1.218   3.010  -0.211  0.00  0.00    +0.066 A 
ATOM     20  C   UNL     1      -0.041   3.597  -0.237  0.00  0.00    +0.031 A 
ENDBRANCH   1  19
BRANCH   3  21
ATOM     21  C   UNL     1       5.633   4.743   1.160  0.00  0.00    +0.252 C 
ATOM     22  O   UNL     1       6.040   3.873   1.906  0.00  0.00    -0.270 OA
ATOM     23  N   UNL     1       6.378   5.844   0.941  0.00  0.00    -0.281 N 
ATOM     24  H   UNL     1       6.046   6.596   0.208  0.00  0.00    +0.155 HD
BRANCH  23  25
ATOM     25  C   UNL     1       7.567   6.032   1.640  0.00  0.00    +0.034 A 
ATOM     26  C   UNL     1       7.952   7.313   2.025  0.00  0.00    +0.024 A 
ATOM     27  C   UNL     1       9.115   7.501   2.716  0.00  0.00    +0.013 A 
ATOM     28  C   UNL     1       9.926   6.403   3.029  0.00  0.00    +0.017 A 
ATOM     29  C   UNL     1       9.537   5.116   2.636  0.00  0.00    +0.013 A 
ATOM     30  C   UNL     1       8.370   4.937   1.949  0.00  0.00    +0.024 A 
BRANCH  28  31
ATOM     31  C   UNL     1      11.179   6.600   3.768  0.00  0.00    +0.160 C 
ATOM     32  O   UNL     1      11.880   5.648   4.039  0.00  0.00    -0.292 OA
ATOM     33  C   UNL     1      11.595   7.986   4.191  0.00  0.00    +0.091 C 
ENDBRANCH  28  31
ENDBRANCH  23  25
ENDBRANCH   3  21
TORSDOF 5
