REMARK  Name = ZINC46706313
REMARK  8 active torsions:
REMARK  status: ('A' for Active; 'I' for Inactive)
REMARK    1  A    between atoms: C_1  and  C_2
REMARK    2  A    between atoms: C_5  and  C_30
REMARK    3  A    between atoms: C_7  and  N_8
REMARK    4  A    between atoms: C_9  and  C_11
REMARK    5  A    between atoms: N_14  and  S_17
REMARK    6  A    between atoms: S_17  and  C_20
REMARK    7  A    between atoms: C_24  and  C_26
REMARK    8  A    between atoms: N_32  and  C_33
REMARK                            x       y       z     vdW  Elec       q    Type
REMARK                         _______ _______ _______ _____ _____    ______ ____
ROOT
ATOM      1  C   UNL     1      -0.168   0.069   4.882  0.00  0.00    +0.078 C 
ATOM      2  C   UNL     1      -1.431   0.933   4.865  0.00  0.00    +0.030 C 
ATOM      3  C   UNL     1      -1.523   1.722   6.175  0.00  0.00    +0.110 C 
ATOM      4  N   UNL     1      -1.451   0.780   7.301  0.00  0.00    -0.177 NA
ATOM      5  C   UNL     1      -0.323  -0.159   7.365  0.00  0.00    +0.110 C 
ATOM      6  C   UNL     1      -0.245  -0.927   6.041  0.00  0.00    +0.030 C 
ENDROOT
BRANCH   1   8
ATOM      7  N   UNL     1       0.025  -0.007   2.417  0.00  0.00    -0.285 N 
ATOM      8  C   UNL     1      -0.057  -0.683   3.581  0.00  0.00    +0.220 C 
ATOM      9  O   UNL     1      -0.040  -1.895   3.580  0.00  0.00    -0.275 OA
ATOM     10  H   UNL     1       0.078   0.961   2.421  0.00  0.00    +0.155 HD
BRANCH   7  17
ATOM     11  C   UNL     1      -1.264   1.184   0.183  0.00  0.00    +0.045 C 
ATOM     12  C   UNL     1      -0.585  -0.158   0.085  0.00  0.00    -0.029 A 
ATOM     13  C   UNL     1      -0.575  -0.839  -1.118  0.00  0.00    +0.006 A 
ATOM     14  C   UNL     1       0.045  -2.068  -1.215  0.00  0.00    +0.013 A 
ATOM     15  C   UNL     1       0.664  -2.627  -0.096  0.00  0.00    +0.038 A 
ATOM     16  C   UNL     1       0.654  -1.940   1.117  0.00  0.00    +0.036 A 
ATOM     17  C   UNL     1       0.033  -0.704   1.203  0.00  0.00    +0.037 A 
BRANCH  15  18
ATOM     18  C   UNL     1       1.329  -3.944  -0.197  0.00  0.00    +0.244 C 
ATOM     19  O   UNL     1       1.867  -4.430   0.778  0.00  0.00    -0.270 OA
ATOM     20  N   UNL     1       1.337  -4.607  -1.371  0.00  0.00    -0.314 N 
ATOM     21  C   UNL     1       1.995  -5.912  -1.471  0.00  0.00    +0.128 C 
ATOM     22  H   UNL     1       0.906  -4.220  -2.149  0.00  0.00    +0.149 HD
ENDBRANCH  15  18
ENDBRANCH   7  17
ENDBRANCH   1   8
BRANCH   4  23
ATOM     23  S   UNL     1      -2.619   0.777   8.474  0.00  0.00    +0.061 S 
ATOM     24  O   UNL     1      -2.025   0.218   9.637  0.00  0.00    -0.153 OA
ATOM     25  O   UNL     1      -3.206   2.071   8.466  0.00  0.00    -0.153 OA
BRANCH  23  26
ATOM     26  C   UNL     1      -3.873  -0.348   7.959  0.00  0.00    +0.106 A 
ATOM     27  C   UNL     1      -4.930   0.101   7.189  0.00  0.00    +0.028 A 
ATOM     28  C   UNL     1      -5.914  -0.782   6.784  0.00  0.00    +0.002 A 
ATOM     29  C   UNL     1      -5.841  -2.114   7.149  0.00  0.00    +0.012 A 
ATOM     30  C   UNL     1      -4.784  -2.562   7.918  0.00  0.00    +0.057 A 
ATOM     31  C   UNL     1      -3.798  -1.680   8.319  0.00  0.00    +0.041 A 
BRANCH  30  32
ATOM     32  C   UNL     1      -4.704  -4.013   8.317  0.00  0.00    +0.417 C 
ATOM     33  F   UNL     1      -5.804  -4.701   7.794  0.00  0.00    -0.166 F 
ATOM     34  F   UNL     1      -3.524  -4.571   7.815  0.00  0.00    -0.166 F 
ATOM     35  F   UNL     1      -4.711  -4.115   9.712  0.00  0.00    -0.166 F 
ENDBRANCH  30  32
ENDBRANCH  23  26
ENDBRANCH   4  23
TORSDOF 6
