REMARK  Name = ZINC33113079
REMARK  4 active torsions:
REMARK  status: ('A' for Active; 'I' for Inactive)
REMARK    1  A    between atoms: C_6  and  N_7
REMARK    2  A    between atoms: C_8  and  C_10
REMARK    3  A    between atoms: C_13  and  C_15
REMARK    4  A    between atoms: N_24  and  C_25
REMARK                            x       y       z     vdW  Elec       q    Type
REMARK                         _______ _______ _______ _____ _____    ______ ____
ROOT
ATOM      1  C   UNL     1      -0.744   1.336   1.336  0.00  0.00    +0.064 C 
ATOM      2  C   UNL     1      -2.203   0.867   1.280  0.00  0.00    +0.013 C 
ATOM      3  C   UNL     1      -2.881   1.446   0.037  0.00  0.00    +0.020 C 
ATOM      4  C   UNL     1      -2.163   0.937  -1.216  0.00  0.00    +0.109 C 
ATOM      5  N   UNL     1      -0.733   1.257  -1.105  0.00  0.00    -0.285 N 
ATOM      6  C   UNL     1      -0.004   0.825   0.096  0.00  0.00    +0.119 C 
ATOM      7  C   UNL     1      -0.102   1.934  -2.084  0.00  0.00    +0.306 C 
ATOM      8  O   UNL     1       1.055   2.276  -1.939  0.00  0.00    -0.252 OA
ATOM      9  N   UNL     1      -0.755   2.232  -3.225  0.00  0.00    -0.268 N 
ATOM     10  H   UNL     1      -1.769   1.842  -3.397  0.00  0.00    +0.156 HD
ENDROOT
BRANCH   9  11
ATOM     11  C   UNL     1      -0.141   3.037  -4.192  0.00  0.00    +0.055 A 
ATOM     12  C   UNL     1       0.854   3.932  -3.823  0.00  0.00    +0.044 A 
ATOM     13  C   UNL     1       1.458   4.725  -4.781  0.00  0.00    +0.043 A 
ATOM     14  C   UNL     1       1.071   4.628  -6.106  0.00  0.00    +0.021 A 
ATOM     15  C   UNL     1       0.080   3.739  -6.477  0.00  0.00    +0.023 A 
ATOM     16  C   UNL     1      -0.524   2.939  -5.525  0.00  0.00    +0.062 A 
ATOM     17 CL   UNL     1      -1.764   1.817  -5.992  0.00  0.00    -0.082 Cl
ATOM     18 CL   UNL     1       2.703   5.844  -4.320  0.00  0.00    -0.083 Cl
ENDBRANCH   9  11
BRANCH   1  22
ATOM     19  C   UNL     1       1.129   0.194   4.837  0.00  0.00    +0.187 A 
ATOM     20  N   UNL     1       0.673  -0.763   4.033  0.00  0.00    -0.136 NA
ATOM     21  N   UNL     1       0.090  -0.463   2.955  0.00  0.00    -0.145 NA
ATOM     22  C   UNL     1      -0.083   0.791   2.576  0.00  0.00    +0.107 A 
ATOM     23  S   UNL     1       0.653   1.643   3.902  0.00  0.00    -0.046 S 
BRANCH  19  25
ATOM     24  N   UNL     1       2.088  -1.121   6.659  0.00  0.00    -0.280 N 
ATOM     25  C   UNL     1       1.827   0.090   6.130  0.00  0.00    +0.275 C 
ATOM     26  O   UNL     1       2.167   1.098   6.720  0.00  0.00    -0.268 OA
ATOM     27  H   UNL     1       1.859  -2.032   6.087  0.00  0.00    +0.155 HD
BRANCH  24  33
ATOM     28  C   UNL     1       3.547  -2.242   8.225  0.00  0.00    +0.026 A 
ATOM     29  C   UNL     1       4.106  -2.334   9.484  0.00  0.00    +0.040 A 
ATOM     30  C   UNL     1       3.765  -1.415  10.463  0.00  0.00    +0.124 A 
ATOM     31  C   UNL     1       2.867  -0.399  10.179  0.00  0.00    +0.040 A 
ATOM     32  C   UNL     1       2.311  -0.300   8.919  0.00  0.00    +0.026 A 
ATOM     33  C   UNL     1       2.651  -1.220   7.936  0.00  0.00    +0.034 A 
ATOM     34  F   UNL     1       4.309  -1.510  11.696  0.00  0.00    -0.205 F 
ENDBRANCH  24  33
ENDBRANCH  19  25
ENDBRANCH   1  22
TORSDOF 4
