REMARK  Name = ZINC21050860
REMARK  5 active torsions:
REMARK  status: ('A' for Active; 'I' for Inactive)
REMARK    1  A    between atoms: C_1  and  C_2
REMARK    2  A    between atoms: C_4  and  S_10
REMARK    3  A    between atoms: C_6  and  N_9
REMARK    4  A    between atoms: C_7  and  C_8
REMARK    5  A    between atoms: S_10  and  N_13
REMARK                            x       y       z     vdW  Elec       q    Type
REMARK                         _______ _______ _______ _____ _____    ______ ____
ROOT
ATOM      1  C   UNL     1       4.616  -5.643   2.342  0.00  0.00    +0.044 C 
ATOM      2  C   UNL     1       3.184  -5.298   2.021  0.00  0.00    -0.044 A 
ATOM      3  C   UNL     1       2.897  -4.183   1.255  0.00  0.00    +0.032 A 
ATOM      4  C   UNL     1       1.585  -3.867   0.954  0.00  0.00    +0.107 A 
ATOM      5  C   UNL     1       0.557  -4.664   1.417  0.00  0.00    +0.051 A 
ATOM      6  C   UNL     1       0.842  -5.785   2.186  0.00  0.00    +0.030 A 
ATOM      7  C   UNL     1       2.161  -6.100   2.487  0.00  0.00    -0.027 A 
ATOM      8  C   UNL     1       2.475  -7.315   3.322  0.00  0.00    +0.046 C 
ENDROOT
BRANCH   6   9
ATOM      9  N   UNL     1      -0.196  -6.593   2.656  0.00  0.00    -0.358 N 
ATOM     10  H   UNL     1       0.031  -7.481   3.265  0.00  0.00    +0.142 HD
ATOM     11  H   UNL     1      -1.240  -6.343   2.417  0.00  0.00    +0.142 HD
ENDBRANCH   6   9
BRANCH   4  12
ATOM     12  S   UNL     1       1.225  -2.444  -0.021  0.00  0.00    +0.061 S 
ATOM     13  O   UNL     1      -0.106  -2.061   0.295  0.00  0.00    -0.153 OA
ATOM     14  O   UNL     1       2.328  -1.560   0.127  0.00  0.00    -0.153 OA
BRANCH  12  15
ATOM     15  N   UNL     1       1.215  -2.926  -1.605  0.00  0.00    -0.177 NA
ATOM     16  C   UNL     1      -0.051  -3.267  -2.270  0.00  0.00    +0.109 C 
ATOM     17  C   UNL     1      -0.879  -1.994  -2.438  0.00  0.00    +0.017 C 
ATOM     18  C   UNL     1      -0.250  -1.121  -3.537  0.00  0.00    +0.001 C 
ATOM     19  C   UNL     1       0.968  -0.397  -2.973  0.00  0.00    +0.000 C 
ATOM     20  C   UNL     1       2.259  -0.894  -3.648  0.00  0.00    +0.001 C 
ATOM     21  C   UNL     1       2.235  -2.420  -3.745  0.00  0.00    +0.017 C 
ATOM     22  C   UNL     1       2.458  -3.023  -2.352  0.00  0.00    +0.109 C 
ENDBRANCH  12  15
ENDBRANCH   4  12
TORSDOF 3
