REMARK  Name = ZINC22989472
REMARK  7 active torsions:
REMARK  status: ('A' for Active; 'I' for Inactive)
REMARK    1  A    between atoms: C_1  and  C_2
REMARK    2  A    between atoms: C_7  and  C_9
REMARK    3  A    between atoms: C_7  and  C_10
REMARK    4  A    between atoms: N_13  and  C_17
REMARK    5  A    between atoms: C_17  and  C_18
REMARK    6  A    between atoms: N_20  and  C_21
REMARK    7  A    between atoms: C_25  and  C_27
REMARK                            x       y       z     vdW  Elec       q    Type
REMARK                         _______ _______ _______ _____ _____    ______ ____
ROOT
ATOM      1  C   UNL     1      -0.030   1.513   0.033  0.00  0.00    +0.007 C 
ATOM      2  C   UNL     1      -0.003  -0.018   0.016  0.00  0.00    -0.011 C 
ATOM      3  C   UNL     1       0.721  -0.497  -1.244  0.00  0.00    +0.038 C 
ATOM      4  C   UNL     1       0.711  -2.018  -1.296  0.00  0.00    +0.113 C 
ATOM      5  C   UNL     1       1.268  -2.655  -0.039  0.00  0.00    +0.041 C 
ATOM      6  C   UNL     1       0.792  -2.049   1.270  0.00  0.00    -0.032 C 
ATOM      7  C   UNL     1       0.762  -0.525   1.237  0.00  0.00    +0.009 C 
ATOM      8  C   UNL     1       1.778  -2.475   2.380  0.00  0.00    +0.011 C 
ATOM      9  C   UNL     1      -0.588  -2.592   1.650  0.00  0.00    +0.011 C 
ATOM     10  C   UNL     1      -0.665  -2.537  -1.636  0.00  0.00    +0.247 C 
ATOM     11  O   UNL     1      -1.716  -2.296  -1.081  0.00  0.00    -0.273 OA
ATOM     12  N   UNL     1      -0.503  -3.322  -2.723  0.00  0.00    -0.215 N 
ATOM     13  C   UNL     1       0.750  -3.264  -3.187  0.00  0.00    +0.310 C 
ATOM     14  O   UNL     1       1.137  -3.873  -4.165  0.00  0.00    -0.252 OA
ATOM     15  N   UNL     1       1.531  -2.458  -2.448  0.00  0.00    -0.285 N 
ATOM     16  H   UNL     1       2.449  -2.205  -2.621  0.00  0.00    +0.151 HD
ENDROOT
BRANCH  12  17
ATOM     17  C   UNL     1      -1.567  -4.136  -3.315  0.00  0.00    +0.214 C 
BRANCH  17  18
ATOM     18  C   UNL     1      -2.295  -3.328  -4.358  0.00  0.00    +0.235 C 
ATOM     19  O   UNL     1      -1.958  -2.185  -4.585  0.00  0.00    -0.274 OA
ATOM     20  N   UNL     1      -3.321  -3.876  -5.040  0.00  0.00    -0.284 N 
ATOM     21  H   UNL     1      -3.548  -4.809  -4.908  0.00  0.00    +0.155 HD
BRANCH  20  22
ATOM     22  C   UNL     1      -4.059  -3.097  -5.939  0.00  0.00    +0.034 A 
ATOM     23  C   UNL     1      -3.428  -2.113  -6.688  0.00  0.00    +0.024 A 
ATOM     24  C   UNL     1      -4.158  -1.346  -7.574  0.00  0.00    +0.017 A 
ATOM     25  C   UNL     1      -5.519  -1.557  -7.715  0.00  0.00    +0.030 A 
ATOM     26  C   UNL     1      -6.150  -2.537  -6.970  0.00  0.00    +0.070 A 
ATOM     27  C   UNL     1      -5.423  -3.310  -6.087  0.00  0.00    +0.036 A 
ATOM     28 BR   UNL     1      -6.516  -0.504  -8.929  0.00  0.00    -0.050 Br
BRANCH  26  29
ATOM     29  C   UNL     1      -7.632  -2.764  -7.127  0.00  0.00    +0.418 C 
ATOM     30  F   UNL     1      -8.038  -3.797  -6.276  0.00  0.00    -0.166 F 
ATOM     31  F   UNL     1      -8.320  -1.591  -6.798  0.00  0.00    -0.166 F 
ATOM     32  F   UNL     1      -7.912  -3.113  -8.452  0.00  0.00    -0.166 F 
ENDBRANCH  26  29
ENDBRANCH  20  22
ENDBRANCH  17  18
ENDBRANCH  12  17
TORSDOF 4
