REMARK  Name = ZINC65993688
REMARK  7 active torsions:
REMARK  status: ('A' for Active; 'I' for Inactive)
REMARK    1  A    between atoms: C_1  and  C_2
REMARK    2  A    between atoms: C_5  and  N_12
REMARK    3  A    between atoms: N_9  and  C_11
REMARK    4  A    between atoms: N_15  and  C_16
REMARK    5  A    between atoms: C_16  and  C_17
REMARK    6  A    between atoms: C_16  and  C_18
REMARK    7  A    between atoms: C_21  and  N_24
REMARK                            x       y       z     vdW  Elec       q    Type
REMARK                         _______ _______ _______ _____ _____    ______ ____
ROOT
ATOM      1  N   UNL     1      -0.036  -1.505  -4.815  0.00  0.00    -0.268 N 
ATOM      2  C   UNL     1       0.092  -2.570  -5.632  0.00  0.00    +0.304 C 
ATOM      3  O   UNL     1       0.121  -3.693  -5.167  0.00  0.00    -0.252 OA
ATOM      4  N   UNL     1       0.187  -2.389  -6.964  0.00  0.00    -0.293 N 
ATOM      5  H   UNL     1      -0.136  -0.616  -5.190  0.00  0.00    +0.156 HD
ATOM      6  H   UNL     1       0.164  -1.494  -7.335  0.00  0.00    +0.151 HD
ENDROOT
BRANCH   1  11
ATOM      7  C   UNL     1       2.304  -4.854  -0.864  0.00  0.00    +0.068 C 
ATOM      8  C   UNL     1       1.361  -3.730  -0.517  0.00  0.00    +0.069 A 
ATOM      9  C   UNL     1       0.717  -2.824  -1.462  0.00  0.00    +0.043 A 
ATOM     10  C   UNL     1       0.739  -2.691  -2.855  0.00  0.00    +0.038 A 
ATOM     11  C   UNL     1      -0.023  -1.683  -3.425  0.00  0.00    +0.054 A 
ATOM     12  C   UNL     1      -0.776  -0.848  -2.601  0.00  0.00    +0.136 A 
ATOM     13  N   UNL     1      -0.781  -0.994  -1.295  0.00  0.00    -0.234 NA
ATOM     14  C   UNL     1      -0.070  -1.942  -0.696  0.00  0.00    +0.158 A 
ATOM     15  N   UNL     1       0.101  -2.304   0.614  0.00  0.00    -0.249 N 
ATOM     16  N   UNL     1       0.972  -3.396   0.680  0.00  0.00    -0.174 NA
ATOM     17  C   UNL     1      -0.533  -1.653   1.764  0.00  0.00    +0.174 C 
ENDBRANCH   1  11
BRANCH   4  18
ATOM     18  C   UNL     1       0.325  -3.546  -7.852  0.00  0.00    +0.102 C 
ATOM     19  C   UNL     1      -1.060  -4.110  -8.175  0.00  0.00    +0.033 C 
BRANCH  18  20
ATOM     20  C   UNL     1       1.005  -3.122  -9.128  0.00  0.00    -0.027 A 
ATOM     21  C   UNL     1       0.689  -1.907  -9.707  0.00  0.00    +0.007 A 
ATOM     22  C   UNL     1       1.310  -1.515 -10.877  0.00  0.00    +0.024 A 
ATOM     23  C   UNL     1       2.253  -2.342 -11.471  0.00  0.00    +0.036 A 
ATOM     24  C   UNL     1       2.569  -3.562 -10.887  0.00  0.00    +0.024 A 
ATOM     25  C   UNL     1       1.948  -3.946  -9.715  0.00  0.00    +0.007 A 
BRANCH  23  26
ATOM     26  N   UNL     1       2.884  -1.948 -12.656  0.00  0.00    -0.271 N 
ATOM     27  C   UNL     1       3.796  -2.798 -13.431  0.00  0.00    +0.114 C 
ATOM     28  C   UNL     1       3.888  -2.140 -14.826  0.00  0.00    +0.029 C 
ATOM     29  C   UNL     1       3.551  -0.666 -14.502  0.00  0.00    +0.098 C 
ATOM     30  C   UNL     1       2.728  -0.745 -13.235  0.00  0.00    +0.220 C 
ATOM     31  O   UNL     1       2.031   0.148 -12.803  0.00  0.00    -0.275 OA
ENDBRANCH  23  26
ENDBRANCH  18  20
ENDBRANCH   4  18
TORSDOF 4
