REMARK  Name = ZINC13565634
REMARK  9 active torsions:
REMARK  status: ('A' for Active; 'I' for Inactive)
REMARK    1  A    between atoms: C_1  and  C_2
REMARK    2  A    between atoms: N_4  and  C_5
REMARK    3  A    between atoms: C_5  and  C_7
REMARK    4  A    between atoms: C_5  and  C_15
REMARK    5  A    between atoms: C_7  and  C_8
REMARK    6  A    between atoms: N_17  and  C_18
REMARK    7  A    between atoms: N_21  and  S_24
REMARK    8  A    between atoms: S_24  and  C_27
REMARK    9  A    between atoms: C_31  and  C_33
REMARK                            x       y       z     vdW  Elec       q    Type
REMARK                         _______ _______ _______ _____ _____    ______ ____
ROOT
ATOM      1  C   UNL     1      -2.920   0.701   4.419  0.00  0.00    +0.075 C 
ATOM      2  C   UNL     1      -3.260   1.960   3.618  0.00  0.00    +0.039 C 
ATOM      3  C   UNL     1      -3.980   1.559   2.326  0.00  0.00    +0.111 C 
ATOM      4  N   UNL     1      -3.146   0.590   1.602  0.00  0.00    -0.176 NA
ATOM      5  C   UNL     1      -2.691  -0.616   2.307  0.00  0.00    +0.111 C 
ATOM      6  C   UNL     1      -1.982  -0.188   3.600  0.00  0.00    +0.039 C 
ENDROOT
BRANCH   1   9
ATOM      7  C   UNL     1      -2.315   0.262   6.739  0.00  0.00    +0.234 C 
ATOM      8  O   UNL     1      -2.909  -0.793   6.663  0.00  0.00    -0.274 OA
ATOM      9  N   UNL     1      -2.261   1.083   5.671  0.00  0.00    -0.311 N 
ATOM     10  H   UNL     1      -1.786   1.927   5.731  0.00  0.00    +0.149 HD
BRANCH   7  11
ATOM     11  C   UNL     1      -1.637   0.655   8.026  0.00  0.00    +0.163 C 
BRANCH  11  15
ATOM     12  C   UNL     1      -2.243  -2.513  10.089  0.00  0.00    +0.109 C 
ATOM     13  C   UNL     1      -2.468  -1.285   9.245  0.00  0.00    +0.211 C 
ATOM     14  O   UNL     1      -3.594  -0.967   8.925  0.00  0.00    -0.276 OA
ATOM     15  N   UNL     1      -1.418  -0.539   8.846  0.00  0.00    -0.304 N 
ATOM     16  H   UNL     1      -0.518  -0.793   9.103  0.00  0.00    +0.149 HD
ENDBRANCH  11  15
BRANCH  11  17
ATOM     17  C   UNL     1      -2.523   1.642   8.788  0.00  0.00    +0.069 C 
BRANCH  17  18
ATOM     18  C   UNL     1      -1.794   2.129  10.014  0.00  0.00    -0.010 A 
ATOM     19  C   UNL     1      -1.168   3.361  10.002  0.00  0.00    +0.006 A 
ATOM     20  C   UNL     1      -0.499   3.808  11.126  0.00  0.00    +0.000 A 
ATOM     21  C   UNL     1      -0.457   3.023  12.264  0.00  0.00    +0.003 A 
ATOM     22  C   UNL     1      -1.082   1.791  12.278  0.00  0.00    +0.038 A 
ATOM     23  C   UNL     1      -1.756   1.345  11.154  0.00  0.00    +0.127 A 
ATOM     24  F   UNL     1      -2.372   0.142  11.169  0.00  0.00    -0.205 F 
ENDBRANCH  17  18
ENDBRANCH  11  17
ENDBRANCH   7  11
ENDBRANCH   1   9
BRANCH   4  25
ATOM     25  S   UNL     1      -2.733   0.849   0.020  0.00  0.00    +0.061 S 
ATOM     26  O   UNL     1      -3.722   1.714  -0.522  0.00  0.00    -0.153 OA
ATOM     27  O   UNL     1      -2.447  -0.426  -0.540  0.00  0.00    -0.153 OA
BRANCH  25  28
ATOM     28  C   UNL     1      -1.219   1.751   0.017  0.00  0.00    +0.106 A 
ATOM     29  C   UNL     1      -0.013   1.076   0.008  0.00  0.00    +0.028 A 
ATOM     30  C   UNL     1       1.175   1.783   0.000  0.00  0.00    +0.002 A 
ATOM     31  C   UNL     1       1.156   3.166   0.008  0.00  0.00    +0.012 A 
ATOM     32  C   UNL     1      -0.050   3.840   0.022  0.00  0.00    +0.057 A 
ATOM     33  C   UNL     1      -1.238   3.133   0.030  0.00  0.00    +0.041 A 
BRANCH  32  34
ATOM     34  C   UNL     1      -0.070   5.347   0.030  0.00  0.00    +0.417 C 
ATOM     35  F   UNL     1       1.242   5.831   0.019  0.00  0.00    -0.166 F 
ATOM     36  F   UNL     1      -0.747   5.810  -1.104  0.00  0.00    -0.166 F 
ATOM     37  F   UNL     1      -0.725   5.799   1.180  0.00  0.00    -0.166 F 
ENDBRANCH  32  34
ENDBRANCH  25  28
ENDBRANCH   4  25
TORSDOF 8
