REMARK  Name = ZINC36694750
REMARK  9 active torsions:
REMARK  status: ('A' for Active; 'I' for Inactive)
REMARK    1  A    between atoms: C_1  and  C_2
REMARK    2  A    between atoms: C_7  and  C_9
REMARK    3  A    between atoms: C_7  and  C_10
REMARK    4  A    between atoms: N_13  and  C_17
REMARK    5  A    between atoms: C_17  and  C_18
REMARK    6  A    between atoms: N_20  and  C_21
REMARK    7  A    between atoms: C_24  and  C_27
REMARK    8  A    between atoms: N_29  and  C_30
REMARK    9  A    between atoms: N_29  and  C_31
REMARK                            x       y       z     vdW  Elec       q    Type
REMARK                         _______ _______ _______ _____ _____    ______ ____
ROOT
ATOM      1  C   UNL     1      -2.353   1.035  -0.260  0.00  0.00    +0.007 C 
ATOM      2  C   UNL     1      -2.201  -0.480  -0.406  0.00  0.00    -0.011 C 
ATOM      3  C   UNL     1      -1.237  -0.788  -1.555  0.00  0.00    +0.038 C 
ATOM      4  C   UNL     1      -1.068  -2.297  -1.688  0.00  0.00    +0.113 C 
ATOM      5  C   UNL     1      -0.535  -2.897  -0.391  0.00  0.00    +0.041 C 
ATOM      6  C   UNL     1      -1.502  -2.582   0.754  0.00  0.00    -0.032 C 
ATOM      7  C   UNL     1      -1.646  -1.065   0.894  0.00  0.00    +0.009 C 
ATOM      8  C   UNL     1      -2.869  -3.198   0.451  0.00  0.00    +0.011 C 
ATOM      9  C   UNL     1      -0.956  -3.165   2.058  0.00  0.00    +0.011 C 
ATOM     10  C   UNL     1      -0.146  -2.626  -2.839  0.00  0.00    +0.247 C 
ATOM     11  O   UNL     1       1.017  -2.308  -2.962  0.00  0.00    -0.273 OA
ATOM     12  N   UNL     1      -0.890  -3.350  -3.701  0.00  0.00    -0.215 N 
ATOM     13  C   UNL     1      -2.140  -3.518  -3.252  0.00  0.00    +0.310 C 
ATOM     14  O   UNL     1      -2.997  -4.136  -3.854  0.00  0.00    -0.252 OA
ATOM     15  N   UNL     1      -2.342  -2.927  -2.059  0.00  0.00    -0.285 N 
ATOM     16  H   UNL     1      -3.165  -2.918  -1.547  0.00  0.00    +0.151 HD
ENDROOT
BRANCH  12  17
ATOM     17  C   UNL     1      -0.392  -3.885  -4.971  0.00  0.00    +0.214 C 
BRANCH  17  18
ATOM     18  C   UNL     1       0.177  -5.262  -4.747  0.00  0.00    +0.235 C 
ATOM     19  O   UNL     1       0.167  -5.749  -3.637  0.00  0.00    -0.274 OA
ATOM     20  N   UNL     1       0.696  -5.953  -5.781  0.00  0.00    -0.284 N 
ATOM     21  H   UNL     1       0.775  -5.535  -6.653  0.00  0.00    +0.155 HD
BRANCH  20  22
ATOM     22  C   UNL     1       1.120  -7.269  -5.598  0.00  0.00    +0.033 A 
ATOM     23  C   UNL     1       0.436  -8.102  -4.720  0.00  0.00    +0.024 A 
ATOM     24  C   UNL     1       0.852  -9.402  -4.537  0.00  0.00    +0.015 A 
ATOM     25  C   UNL     1       1.963  -9.883  -5.235  0.00  0.00    +0.037 A 
ATOM     26  C   UNL     1       2.647  -9.043  -6.117  0.00  0.00    +0.015 A 
ATOM     27  C   UNL     1       2.223  -7.746  -6.299  0.00  0.00    +0.024 A 
BRANCH  25  28
ATOM     28  C   UNL     1       2.412 -11.276  -5.041  0.00  0.00    +0.246 C 
ATOM     29  O   UNL     1       2.038 -11.905  -4.070  0.00  0.00    -0.270 OA
ATOM     30  N   UNL     1       3.237 -11.849  -5.939  0.00  0.00    -0.304 N 
ATOM     31  C   UNL     1       3.531 -13.282  -5.853  0.00  0.00    +0.132 C 
ATOM     32  C   UNL     1       3.839 -11.040  -7.002  0.00  0.00    +0.132 C 
ENDBRANCH  25  28
ENDBRANCH  20  22
ENDBRANCH  17  18
ENDBRANCH  12  17
TORSDOF 4
