REMARK  Name = ZINC12941110
REMARK  5 active torsions:
REMARK  status: ('A' for Active; 'I' for Inactive)
REMARK    1  A    between atoms: C_3  and  N_11
REMARK    2  A    between atoms: C_6  and  C_7
REMARK    3  A    between atoms: C_14  and  C_17
REMARK    4  A    between atoms: C_22  and  C_25
REMARK    5  A    between atoms: C_25  and  C_26
REMARK                            x       y       z     vdW  Elec       q    Type
REMARK                         _______ _______ _______ _____ _____    ______ ____
ROOT
ATOM      1  N   UNL     1      -2.769   3.205   4.561  0.00  0.00    -0.315 N 
ATOM      2  C   UNL     1      -2.208   4.465   5.065  0.00  0.00    +0.107 C 
ATOM      3  C   UNL     1      -2.908   4.851   6.370  0.00  0.00    +0.032 C 
ATOM      4  C   UNL     1      -4.409   5.006   6.112  0.00  0.00    +0.078 C 
ATOM      5  C   UNL     1      -4.959   3.696   5.543  0.00  0.00    +0.032 C 
ATOM      6  C   UNL     1      -4.200   3.343   4.262  0.00  0.00    +0.107 C 
ENDROOT
BRANCH   4   7
ATOM      7  C   UNL     1      -5.112   5.328   7.406  0.00  0.00    +0.222 C 
ATOM      8  O   UNL     1      -5.969   4.583   7.832  0.00  0.00    -0.275 OA
ATOM      9  N   UNL     1      -4.789   6.443   8.089  0.00  0.00    -0.264 N 
ATOM     10  C   UNL     1      -5.437   6.740   9.283  0.00  0.00    +0.165 A 
ATOM     11  N   UNL     1      -5.263   7.771  10.086  0.00  0.00    -0.229 NA
ATOM     12  C   UNL     1      -5.969   7.902  11.192  0.00  0.00    +0.061 A 
ATOM     13  C   UNL     1      -6.886   6.949  11.490  0.00  0.00    +0.072 A 
ATOM     14  S   UNL     1      -6.690   5.852  10.094  0.00  0.00    -0.060 S 
ATOM     15  H   UNL     1      -4.012   7.119   7.703  0.00  0.00    +0.157 HD
BRANCH  12  16
ATOM     16  C   UNL     1      -5.763   9.085  12.103  0.00  0.00    +0.181 C 
BRANCH  16  17
ATOM     17  C   UNL     1      -4.309   9.170  12.493  0.00  0.00    +0.362 C 
ATOM     18  O   UNL     1      -3.522   8.354  12.074  0.00  0.00    -0.246 OA
ATOM     19  O   UNL     1      -3.889  10.152  13.306  0.00  0.00    -0.246 OA
ENDBRANCH  16  17
ENDBRANCH  12  16
ENDBRANCH   4   7
BRANCH   1  22
ATOM     20  C   UNL     1      -0.007   2.118   2.416  0.00  0.00    +0.017 A 
ATOM     21  C   UNL     1      -0.693   2.563   3.532  0.00  0.00    +0.044 A 
ATOM     22  C   UNL     1      -2.068   2.757   3.448  0.00  0.00    +0.121 A 
ATOM     23  N   UNL     1      -2.714   2.520   2.317  0.00  0.00    -0.240 NA
ATOM     24  C   UNL     1      -2.085   2.100   1.236  0.00  0.00    +0.125 A 
ATOM     25  C   UNL     1      -0.722   1.881   1.250  0.00  0.00    +0.073 A 
BRANCH  25  26
ATOM     26  C   UNL     1      -0.017   1.395   0.010  0.00  0.00    +0.419 C 
ATOM     27  F   UNL     1       0.002  -0.004   0.002  0.00  0.00    -0.166 F 
ATOM     28  F   UNL     1       1.296   1.879  -0.000  0.00  0.00    -0.166 F 
ATOM     29  F   UNL     1      -0.694   1.858  -1.124  0.00  0.00    -0.166 F 
ENDBRANCH  25  26
ENDBRANCH   1  22
TORSDOF 5
