REMARK  Name = ZINC33795936
REMARK  6 active torsions:
REMARK  status: ('A' for Active; 'I' for Inactive)
REMARK    1  A    between atoms: C_1  and  O_2
REMARK    2  A    between atoms: O_2  and  C_3
REMARK    3  A    between atoms: C_7  and  C_9
REMARK    4  A    between atoms: C_9  and  C_10
REMARK    5  A    between atoms: C_11  and  C_28
REMARK    6  A    between atoms: C_32  and  N_34
REMARK                            x       y       z     vdW  Elec       q    Type
REMARK                         _______ _______ _______ _____ _____    ______ ____
ROOT
ATOM      1  C   UNL     1      -1.630  -6.132   0.316  0.00  0.00    +0.077 C 
ATOM      2  C   UNL     1      -1.762  -4.627   0.350  0.00  0.00    +0.152 C 
ATOM      3  N   UNL     1      -0.454  -4.100   0.749  0.00  0.00    -0.232 N 
ATOM      4  C   UNL     1       0.389  -5.127   0.950  0.00  0.00    +0.293 C 
ATOM      5  O   UNL     1       1.548  -5.018   1.292  0.00  0.00    -0.266 OA
ATOM      6  C   UNL     1      -0.306  -6.416   0.690  0.00  0.00    +0.250 C 
ATOM      7  O   UNL     1       0.187  -7.525   0.785  0.00  0.00    -0.282 OA
ATOM      8  C   UNL     1      -0.140  -2.761   0.900  0.00  0.00    +0.169 A 
ATOM      9  N   UNL     1       1.001  -2.218   1.257  0.00  0.00    -0.224 NA
ATOM     10  C   UNL     1       1.167  -0.882   1.365  0.00  0.00    +0.080 A 
ATOM     11  C   UNL     1       2.334  -0.175   1.736  0.00  0.00    +0.032 A 
ATOM     12  C   UNL     1       2.335   1.194   1.797  0.00  0.00    +0.040 A 
ATOM     13  C   UNL     1       1.198   1.934   1.498  0.00  0.00    +0.125 A 
ATOM     14  C   UNL     1       0.037   1.274   1.131  0.00  0.00    +0.055 A 
ATOM     15  C   UNL     1       0.030  -0.098   1.068  0.00  0.00    +0.043 A 
ATOM     16  S   UNL     1      -1.183  -1.330   0.659  0.00  0.00    -0.052 S 
ATOM     17  F   UNL     1       1.224   3.283   1.565  0.00  0.00    -0.205 F 
ENDROOT
BRANCH   2  18
ATOM     18  C   UNL     1      -2.131  -4.113  -1.018  0.00  0.00    -0.020 A 
ATOM     19  C   UNL     1      -1.160  -3.993  -1.996  0.00  0.00    +0.006 A 
ATOM     20  C   UNL     1      -1.498  -3.522  -3.250  0.00  0.00    +0.003 A 
ATOM     21  C   UNL     1      -2.806  -3.171  -3.528  0.00  0.00    +0.033 A 
ATOM     22  C   UNL     1      -3.776  -3.291  -2.550  0.00  0.00    +0.127 A 
ATOM     23  C   UNL     1      -3.439  -3.767  -1.297  0.00  0.00    +0.038 A 
BRANCH  22  24
ATOM     24  N   UNL     1      -5.177  -2.916  -2.848  0.00  0.00    +0.056 N 
ATOM     25  O   UNL     1      -5.474  -2.501  -3.954  0.00  0.00    -0.126 OA
ATOM     26  O   UNL     1      -6.032  -3.022  -1.987  0.00  0.00    -0.126 OA
ENDBRANCH  22  24
ENDBRANCH   2  18
BRANCH   1  27
ATOM     27  C   UNL     1      -2.613  -7.043  -0.010  0.00  0.00    +0.195 C 
ATOM     28  O   UNL     1      -3.879  -6.625  -0.218  0.00  0.00    -0.287 OA
BRANCH  27  33
ATOM     29  C   UNL     1      -2.717 -10.772   0.431  0.00  0.00    +0.121 A 
ATOM     30  C   UNL     1      -1.649 -11.165  -0.366  0.00  0.00    +0.045 A 
ATOM     31  C   UNL     1      -0.900 -10.220  -1.044  0.00  0.00    +0.004 A 
ATOM     32  C   UNL     1      -1.211  -8.880  -0.937  0.00  0.00    +0.012 A 
ATOM     33  C   UNL     1      -2.280  -8.474  -0.132  0.00  0.00    +0.026 A 
ATOM     34  C   UNL     1      -3.036  -9.431   0.551  0.00  0.00    +0.057 A 
BRANCH  29  36
ATOM     35  C   UNL     1      -3.064 -13.072   0.924  0.00  0.00    +0.277 C 
ATOM     36  O   UNL     1      -3.449 -11.706   1.094  0.00  0.00    -0.495 OA
ENDBRANCH  29  36
ENDBRANCH  27  33
ENDBRANCH   1  27
TORSDOF 5
