REMARK  Name = ZINC12428645
REMARK  4 active torsions:
REMARK  status: ('A' for Active; 'I' for Inactive)
REMARK    1  A    between atoms: C_3  and  C_9
REMARK    2  A    between atoms: C_5  and  C_7
REMARK    3  A    between atoms: C_24  and  S_29
REMARK    4  A    between atoms: S_29  and  N_32
REMARK                            x       y       z     vdW  Elec       q    Type
REMARK                         _______ _______ _______ _____ _____    ______ ____
ROOT
ATOM      1  C   UNL     1       3.776  -2.010  -0.572  0.00  0.00    +0.105 C 
ATOM      2  C   UNL     1       2.444  -2.385  -1.127  0.00  0.00    +0.024 C 
ATOM      3  C   UNL     1       2.130  -3.750  -1.734  0.00  0.00    -0.005 C 
ATOM      4  C   UNL     1       1.122  -3.319  -2.868  0.00  0.00    +0.004 C 
ATOM      5  C   UNL     1      -0.047  -2.695  -2.068  0.00  0.00    +0.004 C 
ATOM      6  C   UNL     1       0.211  -3.026  -0.573  0.00  0.00    -0.003 C 
ATOM      7  C   UNL     1       1.086  -4.364  -0.722  0.00  0.00    +0.008 C 
ATOM      8  C   UNL     1       1.352  -2.147  -0.048  0.00  0.00    +0.029 C 
ATOM      9  C   UNL     1       1.198  -0.669  -0.013  0.00  0.00    -0.021 A 
ATOM     10  C   UNL     1       0.002  -0.004   0.002  0.00  0.00    +0.034 A 
ATOM     11  C   UNL     1      -0.017   1.382   0.010  0.00  0.00    +0.109 A 
ATOM     12  C   UNL     1       1.173   2.087   0.002  0.00  0.00    +0.030 A 
ATOM     13  C   UNL     1       2.383   1.422  -0.008  0.00  0.00    +0.025 A 
ATOM     14  C   UNL     1       2.416   0.036  -0.010  0.00  0.00    +0.031 A 
ATOM     15  N   UNL     1       3.634  -0.652   0.007  0.00  0.00    -0.336 N 
ATOM     16  H   UNL     1       4.408  -0.230   0.411  0.00  0.00    +0.147 HD
ENDROOT
BRANCH   1  19
ATOM     17  C   UNL     1       5.809  -0.907  -3.561  0.00  0.00    +0.001 A 
ATOM     18  C   UNL     1       4.861  -0.931  -2.553  0.00  0.00    +0.005 A 
ATOM     19  C   UNL     1       4.807  -1.995  -1.671  0.00  0.00    -0.026 A 
ATOM     20  C   UNL     1       5.693  -3.046  -1.797  0.00  0.00    +0.020 A 
ATOM     21  C   UNL     1       6.648  -3.030  -2.815  0.00  0.00    +0.063 A 
ATOM     22  C   UNL     1       6.700  -1.950  -3.699  0.00  0.00    +0.015 A 
BRANCH  21  23
ATOM     23  C   UNL     1       7.599  -4.152  -2.957  0.00  0.00    +0.387 C 
ATOM     24  O   UNL     1       7.552  -5.089  -2.186  0.00  0.00    -0.241 OA
ATOM     25  O   UNL     1       8.520  -4.134  -3.940  0.00  0.00    -0.241 OA
ENDBRANCH  21  23
ENDBRANCH   1  19
BRANCH  11  26
ATOM     26  S   UNL     1      -1.554   2.243   0.022  0.00  0.00    +0.075 S 
ATOM     27  O   UNL     1      -1.301   3.531  -0.523  0.00  0.00    -0.150 OA
ATOM     28  O   UNL     1      -2.519   1.359  -0.529  0.00  0.00    -0.150 OA
BRANCH  26  29
ATOM     29  N   UNL     1      -1.973   2.474   1.607  0.00  0.00    -0.184 N 
ATOM     30  C   UNL     1      -1.194   3.281   2.418  0.00  0.00    +0.235 A 
ATOM     31  N   UNL     1       0.026   3.612   2.022  0.00  0.00    -0.222 NA
ATOM     32  C   UNL     1       0.794   4.385   2.771  0.00  0.00    +0.116 A 
ATOM     33  C   UNL     1       0.312   4.841   3.988  0.00  0.00    +0.039 A 
ATOM     34  C   UNL     1      -0.967   4.471   4.375  0.00  0.00    +0.116 A 
ATOM     35  N   UNL     1      -1.685   3.699   3.576  0.00  0.00    -0.222 NA
ATOM     36  H   UNL     1      -2.765   2.044   1.967  0.00  0.00    +0.177 HD
ENDBRANCH  26  29
ENDBRANCH  11  26
TORSDOF 4
