REMARK  Name = ZINC35890866
REMARK  9 active torsions:
REMARK  status: ('A' for Active; 'I' for Inactive)
REMARK    1  A    between atoms: C_1  and  C_2
REMARK    2  A    between atoms: C_5  and  C_8
REMARK    3  A    between atoms: C_10  and  C_36
REMARK    4  A    between atoms: C_11  and  C_33
REMARK    5  A    between atoms: C_12  and  N_14
REMARK    6  A    between atoms: N_22  and  C_23
REMARK    7  A    between atoms: C_28  and  C_29
REMARK    8  A    between atoms: C_33  and  C_34
REMARK    9  A    between atoms: C_33  and  C_35
REMARK                            x       y       z     vdW  Elec       q    Type
REMARK                         _______ _______ _______ _____ _____    ______ ____
ROOT
ATOM      1  N   UNL     1      -0.853  -6.661  -1.872  0.00  0.00    -0.312 N 
ATOM      2  C   UNL     1      -2.239  -7.080  -2.127  0.00  0.00    +0.125 C 
ATOM      3  C   UNL     1      -2.893  -6.061  -3.068  0.00  0.00    +0.128 C 
ATOM      4  N   UNL     1      -1.999  -5.837  -4.213  0.00  0.00    -0.282 N 
ATOM      5  C   UNL     1      -0.614  -5.418  -3.958  0.00  0.00    +0.128 C 
ATOM      6  C   UNL     1       0.039  -6.431  -3.017  0.00  0.00    +0.125 C 
ATOM      7  C   UNL     1      -2.442  -6.012  -5.473  0.00  0.00    +0.307 C 
ATOM      8  O   UNL     1      -3.559  -6.449  -5.670  0.00  0.00    -0.252 OA
ATOM      9  N   UNL     1      -1.646  -5.702  -6.516  0.00  0.00    -0.269 N 
ATOM     10  H   UNL     1      -0.725  -5.441  -6.362  0.00  0.00    +0.156 HD
ENDROOT
BRANCH   1  15
ATOM     11  C   UNL     1      -0.166  -5.154   1.295  0.00  0.00    +0.140 A 
ATOM     12  N   UNL     1       0.481  -6.111   1.947  0.00  0.00    -0.343 N 
ATOM     13  C   UNL     1       0.716  -7.283   1.379  0.00  0.00    +0.021 A 
ATOM     14  C   UNL     1       0.280  -7.507   0.086  0.00  0.00    +0.014 A 
ATOM     15  C   UNL     1      -0.398  -6.481  -0.576  0.00  0.00    +0.129 A 
ATOM     16  N   UNL     1      -0.605  -5.331   0.057  0.00  0.00    -0.214 NA
ATOM     17  C   UNL     1       1.452  -8.361   2.132  0.00  0.00    +0.064 C 
ATOM     18  H   UNL     1       0.785  -5.949   2.854  0.00  0.00    +0.167 HD
BRANCH  11  23
ATOM     19  C   UNL     1      -1.109  -0.113   3.914  0.00  0.00    +0.044 C 
ATOM     20  C   UNL     1      -0.862  -1.432   3.229  0.00  0.00    -0.050 A 
ATOM     21  C   UNL     1      -1.313  -1.632   1.937  0.00  0.00    +0.004 A 
ATOM     22  C   UNL     1      -1.090  -2.838   1.304  0.00  0.00    +0.012 A 
ATOM     23  C   UNL     1      -0.408  -3.856   1.970  0.00  0.00    +0.017 A 
ATOM     24  C   UNL     1       0.045  -3.648   3.271  0.00  0.00    +0.012 A 
ATOM     25  C   UNL     1      -0.179  -2.436   3.892  0.00  0.00    +0.004 A 
ENDBRANCH  11  23
BRANCH  14  26
ATOM     26  C   UNL     1       0.530  -8.829  -0.593  0.00  0.00    +0.018 C 
ATOM     27  C   UNL     1      -0.756  -9.306  -1.270  0.00  0.00    +0.012 C 
ATOM     28  C   UNL     1       1.629  -8.662  -1.644  0.00  0.00    +0.012 C 
ENDBRANCH  14  26
ENDBRANCH   1  15
BRANCH   9  29
ATOM     29  C   UNL     1      -2.149  -5.758  -7.821  0.00  0.00    +0.046 A 
ATOM     30  C   UNL     1      -3.520  -5.726  -8.040  0.00  0.00    +0.024 A 
ATOM     31  C   UNL     1      -4.013  -5.781  -9.329  0.00  0.00    +0.002 A 
ATOM     32  C   UNL     1      -3.143  -5.867 -10.401  0.00  0.00    +0.001 A 
ATOM     33  C   UNL     1      -1.778  -5.900 -10.186  0.00  0.00    +0.014 A 
ATOM     34  C   UNL     1      -1.278  -5.839  -8.899  0.00  0.00    +0.076 A 
BRANCH  34  35
ATOM     35  C   UNL     1       0.211  -5.868  -8.666  0.00  0.00    +0.419 C 
ATOM     36  F   UNL     1       0.874  -5.952  -9.895  0.00  0.00    -0.166 F 
ATOM     37  F   UNL     1       0.602  -4.699  -8.004  0.00  0.00    -0.166 F 
ATOM     38  F   UNL     1       0.538  -6.980  -7.883  0.00  0.00    -0.166 F 
ENDBRANCH  34  35
ENDBRANCH   9  29
TORSDOF 5
