REMARK  Name = ZINC39733495
REMARK  9 active torsions:
REMARK  status: ('A' for Active; 'I' for Inactive)
REMARK    1  A    between atoms: C_1  and  C_2
REMARK    2  A    between atoms: C_2  and  O_3
REMARK    3  A    between atoms: O_3  and  C_4
REMARK    4  A    between atoms: C_4  and  C_6
REMARK    5  A    between atoms: C_8  and  N_18
REMARK    6  A    between atoms: C_19  and  C_21
REMARK    7  A    between atoms: C_21  and  C_23
REMARK    8  A    between atoms: C_21  and  S_24
REMARK    9  A    between atoms: S_24  and  C_25
REMARK                            x       y       z     vdW  Elec       q    Type
REMARK                         _______ _______ _______ _____ _____    ______ ____
ROOT
ATOM      1  N   UNL     1      -5.080  -1.787  -0.966  0.00  0.00    -0.301 N 
ATOM      2  C   UNL     1      -5.732  -0.689  -1.397  0.00  0.00    +0.227 C 
ATOM      3  O   UNL     1      -5.134   0.170  -2.011  0.00  0.00    -0.275 OA
ATOM      4  H   UNL     1      -5.559  -2.473  -0.475  0.00  0.00    +0.150 HD
ENDROOT
BRANCH   1   6
ATOM      5  C   UNL     1      -2.881  -2.427   0.017  0.00  0.00    +0.155 C 
ATOM      6  C   UNL     1      -3.649  -1.944  -1.239  0.00  0.00    +0.153 C 
ATOM      7  S   UNL     1      -3.322  -3.386  -2.338  0.00  0.00    -0.106 S 
ATOM      8  C   UNL     1      -2.945  -4.580  -1.079  0.00  0.00    -0.013 C 
ATOM      9  C   UNL     1      -2.772  -3.933   0.047  0.00  0.00    -0.044 C 
ATOM     10  C   UNL     1      -2.502  -4.672   1.365  0.00  0.00    +0.032 C 
ATOM     11  C   UNL     1      -3.724  -5.533   1.675  0.00  0.00    +0.004 C 
ATOM     12  C   UNL     1      -3.704  -6.839   0.918  0.00  0.00    +0.001 C 
ATOM     13  C   UNL     1      -3.990  -6.746  -0.564  0.00  0.00    +0.005 C 
ATOM     14  C   UNL     1      -2.818  -6.075  -1.287  0.00  0.00    +0.042 C 
BRANCH   5  15
ATOM     15  C   UNL     1      -1.496  -1.832   0.006  0.00  0.00    +0.317 C 
ATOM     16  O   UNL     1      -0.528  -2.555  -0.007  0.00  0.00    -0.250 OA
BRANCH  15  17
ATOM     17  O   UNL     1      -1.339  -0.499   0.012  0.00  0.00    -0.464 OA
BRANCH  17  19
ATOM     18  C   UNL     1      -0.019   1.526   0.010  0.00  0.00    +0.048 C 
ATOM     19  C   UNL     1       0.002  -0.004   0.002  0.00  0.00    +0.229 C 
ENDBRANCH  17  19
ENDBRANCH  15  17
ENDBRANCH   5  15
ENDBRANCH   1   6
BRANCH   2  20
ATOM     20  C   UNL     1      -7.204  -0.527  -1.117  0.00  0.00    +0.137 C 
ATOM     21  C   UNL     1      -7.394   0.085   0.273  0.00  0.00    +0.029 C 
BRANCH  20  22
ATOM     22  S   UNL     1      -7.941   0.564  -2.364  0.00  0.00    -0.073 S 
BRANCH  22  23
ATOM     23  C   UNL     1      -9.663   0.534  -1.993  0.00  0.00    +0.198 A 
ATOM     24  N   UNL     1     -10.239  -0.135  -1.022  0.00  0.00    -0.120 NA
ATOM     25  N   UNL     1     -11.509   0.065  -1.034  0.00  0.00    -0.107 NA
ATOM     26  C   UNL     1     -11.825   0.880  -2.023  0.00  0.00    +0.260 A 
ATOM     27  N   UNL     1     -10.648   1.206  -2.659  0.00  0.00    -0.258 N 
ATOM     28  C   UNL     1     -10.654   2.053  -3.736  0.00  0.00    +0.037 A 
ATOM     29  C   UNL     1     -11.829   2.564  -4.159  0.00  0.00    +0.039 A 
ATOM     30  C   UNL     1     -13.020   2.212  -3.483  0.00  0.00    +0.278 A 
ATOM     31  O   UNL     1     -14.204   2.719  -3.901  0.00  0.00    -0.265 OA
ATOM     32  N   UNL     1     -12.988   1.390  -2.456  0.00  0.00    -0.171 NA
ATOM     33  C   UNL     1     -11.609   3.469  -5.351  0.00  0.00    +0.043 C 
ATOM     34  C   UNL     1     -10.098   3.788  -5.339  0.00  0.00    +0.011 C 
ATOM     35  C   UNL     1      -9.520   2.561  -4.599  0.00  0.00    +0.055 C 
ENDBRANCH  22  23
ENDBRANCH  20  22
ENDBRANCH   2  20
TORSDOF 7
