REMARK  Name = ZINC39733506
REMARK  9 active torsions:
REMARK  status: ('A' for Active; 'I' for Inactive)
REMARK    1  A    between atoms: C_1  and  C_2
REMARK    2  A    between atoms: C_2  and  O_3
REMARK    3  A    between atoms: O_3  and  C_4
REMARK    4  A    between atoms: C_4  and  C_6
REMARK    5  A    between atoms: C_8  and  N_17
REMARK    6  A    between atoms: C_18  and  C_20
REMARK    7  A    between atoms: C_20  and  C_22
REMARK    8  A    between atoms: C_20  and  S_23
REMARK    9  A    between atoms: S_23  and  C_24
REMARK                            x       y       z     vdW  Elec       q    Type
REMARK                         _______ _______ _______ _____ _____    ______ ____
ROOT
ATOM      1  N   UNL     1      -0.764  -1.801  -3.508  0.00  0.00    -0.301 N 
ATOM      2  C   UNL     1      -1.436  -0.743  -4.002  0.00  0.00    +0.227 C 
ATOM      3  O   UNL     1      -0.863   0.068  -4.699  0.00  0.00    -0.275 OA
ATOM      4  H   UNL     1      -1.222  -2.450  -2.951  0.00  0.00    +0.150 HD
ENDROOT
BRANCH   1   6
ATOM      5  C   UNL     1       1.468  -2.353  -2.550  0.00  0.00    +0.155 C 
ATOM      6  C   UNL     1       0.658  -1.973  -3.813  0.00  0.00    +0.153 C 
ATOM      7  S   UNL     1       0.960  -3.493  -4.808  0.00  0.00    -0.106 S 
ATOM      8  C   UNL     1       1.374  -4.595  -3.476  0.00  0.00    -0.013 C 
ATOM      9  C   UNL     1       1.591  -3.849  -2.401  0.00  0.00    -0.044 C 
ATOM     10  C   UNL     1       1.957  -4.487  -1.063  0.00  0.00    +0.032 C 
ATOM     11  C   UNL     1       1.573  -5.966  -1.091  0.00  0.00    +0.005 C 
ATOM     12  C   UNL     1       2.178  -6.628  -2.333  0.00  0.00    +0.005 C 
ATOM     13  C   UNL     1       1.454  -6.094  -3.568  0.00  0.00    +0.042 C 
BRANCH   5  14
ATOM     14  C   UNL     1       0.775  -1.794  -1.334  0.00  0.00    +0.317 C 
ATOM     15  O   UNL     1      -0.116  -2.415  -0.807  0.00  0.00    -0.250 OA
BRANCH  14  16
ATOM     16  O   UNL     1       1.149  -0.604  -0.837  0.00  0.00    -0.464 OA
BRANCH  16  18
ATOM     17  C   UNL     1       1.011   1.226   0.735  0.00  0.00    +0.048 C 
ATOM     18  C   UNL     1       0.450  -0.134   0.317  0.00  0.00    +0.229 C 
ENDBRANCH  16  18
ENDBRANCH  14  16
ENDBRANCH   5  14
ENDBRANCH   1   6
BRANCH   2  19
ATOM     19  C   UNL     1      -2.900  -0.566  -3.689  0.00  0.00    +0.137 C 
ATOM     20  C   UNL     1      -3.051   0.150  -2.346  0.00  0.00    +0.029 C 
BRANCH  19  21
ATOM     21  S   UNL     1      -3.683   0.422  -4.993  0.00  0.00    -0.073 S 
BRANCH  21  22
ATOM     22  C   UNL     1      -5.392   0.413  -4.567  0.00  0.00    +0.198 A 
ATOM     23  N   UNL     1      -5.933  -0.180  -3.529  0.00  0.00    -0.120 NA
ATOM     24  N   UNL     1      -7.205   0.013  -3.516  0.00  0.00    -0.107 NA
ATOM     25  C   UNL     1      -7.555   0.749  -4.554  0.00  0.00    +0.260 A 
ATOM     26  N   UNL     1      -6.402   1.028  -5.251  0.00  0.00    -0.258 N 
ATOM     27  C   UNL     1      -6.440   1.790  -6.393  0.00  0.00    +0.037 A 
ATOM     28  C   UNL     1      -7.625   2.255  -6.822  0.00  0.00    +0.039 A 
ATOM     29  C   UNL     1      -8.795   1.957  -6.078  0.00  0.00    +0.278 A 
ATOM     30  O   UNL     1      -9.993   2.429  -6.498  0.00  0.00    -0.265 OA
ATOM     31  N   UNL     1      -8.732   1.223  -4.989  0.00  0.00    -0.171 NA
ATOM     32  C   UNL     1      -7.777   3.078  -8.073  0.00  0.00    +0.042 C 
ATOM     33  C   UNL     1      -6.434   3.667  -8.498  0.00  0.00    +0.005 C 
ATOM     34  C   UNL     1      -5.402   2.533  -8.537  0.00  0.00    +0.006 C 
ATOM     35  C   UNL     1      -5.143   2.072  -7.103  0.00  0.00    +0.054 C 
ENDBRANCH  21  22
ENDBRANCH  19  21
ENDBRANCH   2  19
TORSDOF 7
