REMARK  Name = ZINC09088215
REMARK  7 active torsions:
REMARK  status: ('A' for Active; 'I' for Inactive)
REMARK    1  A    between atoms: C_1  and  C_2
REMARK    2  A    between atoms: C_2  and  C_3
REMARK    3  A    between atoms: C_2  and  C_4
REMARK    4  A    between atoms: C_2  and  C_5
REMARK    5  A    between atoms: C_5  and  C_7
REMARK    6  A    between atoms: C_9  and  C_31
REMARK    7  A    between atoms: C_31  and  C_33
REMARK                            x       y       z     vdW  Elec       q    Type
REMARK                         _______ _______ _______ _____ _____    ______ ____
ROOT
ATOM      1  C   UNL     1      -4.147  -0.350   0.586  0.00  0.00    +0.136 C 
ATOM      2  C   UNL     1      -3.247   0.071   1.774  0.00  0.00    +0.109 C 
ATOM      3  C   UNL     1      -2.363   1.181   1.173  0.00  0.00    +0.107 C 
ATOM      4  C   UNL     1      -1.009   1.172   1.789  0.00  0.00    -0.008 A 
ATOM      5  C   UNL     1      -0.007   0.222   1.784  0.00  0.00    +0.006 A 
ATOM      6  C   UNL     1       1.158   0.525   2.479  0.00  0.00    +0.000 A 
ATOM      7  C   UNL     1       1.304   1.718   3.157  0.00  0.00    +0.002 A 
ATOM      8  C   UNL     1       0.302   2.673   3.174  0.00  0.00    +0.023 A 
ATOM      9  C   UNL     1      -0.871   2.386   2.476  0.00  0.00    +0.038 A 
ATOM     10  N   UNL     1      -2.013   3.149   2.324  0.00  0.00    -0.284 N 
ATOM     11  C   UNL     1      -2.911   2.553   1.508  0.00  0.00    +0.231 C 
ATOM     12  O   UNL     1      -3.947   3.044   1.116  0.00  0.00    -0.274 OA
ATOM     13  C   UNL     1      -2.393   0.961  -0.335  0.00  0.00    +0.107 C 
ATOM     14  C   UNL     1      -3.205  -1.011  -1.700  0.00  0.00    +0.054 C 
ATOM     15  C   UNL     1      -2.059  -1.044  -2.402  0.00  0.00    +0.022 C 
ATOM     16  C   UNL     1      -0.901  -0.249  -1.948  0.00  0.00    -0.019 A 
ATOM     17  C   UNL     1      -1.051   0.737  -0.964  0.00  0.00    -0.020 A 
ATOM     18  C   UNL     1       0.031   1.524  -0.630  0.00  0.00    +0.006 A 
ATOM     19  C   UNL     1       1.270   1.300  -1.205  0.00  0.00    +0.000 A 
ATOM     20  C   UNL     1       1.436   0.284  -2.131  0.00  0.00    +0.001 A 
ATOM     21  C   UNL     1       0.356  -0.481  -2.512  0.00  0.00    +0.008 A 
ATOM     22  H   UNL     1      -2.154   4.010   2.750  0.00  0.00    +0.155 HD
ATOM     23  N   UNL     1      -2.988  -0.348  -0.347  0.00  0.00    -0.384 NA
ATOM     24  H   UNL     1      -2.286  -0.949   0.102  0.00  0.00    +0.127 HD
ENDROOT
BRANCH   1  25
ATOM     25  C   UNL     1      -5.364   0.515   0.438  0.00  0.00    +0.158 C 
ATOM     26  O   UNL     1      -5.286   1.573  -0.138  0.00  0.00    -0.295 OA
BRANCH  25  28
ATOM     27  C   UNL     1      -7.710   1.188   0.872  0.00  0.00    +0.018 C 
ATOM     28  C   UNL     1      -6.683   0.062   1.008  0.00  0.00    +0.022 C 
ATOM     29  C   UNL     1      -7.173  -1.170   0.244  0.00  0.00    +0.018 C 
ATOM     30  C   UNL     1      -6.507  -0.291   2.486  0.00  0.00    +0.018 C 
ENDBRANCH  25  28
ENDBRANCH   1  25
BRANCH   2  31
ATOM     31  C   UNL     1      -4.075   0.587   2.925  0.00  0.00    +0.188 C 
ATOM     32  O   UNL     1      -4.594   1.680   2.857  0.00  0.00    -0.290 OA
BRANCH  31  33
ATOM     33  C   UNL     1      -4.254  -0.241   4.134  0.00  0.00    +0.106 A 
ATOM     34  C   UNL     1      -5.095   0.200   5.157  0.00  0.00    +0.031 A 
ATOM     35  C   UNL     1      -5.255  -0.590   6.283  0.00  0.00    +0.004 A 
ATOM     36  C   UNL     1      -4.562  -1.789   6.354  0.00  0.00    +0.020 A 
ATOM     37  C   UNL     1      -3.740  -2.163   5.303  0.00  0.00    +0.111 A 
ATOM     38  N   UNL     1      -3.608  -1.397   4.242  0.00  0.00    -0.252 NA
ENDBRANCH  31  33
ENDBRANCH   2  31
TORSDOF 4
