REMARK  Name = ZINC62626121
REMARK  8 active torsions:
REMARK  status: ('A' for Active; 'I' for Inactive)
REMARK    1  A    between atoms: N_4  and  C_6
REMARK    2  A    between atoms: C_9  and  C_29
REMARK    3  A    between atoms: C_11  and  N_12
REMARK    4  A    between atoms: N_12  and  S_13
REMARK    5  A    between atoms: S_13  and  C_16
REMARK    6  A    between atoms: C_19  and  S_22
REMARK    7  A    between atoms: S_22  and  N_25
REMARK    8  A    between atoms: N_25  and  C_26
REMARK                            x       y       z     vdW  Elec       q    Type
REMARK                         _______ _______ _______ _____ _____    ______ ____
ROOT
ATOM      1  S   UNL     1      -0.316  -3.332   2.938  0.00  0.00    +0.092 S 
ATOM      2  O   UNL     1      -1.062  -4.287   2.196  0.00  0.00    -0.148 OA
ATOM      3  O   UNL     1       0.766  -3.700   3.782  0.00  0.00    -0.148 OA
ENDROOT
BRANCH   1   4
ATOM      4  C   UNL     1      -1.470  -2.465   3.948  0.00  0.00    +0.110 A 
ATOM      5  C   UNL     1      -1.044  -1.838   5.103  0.00  0.00    +0.031 A 
ATOM      6  C   UNL     1      -1.949  -1.158   5.896  0.00  0.00    +0.030 A 
ATOM      7  C   UNL     1      -3.282  -1.105   5.532  0.00  0.00    +0.105 A 
ATOM      8  C   UNL     1      -3.709  -1.731   4.376  0.00  0.00    +0.030 A 
ATOM      9  C   UNL     1      -2.802  -2.408   3.582  0.00  0.00    +0.031 A 
BRANCH   7  10
ATOM     10  S   UNL     1      -4.437  -0.239   6.543  0.00  0.00    +0.059 S 
ATOM     11  O   UNL     1      -5.714  -0.799   6.271  0.00  0.00    -0.153 OA
ATOM     12  O   UNL     1      -3.884  -0.203   7.852  0.00  0.00    -0.153 OA
BRANCH  10  13
ATOM     13  N   UNL     1      -4.481   1.326   6.005  0.00  0.00    -0.187 NA
ATOM     14  H   UNL     1      -4.176   2.046   6.580  0.00  0.00    +0.148 HD
BRANCH  13  15
ATOM     15  C   UNL     1      -4.983   1.625   4.661  0.00  0.00    +0.077 C 
ATOM     16  C   UNL     1      -4.341   2.794   3.912  0.00  0.00    +0.022 C 
ATOM     17  C   UNL     1      -5.759   2.929   4.471  0.00  0.00    +0.022 C 
ENDBRANCH  13  15
ENDBRANCH  10  13
ENDBRANCH   7  10
ENDBRANCH   1   4
BRANCH   1  18
ATOM     18  N   UNL     1       0.286  -2.247   1.841  0.00  0.00    -0.096 NA
BRANCH  18  24
ATOM     19  C   UNL     1       1.744  -1.746  -0.024  0.00  0.00    +0.071 A 
ATOM     20  C   UNL     1       2.689  -2.159  -0.951  0.00  0.00    +0.028 A 
ATOM     21  C   UNL     1       3.120  -3.472  -0.962  0.00  0.00    +0.014 A 
ATOM     22  C   UNL     1       2.611  -4.378  -0.049  0.00  0.00    +0.057 A 
ATOM     23  C   UNL     1       1.669  -3.976   0.879  0.00  0.00    +0.041 A 
ATOM     24  C   UNL     1       1.235  -2.658   0.900  0.00  0.00    +0.099 A 
BRANCH  19  28
ATOM     25  C   UNL     1      -0.016   1.345   0.009  0.00  0.00    +0.019 A 
ATOM     26  C   UNL     1       1.322   1.786  -0.001  0.00  0.00    +0.019 A 
ATOM     27  C   UNL     1       2.109   0.690  -0.014  0.00  0.00    +0.091 A 
ATOM     28  N   UNL     1       1.305  -0.413  -0.013  0.00  0.00    -0.321 N 
ATOM     29  C   UNL     1       0.002  -0.004   0.002  0.00  0.00    +0.091 A 
ENDBRANCH  19  28
BRANCH  22  30
ATOM     30  C   UNL     1       3.084  -5.809  -0.067  0.00  0.00    +0.417 C 
ATOM     31  F   UNL     1       4.029  -5.974  -1.085  0.00  0.00    -0.166 F 
ATOM     32  F   UNL     1       3.667  -6.122   1.165  0.00  0.00    -0.166 F 
ATOM     33  F   UNL     1       1.996  -6.657  -0.298  0.00  0.00    -0.166 F 
ENDBRANCH  22  30
ENDBRANCH  18  24
ENDBRANCH   1  18
TORSDOF 8
