REMARK  Name = ZINC41006337
REMARK  13 active torsions:
REMARK  status: ('A' for Active; 'I' for Inactive)
REMARK    1  A    between atoms: C_1  and  C_2
REMARK    2  A    between atoms: C_2  and  C_3
REMARK    3  A    between atoms: C_6  and  C_9
REMARK    4  A    between atoms: C_11  and  C_32
REMARK    5  A    between atoms: C_16  and  C_30
REMARK    6  A    between atoms: C_16  and  O_31
REMARK    7  A    between atoms: C_17  and  C_19
REMARK    8  A    between atoms: N_21  and  C_22
REMARK    9  A    between atoms: C_25  and  C_29
REMARK   10  A    between atoms: C_27  and  C_28
REMARK   11  A    between atoms: N_34  and  C_35
REMARK   12  A    between atoms: C_38  and  C_42
REMARK   13  A    between atoms: C_40  and  C_41
REMARK                            x       y       z     vdW  Elec       q    Type
REMARK                         _______ _______ _______ _____ _____    ______ ____
ROOT
ATOM      1  C   UNL     1      -5.118  -2.118   0.192  0.00  0.00    +0.053 C 
ATOM      2  C   UNL     1      -4.849  -3.394  -0.611  0.00  0.00    +0.149 C 
ATOM      3  C   UNL     1      -6.158  -4.128  -0.803  0.00  0.00    +0.148 C 
ATOM      4  O   UNL     1      -6.259  -5.298  -0.522  0.00  0.00    -0.296 OA
ATOM      5  C   UNL     1      -7.337  -3.358  -1.354  0.00  0.00    +0.110 C 
ATOM      6  C   UNL     1      -7.517  -2.082  -0.524  0.00  0.00    +0.082 C 
ATOM      7  C   UNL     1      -6.204  -1.297  -0.507  0.00  0.00    +0.115 C 
ATOM      8  C   UNL     1      -8.618  -1.220  -1.145  0.00  0.00    +0.042 C 
ENDROOT
BRANCH   1  12
ATOM      9  C   UNL     1      -1.531   0.187   0.448  0.00  0.00    -0.048 A 
ATOM     10  C   UNL     1      -2.298  -0.025   1.577  0.00  0.00    +0.004 A 
ATOM     11  C   UNL     1      -3.459  -0.770   1.495  0.00  0.00    +0.004 A 
ATOM     12  C   UNL     1      -3.853  -1.304   0.282  0.00  0.00    -0.042 A 
ATOM     13  C   UNL     1      -3.086  -1.091  -0.849  0.00  0.00    +0.004 A 
ATOM     14  C   UNL     1      -1.928  -0.342  -0.767  0.00  0.00    +0.004 A 
BRANCH   9  16
ATOM     15  C   UNL     1      -0.588   2.475   0.291  0.00  0.00    +0.009 C 
ATOM     16  C   UNL     1      -0.265   1.000   0.538  0.00  0.00    +0.032 C 
ENDBRANCH   9  16
ENDBRANCH   1  12
BRANCH   7  17
ATOM     17  C   UNL     1      -5.777  -1.005  -1.923  0.00  0.00    +0.224 C 
ATOM     18  O   UNL     1      -5.573  -1.917  -2.695  0.00  0.00    -0.275 OA
ATOM     19  N   UNL     1      -5.623   0.271  -2.330  0.00  0.00    -0.285 N 
ATOM     20  H   UNL     1      -5.815   1.001  -1.721  0.00  0.00    +0.155 HD
BRANCH  19  21
ATOM     21  C   UNL     1      -5.186   0.541  -3.632  0.00  0.00    +0.036 A 
ATOM     22  C   UNL     1      -5.281  -0.435  -4.615  0.00  0.00    +0.024 A 
ATOM     23  C   UNL     1      -4.848  -0.165  -5.898  0.00  0.00    +0.005 A 
ATOM     24  C   UNL     1      -4.321   1.076  -6.205  0.00  0.00    -0.050 A 
ATOM     25  C   UNL     1      -4.225   2.050  -5.228  0.00  0.00    +0.008 A 
ATOM     26  C   UNL     1      -4.662   1.788  -3.944  0.00  0.00    -0.029 A 
ATOM     27  C   UNL     1      -4.563   2.853  -2.882  0.00  0.00    +0.045 C 
ATOM     28  C   UNL     1      -3.849   1.368  -7.606  0.00  0.00    +0.044 C 
ENDBRANCH  19  21
ENDBRANCH   7  17
BRANCH   2  29
ATOM     29  C   UNL     1      -3.879  -4.270   0.140  0.00  0.00    +0.228 C 
ATOM     30  O   UNL     1      -3.444  -3.910   1.214  0.00  0.00    -0.275 OA
ATOM     31  N   UNL     1      -3.495  -5.452  -0.380  0.00  0.00    -0.285 N 
ATOM     32  H   UNL     1      -3.775  -5.702  -1.275  0.00  0.00    +0.155 HD
BRANCH  31  33
ATOM     33  C   UNL     1      -2.692  -6.319   0.369  0.00  0.00    +0.036 A 
ATOM     34  C   UNL     1      -1.816  -5.809   1.319  0.00  0.00    +0.024 A 
ATOM     35  C   UNL     1      -1.025  -6.668   2.057  0.00  0.00    +0.005 A 
ATOM     36  C   UNL     1      -1.104  -8.033   1.851  0.00  0.00    -0.050 A 
ATOM     37  C   UNL     1      -1.974  -8.543   0.905  0.00  0.00    +0.008 A 
ATOM     38  C   UNL     1      -2.773  -7.690   0.168  0.00  0.00    -0.029 A 
ATOM     39  C   UNL     1      -3.726  -8.248  -0.857  0.00  0.00    +0.045 C 
ATOM     40  C   UNL     1      -0.239  -8.966   2.658  0.00  0.00    +0.044 C 
ENDBRANCH  31  33
ENDBRANCH   2  29
BRANCH   6  41
ATOM     41  O   UNL     1      -7.880  -2.431   0.813  0.00  0.00    -0.388 OA
ATOM     42  H   UNL     1      -8.705  -2.932   0.878  0.00  0.00    +0.210 HD
ENDBRANCH   6  41
TORSDOF 7
