REMARK  Name = ZINC22972597
REMARK  6 active torsions:
REMARK  status: ('A' for Active; 'I' for Inactive)
REMARK    1  A    between atoms: C_1  and  C_2
REMARK    2  A    between atoms: C_14  and  C_15
REMARK    3  A    between atoms: C_20  and  C_32
REMARK    4  A    between atoms: C_21  and  C_23
REMARK    5  A    between atoms: N_28  and  C_29
REMARK    6  A    between atoms: C_29  and  C_30
REMARK                            x       y       z     vdW  Elec       q    Type
REMARK                         _______ _______ _______ _____ _____    ______ ____
ROOT
ATOM      1  C   UNL     1       1.128   8.692   0.036  0.00  0.00    +0.285 C 
ATOM      2  O   UNL     1       0.527   9.751   0.047  0.00  0.00    -0.266 OA
ATOM      3  N   UNL     1       2.475   8.682   0.023  0.00  0.00    -0.258 N 
ATOM      4  C   UNL     1       3.178   9.877   0.022  0.00  0.00    +0.166 A 
ATOM      5  N   UNL     1       2.710  11.113   0.027  0.00  0.00    -0.229 NA
ATOM      6  C   UNL     1       3.515  12.150   0.030  0.00  0.00    +0.058 A 
ATOM      7  C   UNL     1       4.868  11.917   0.016  0.00  0.00    +0.081 A 
ATOM      8  S   UNL     1       4.895  10.130   0.007  0.00  0.00    -0.049 S 
ATOM      9  C   UNL     1       2.970  13.555   0.042  0.00  0.00    +0.067 C 
ATOM     10  H   UNL     1       3.018   7.725   0.013  0.00  0.00    +0.157 HD
ENDROOT
BRANCH   1  24
ATOM     11  C   UNL     1      -1.969   8.437   0.064  0.00  0.00    +0.048 C 
ATOM     12  C   UNL     1      -0.970   7.309   0.049  0.00  0.00    +0.008 A 
ATOM     13  C   UNL     1      -1.263   5.922   0.045  0.00  0.00    +0.024 A 
ATOM     14  C   UNL     1      -2.468   5.190   0.053  0.00  0.00    +0.012 A 
ATOM     15  C   UNL     1      -2.456   3.837   0.046  0.00  0.00    +0.009 A 
ATOM     16  C   UNL     1      -1.232   3.135   0.031  0.00  0.00    -0.014 A 
ATOM     17  C   UNL     1      -1.207   1.731   0.017  0.00  0.00    +0.008 A 
ATOM     18  C   UNL     1      -0.013   1.076   0.008  0.00  0.00    +0.001 A 
ATOM     19  C   UNL     1       1.189   1.778   0.000  0.00  0.00    +0.001 A 
ATOM     20  C   UNL     1       1.202   3.141   0.007  0.00  0.00    +0.012 A 
ATOM     21  C   UNL     1      -0.009   3.848   0.023  0.00  0.00    +0.025 A 
ATOM     22  C   UNL     1      -0.031   5.260   0.030  0.00  0.00    +0.144 A 
ATOM     23  O   UNL     1       0.937   6.195   0.025  0.00  0.00    -0.449 OA
ATOM     24  C   UNL     1       0.384   7.426   0.036  0.00  0.00    +0.194 A 
ENDBRANCH   1  24
BRANCH   7  25
ATOM     25  C   UNL     1       5.986  12.874   0.010  0.00  0.00    +0.174 A 
ATOM     26  N   UNL     1       5.877  14.177   0.011  0.00  0.00    -0.128 NA
ATOM     27  N   UNL     1       7.169  14.720   0.007  0.00  0.00    -0.121 NA
ATOM     28  C   UNL     1       8.042  13.692  -0.006  0.00  0.00    +0.203 A 
ATOM     29  S   UNL     1       9.749  13.818  -0.022  0.00  0.00    -0.009 SA
ATOM     30  N   UNL     1       7.329  12.548  -0.004  0.00  0.00    -0.297 N 
BRANCH  30  31
ATOM     31  C   UNL     1       7.883  11.192  -0.015  0.00  0.00    +0.152 C 
BRANCH  31  32
ATOM     32  C   UNL     1       8.059  10.733  -1.439  0.00  0.00    -0.013 C 
ATOM     33  C   UNL     1       9.230  10.315  -1.853  0.00  0.00    +0.005 C 
ENDBRANCH  31  32
ENDBRANCH  30  31
ENDBRANCH   7  25
TORSDOF 4
