REMARK  Name = ZINC38076220
REMARK  3 active torsions:
REMARK  status: ('A' for Active; 'I' for Inactive)
REMARK    1  A    between atoms: C_3  and  N_8
REMARK    2  A    between atoms: N_11  and  C_12
REMARK    3  A    between atoms: C_17  and  N_18
REMARK                            x       y       z     vdW  Elec       q    Type
REMARK                         _______ _______ _______ _____ _____    ______ ____
ROOT
ATOM      1  N   UNL     1       3.580   2.121   0.035  0.00  0.00    -0.269 N 
ATOM      2  C   UNL     1       4.758   1.470   0.113  0.00  0.00    +0.308 C 
ATOM      3  O   UNL     1       4.780   0.254   0.143  0.00  0.00    -0.252 OA
ATOM      4  N   UNL     1       5.911   2.166   0.160  0.00  0.00    -0.267 N 
ATOM      5  H   UNL     1       3.565   3.086  -0.064  0.00  0.00    +0.156 HD
ATOM      6  H   UNL     1       5.891   3.135   0.203  0.00  0.00    +0.156 HD
ENDROOT
BRANCH   4   7
ATOM      7  C   UNL     1       7.141   1.489   0.144  0.00  0.00    +0.059 A 
ATOM      8  C   UNL     1       7.253   0.241   0.738  0.00  0.00    +0.074 A 
ATOM      9  C   UNL     1       8.466  -0.428   0.723  0.00  0.00    +0.168 A 
ATOM     10  C   UNL     1       9.574   0.154   0.113  0.00  0.00    +0.168 A 
ATOM     11  C   UNL     1       9.463   1.401  -0.481  0.00  0.00    +0.074 A 
ATOM     12  C   UNL     1       8.248   2.069  -0.472  0.00  0.00    +0.050 A 
ATOM     13  O   UNL     1      10.636  -0.697   0.234  0.00  0.00    -0.453 OA
ATOM     14  C   UNL     1      10.272  -1.620   1.278  0.00  0.00    +0.466 C 
ATOM     15  O   UNL     1       8.834  -1.643   1.227  0.00  0.00    -0.453 OA
BRANCH  12  16
ATOM     16  N   UNL     1       8.135   3.328  -1.078  0.00  0.00    -0.356 N 
ATOM     17  H   UNL     1       7.285   3.796  -1.068  0.00  0.00    +0.142 HD
ATOM     18  H   UNL     1       8.906   3.731  -1.506  0.00  0.00    +0.142 HD
ENDBRANCH  12  16
ENDBRANCH   4   7
BRANCH   1  21
ATOM     19  C   UNL     1       1.103  -0.442   0.941  0.00  0.00    +0.005 A 
ATOM     20  C   UNL     1       2.289   0.264   0.882  0.00  0.00    +0.023 A 
ATOM     21  C   UNL     1       2.380   1.405   0.095  0.00  0.00    +0.037 A 
ATOM     22  C   UNL     1       1.277   1.833  -0.632  0.00  0.00    +0.061 A 
ATOM     23  C   UNL     1       0.091   1.123  -0.569  0.00  0.00    +0.125 A 
ATOM     24  C   UNL     1       0.005  -0.014   0.217  0.00  0.00    +0.038 A 
ATOM     25  F   UNL     1      -0.983   1.539  -1.275  0.00  0.00    -0.205 F 
ENDBRANCH   1  21
TORSDOF 3
