REMARK  Name = ZINC12379053
REMARK  3 active torsions:
REMARK  status: ('A' for Active; 'I' for Inactive)
REMARK    1  A    between atoms: C_6  and  C_22
REMARK    2  A    between atoms: C_7  and  N_9
REMARK    3  A    between atoms: C_10  and  C_12
REMARK                            x       y       z     vdW  Elec       q    Type
REMARK                         _______ _______ _______ _____ _____    ______ ____
ROOT
ATOM      1  C   UNL     1       1.382   2.042  -0.085  0.00  0.00    +0.005 C 
ATOM      2  C   UNL     1       2.194   1.371  -1.196  0.00  0.00    +0.005 C 
ATOM      3  C   UNL     1       2.412  -0.104  -0.828  0.00  0.00    +0.043 C 
ATOM      4  C   UNL     1       1.099  -0.683  -0.401  0.00  0.00    -0.004 A 
ATOM      5  C   UNL     1      -0.021  -0.005  -0.069  0.00  0.00    -0.023 A 
ATOM      6  C   UNL     1      -1.156  -0.831   0.307  0.00  0.00    +0.068 A 
ATOM      7  C   UNL     1      -0.981  -2.208   0.290  0.00  0.00    +0.084 A 
ATOM      8  S   UNL     1       0.665  -2.390  -0.219  0.00  0.00    -0.077 S 
ATOM      9  C   UNL     1      -0.055   1.518  -0.100  0.00  0.00    +0.037 C 
ENDROOT
BRANCH   6  10
ATOM     10  C   UNL     1      -2.438  -0.232   0.690  0.00  0.00    +0.244 C 
ATOM     11  O   UNL     1      -3.284  -0.012  -0.157  0.00  0.00    -0.270 OA
ATOM     12  N   UNL     1      -2.681   0.073   1.980  0.00  0.00    -0.325 N 
ATOM     13  H   UNL     1      -2.007  -0.103   2.655  0.00  0.00    +0.145 HD
ATOM     14  H   UNL     1      -3.529   0.469   2.233  0.00  0.00    +0.145 HD
ENDBRANCH   6  10
BRANCH   7  15
ATOM     15  N   UNL     1      -1.900  -3.197   0.603  0.00  0.00    -0.279 N 
ATOM     16  C   UNL     1      -1.546  -4.495   0.528  0.00  0.00    +0.221 C 
ATOM     17  O   UNL     1      -0.422  -4.798   0.186  0.00  0.00    -0.275 OA
ATOM     18  H   UNL     1      -2.799  -2.955   0.877  0.00  0.00    +0.155 HD
BRANCH  16  19
ATOM     19  C   UNL     1      -2.545  -5.570   0.869  0.00  0.00    +0.079 C 
ATOM     20  C   UNL     1      -1.822  -6.908   1.150  0.00  0.00    +0.016 C 
ATOM     21  C   UNL     1      -2.371  -7.887   0.069  0.00  0.00    -0.010 C 
ATOM     22  C   UNL     1      -1.752  -7.379  -1.269  0.00  0.00    +0.004 C 
ATOM     23  C   UNL     1      -2.476  -6.021  -1.554  0.00  0.00    +0.004 C 
ATOM     24  C   UNL     1      -3.462  -5.868  -0.356  0.00  0.00    +0.001 C 
ATOM     25  C   UNL     1      -3.844  -7.364  -0.076  0.00  0.00    +0.008 C 
ENDBRANCH  16  19
ENDBRANCH   7  15
TORSDOF 3
