REMARK  Name = ZINC12134975
REMARK  10 active torsions:
REMARK  status: ('A' for Active; 'I' for Inactive)
REMARK    1  A    between atoms: C_1  and  C_2
REMARK    2  A    between atoms: C_2  and  C_4
REMARK    3  A    between atoms: C_2  and  N_16
REMARK    4  A    between atoms: C_7  and  C_10
REMARK    5  A    between atoms: C_17  and  C_19
REMARK    6  A    between atoms: C_19  and  S_20
REMARK    7  A    between atoms: S_20  and  C_21
REMARK    8  A    between atoms: C_24  and  C_32
REMARK    9  A    between atoms: N_25  and  C_26
REMARK   10  A    between atoms: C_32  and  N_67
REMARK                            x       y       z     vdW  Elec       q    Type
REMARK                         _______ _______ _______ _____ _____    ______ ____
ROOT
ATOM      1  C   UNL     1      -3.105   2.918   5.199  0.00  0.00    +0.173 C 
ENDROOT
BRANCH   1   3
ATOM      2  N   UNL     1      -4.140   3.885   7.227  0.00  0.00    -0.308 N 
ATOM      3  C   UNL     1      -4.090   2.873   6.338  0.00  0.00    +0.224 C 
ATOM      4  O   UNL     1      -4.838   1.926   6.456  0.00  0.00    -0.275 OA
ATOM      5  H   UNL     1      -3.542   4.643   7.133  0.00  0.00    +0.149 HD
BRANCH   2   7
ATOM      6  C   UNL     1      -4.499   3.046   9.496  0.00  0.00    +0.033 C 
ATOM      7  C   UNL     1      -5.098   3.841   8.334  0.00  0.00    +0.100 C 
BRANCH   7   8
ATOM      8  C   UNL     1      -5.403   5.245   8.791  0.00  0.00    -0.027 A 
ATOM      9  C   UNL     1      -4.387   6.180   8.870  0.00  0.00    +0.006 A 
ATOM     10  C   UNL     1      -4.661   7.468   9.283  0.00  0.00    +0.009 A 
ATOM     11  C   UNL     1      -5.963   7.823   9.631  0.00  0.00    -0.018 A 
ATOM     12  C   UNL     1      -6.982   6.875   9.554  0.00  0.00    +0.009 A 
ATOM     13  C   UNL     1      -6.697   5.591   9.135  0.00  0.00    +0.006 A 
BRANCH  11  14
ATOM     14  C   UNL     1      -6.263   9.204  10.081  0.00  0.00    -0.018 A 
ATOM     15  C   UNL     1      -7.566   9.560  10.424  0.00  0.00    +0.008 A 
ATOM     16  C   UNL     1      -7.839  10.846  10.847  0.00  0.00    +0.001 A 
ATOM     17  C   UNL     1      -6.823  11.782  10.921  0.00  0.00    +0.000 A 
ATOM     18  C   UNL     1      -5.529  11.435  10.577  0.00  0.00    +0.001 A 
ATOM     19  C   UNL     1      -5.244  10.152  10.157  0.00  0.00    +0.008 A 
ENDBRANCH  11  14
ENDBRANCH   7   8
ENDBRANCH   2   7
ENDBRANCH   1   3
BRANCH   1  20
ATOM     20  S   UNL     1      -3.281   1.427   4.189  0.00  0.00    -0.076 S 
BRANCH  20  21
ATOM     21  C   UNL     1      -2.048   1.736   2.969  0.00  0.00    +0.197 A 
ATOM     22  N   UNL     1      -1.266   2.788   2.898  0.00  0.00    -0.122 NA
ATOM     23  N   UNL     1      -0.482   2.683   1.886  0.00  0.00    -0.135 NA
ATOM     24  C   UNL     1      -0.718   1.572   1.248  0.00  0.00    +0.122 A 
ATOM     25  N   UNL     1      -1.723   0.924   1.917  0.00  0.00    -0.276 N 
BRANCH  25  26
ATOM     26  C   UNL     1      -2.298  -0.313   1.591  0.00  0.00    +0.050 A 
ATOM     27  C   UNL     1      -3.017  -0.457   0.413  0.00  0.00    +0.026 A 
ATOM     28  C   UNL     1      -3.577  -1.678   0.092  0.00  0.00    +0.002 A 
ATOM     29  C   UNL     1      -3.432  -2.753   0.949  0.00  0.00    +0.000 A 
ATOM     30  C   UNL     1      -2.721  -2.611   2.127  0.00  0.00    +0.002 A 
ATOM     31  C   UNL     1      -2.154  -1.394   2.450  0.00  0.00    +0.026 A 
ENDBRANCH  25  26
BRANCH  24  32
ATOM     32  C   UNL     1      -0.013   1.086   0.008  0.00  0.00    -0.001 C 
BRANCH  32  37
ATOM     33  C   UNL     1      -0.919   3.043  -1.121  0.00  0.00    -0.078 C 
ATOM     34  C   UNL     1      -1.170   3.430  -2.600  0.00  0.00    -0.020 C 
ATOM     35  C   UNL     1      -0.211   2.493  -3.369  0.00  0.00    -0.020 C 
ATOM     36  C   UNL     1       0.064   1.321  -2.409  0.00  0.00    -0.078 C 
ATOM     37  N   UNL     1      -0.725   1.587  -1.205  0.00  0.00    +0.384 N 
ATOM     38  H   UNL     1      -1.637   1.120  -1.278  0.00  0.00    -0.081 HD
ENDBRANCH  32  37
ENDBRANCH  24  32
ENDBRANCH  20  21
ENDBRANCH   1  20
TORSDOF 9
