REMARK  Name = ZINC14555218
REMARK  9 active torsions:
REMARK  status: ('A' for Active; 'I' for Inactive)
REMARK    1  A    between atoms: C_1  and  C_2
REMARK    2  A    between atoms: C_6  and  C_31
REMARK    3  A    between atoms: C_7  and  O_8
REMARK    4  A    between atoms: O_8  and  C_9
REMARK    5  A    between atoms: C_9  and  C_11
REMARK    6  A    between atoms: C_9  and  C_12
REMARK    7  A    between atoms: N_14  and  C_15
REMARK    8  A    between atoms: C_19  and  C_21
REMARK    9  A    between atoms: N_23  and  C_24
REMARK                            x       y       z     vdW  Elec       q    Type
REMARK                         _______ _______ _______ _____ _____    ______ ____
ROOT
ATOM      1  C   UNL     1      -4.462   7.731  -1.547  0.00  0.00    +0.034 A 
ATOM      2  C   UNL     1      -4.632   8.584  -2.631  0.00  0.00    +0.023 A 
ATOM      3  C   UNL     1      -5.051   9.886  -2.433  0.00  0.00    +0.003 A 
ATOM      4  C   UNL     1      -5.293  10.352  -1.157  0.00  0.00    +0.013 A 
ATOM      5  C   UNL     1      -5.120   9.505  -0.061  0.00  0.00    +0.039 A 
ATOM      6  C   UNL     1      -4.702   8.189  -0.261  0.00  0.00    +0.036 A 
ENDROOT
BRANCH   1   9
ATOM      7  C   UNL     1      -3.172   5.840  -0.899  0.00  0.00    +0.258 C 
ATOM      8  O   UNL     1      -2.807   6.442   0.088  0.00  0.00    -0.271 OA
ATOM      9  N   UNL     1      -4.043   6.412  -1.754  0.00  0.00    -0.282 N 
ATOM     10  H   UNL     1      -4.379   5.909  -2.512  0.00  0.00    +0.155 HD
BRANCH   7  11
ATOM     11  C   UNL     1      -2.651   4.452  -1.170  0.00  0.00    +0.256 C 
ATOM     12  C   UNL     1      -3.822   3.469  -1.218  0.00  0.00    +0.062 C 
BRANCH  11  13
ATOM     13  O   UNL     1      -1.750   4.070  -0.129  0.00  0.00    -0.479 OA
BRANCH  13  20
ATOM     14  C   UNL     1       0.491   5.484  -1.108  0.00  0.00    +0.047 C 
ATOM     15  C   UNL     1       0.470   3.982  -0.981  0.00  0.00    -0.007 A 
ATOM     16  C   UNL     1       1.574   3.241  -1.355  0.00  0.00    +0.022 A 
ATOM     17  C   UNL     1       1.557   1.863  -1.233  0.00  0.00    +0.019 A 
ATOM     18  C   UNL     1       0.433   1.224  -0.742  0.00  0.00    +0.022 A 
ATOM     19  C   UNL     1      -0.675   1.961  -0.371  0.00  0.00    -0.007 A 
ATOM     20  C   UNL     1      -0.660   3.343  -0.493  0.00  0.00    +0.127 A 
ATOM     21  C   UNL     1      -1.899   1.264   0.165  0.00  0.00    +0.047 C 
ATOM     22 BR   UNL     1       3.073   0.852  -1.739  0.00  0.00    -0.050 Br
ENDBRANCH  13  20
ENDBRANCH  11  13
ENDBRANCH   7  11
ENDBRANCH   1   9
BRANCH   5  23
ATOM     23  C   UNL     1      -5.377  10.001   1.308  0.00  0.00    +0.248 C 
ATOM     24  O   UNL     1      -5.225   9.261   2.261  0.00  0.00    -0.270 OA
ATOM     25  N   UNL     1      -5.781  11.272   1.499  0.00  0.00    -0.281 N 
ATOM     26  H   UNL     1      -5.981  11.837   0.737  0.00  0.00    +0.155 HD
BRANCH  25  27
ATOM     27  C   UNL     1      -5.910  11.778   2.798  0.00  0.00    +0.034 A 
ATOM     28  C   UNL     1      -6.886  12.723   3.082  0.00  0.00    +0.026 A 
ATOM     29  C   UNL     1      -7.016  13.217   4.365  0.00  0.00    +0.040 A 
ATOM     30  C   UNL     1      -6.165  12.778   5.366  0.00  0.00    +0.124 A 
ATOM     31  C   UNL     1      -5.187  11.839   5.084  0.00  0.00    +0.040 A 
ATOM     32  C   UNL     1      -5.058  11.338   3.803  0.00  0.00    +0.026 A 
ATOM     33  F   UNL     1      -6.290  13.266   6.620  0.00  0.00    -0.205 F 
ENDBRANCH  25  27
ENDBRANCH   5  23
TORSDOF 6
