REMARK  Name = ZINC00716531
REMARK  7 active torsions:
REMARK  status: ('A' for Active; 'I' for Inactive)
REMARK    1  A    between atoms: C_6  and  N_7
REMARK    2  A    between atoms: C_8  and  C_10
REMARK    3  A    between atoms: C_19  and  S_21
REMARK    4  A    between atoms: S_21  and  C_22
REMARK    5  A    between atoms: C_22  and  C_23
REMARK    6  A    between atoms: N_25  and  C_26
REMARK    7  A    between atoms: C_26  and  C_27
REMARK                            x       y       z     vdW  Elec       q    Type
REMARK                         _______ _______ _______ _____ _____    ______ ____
ROOT
ATOM      1  C   UNL     1       0.861   5.801  10.922  0.00  0.00    +0.025 A 
ATOM      2  C   UNL     1       0.451   5.409   9.675  0.00  0.00    +0.031 A 
ATOM      3  C   UNL     1      -0.915   5.459   9.312  0.00  0.00    +0.080 A 
ATOM      4  C   UNL     1      -1.809   5.932  10.300  0.00  0.00    +0.042 A 
ATOM      5  C   UNL     1      -1.395   6.325  11.547  0.00  0.00    +0.040 A 
ATOM      6  C   UNL     1      -0.046   6.262  11.873  0.00  0.00    +0.035 A 
ATOM      7  S   UNL     1      -3.375   5.849   9.465  0.00  0.00    -0.061 S 
ATOM      8  C   UNL     1      -2.769   5.203   7.913  0.00  0.00    +0.136 A 
ATOM      9  N   UNL     1      -1.477   5.111   8.133  0.00  0.00    -0.233 NA
ENDROOT
BRANCH   6  10
ATOM     10  N   UNL     1       0.396   6.658  13.141  0.00  0.00    -0.281 N 
ATOM     11  C   UNL     1      -0.391   6.470  14.219  0.00  0.00    +0.250 C 
ATOM     12  O   UNL     1      -1.443   5.870  14.106  0.00  0.00    -0.270 OA
ATOM     13  H   UNL     1       1.270   7.068  13.244  0.00  0.00    +0.155 HD
BRANCH  11  14
ATOM     14  C   UNL     1       0.024   6.991  15.537  0.00  0.00    +0.055 A 
ATOM     15  C   UNL     1       1.232   7.680  15.670  0.00  0.00    +0.016 A 
ATOM     16  C   UNL     1       1.613   8.165  16.903  0.00  0.00    +0.021 A 
ATOM     17  C   UNL     1       0.801   7.971  18.009  0.00  0.00    +0.042 A 
ATOM     18  C   UNL     1      -0.397   7.289  17.885  0.00  0.00    +0.040 A 
ATOM     19  C   UNL     1      -0.793   6.802  16.655  0.00  0.00    +0.054 A 
ATOM     20 CL   UNL     1      -2.300   5.954  16.499  0.00  0.00    -0.083 Cl
ATOM     21 CL   UNL     1       1.290   8.585  19.558  0.00  0.00    -0.083 Cl
ENDBRANCH  11  14
ENDBRANCH   6  10
BRANCH   8  22
ATOM     22  S   UNL     1      -3.673   4.800   6.455  0.00  0.00    -0.089 S 
BRANCH  22  23
ATOM     23  C   UNL     1      -2.321   4.239   5.391  0.00  0.00    +0.172 C 
BRANCH  23  24
ATOM     24  C   UNL     1      -2.873   3.831   4.050  0.00  0.00    +0.223 C 
ATOM     25  O   UNL     1      -4.064   3.912   3.834  0.00  0.00    -0.275 OA
ATOM     26  N   UNL     1      -2.043   3.376   3.090  0.00  0.00    -0.312 N 
ATOM     27  H   UNL     1      -1.091   3.311   3.263  0.00  0.00    +0.149 HD
BRANCH  26  28
ATOM     28  C   UNL     1      -2.580   2.979   1.786  0.00  0.00    +0.135 C 
BRANCH  28  29
ATOM     29  C   UNL     1      -1.437   2.504   0.887  0.00  0.00    +0.135 C 
ATOM     30  C   UNL     1      -1.957   2.196  -0.541  0.00  0.00    +0.035 C 
ATOM     31  C   UNL     1      -0.905   1.185  -1.058  0.00  0.00    +0.031 C 
ATOM     32  C   UNL     1      -0.258   0.625   0.224  0.00  0.00    +0.160 C 
ATOM     33  O   UNL     1      -0.925   1.232   1.343  0.00  0.00    -0.375 OA
ENDBRANCH  28  29
ENDBRANCH  26  28
ENDBRANCH  23  24
ENDBRANCH  22  23
ENDBRANCH   8  22
TORSDOF 7
