REMARK  Name = ZINC39687146
REMARK  8 active torsions:
REMARK  status: ('A' for Active; 'I' for Inactive)
REMARK    1  A    between atoms: C_1  and  C_2
REMARK    2  A    between atoms: C_2  and  C_4
REMARK    3  A    between atoms: C_2  and  N_12
REMARK    4  A    between atoms: C_4  and  C_5
REMARK    5  A    between atoms: C_13  and  C_15
REMARK    6  A    between atoms: C_26  and  C_28
REMARK    7  A    between atoms: C_31  and  O_35
REMARK    8  A    between atoms: O_35  and  C_36
REMARK                            x       y       z     vdW  Elec       q    Type
REMARK                         _______ _______ _______ _____ _____    ______ ____
ROOT
ATOM      1  C   UNL     1      -2.946  -1.580  -1.329  0.00  0.00    +0.100 C 
ATOM      2  C   UNL     1      -3.268  -2.971  -0.740  0.00  0.00    +0.121 C 
ATOM      3  N   UNL     1      -4.368  -3.491  -1.587  0.00  0.00    -0.296 N 
ATOM      4  C   UNL     1      -4.007  -3.066  -2.960  0.00  0.00    +0.115 C 
ATOM      5  C   UNL     1      -3.431  -1.646  -2.787  0.00  0.00    -0.004 C 
ATOM      6  C   UNL     1      -2.262  -1.431  -3.743  0.00  0.00    -0.010 C 
ATOM      7  C   UNL     1      -2.779  -1.443  -5.185  0.00  0.00    -0.082 C 
ATOM      8  N   UNL     1      -3.780  -0.383  -5.357  0.00  0.00    +0.379 N 
ATOM      9  C   UNL     1      -4.942  -0.648  -4.500  0.00  0.00    -0.082 C 
ATOM     10  C   UNL     1      -4.517  -0.603  -3.030  0.00  0.00    -0.010 C 
ATOM     11  C   UNL     1      -5.451  -4.192  -1.196  0.00  0.00    +0.247 C 
ATOM     12  O   UNL     1      -5.676  -4.354  -0.013  0.00  0.00    -0.270 OA
ATOM     13  H   UNL     1      -3.373   0.505  -5.104  0.00  0.00    -0.086 HD
ATOM     14  H   UNL     1      -4.074  -0.353  -6.321  0.00  0.00    -0.086 HD
ENDROOT
BRANCH  11  15
ATOM     15  C   UNL     1      -6.364  -4.761  -2.206  0.00  0.00    +0.040 A 
ATOM     16  C   UNL     1      -5.921  -4.968  -3.515  0.00  0.00    +0.036 A 
ATOM     17  C   UNL     1      -6.776  -5.500  -4.455  0.00  0.00    +0.085 A 
ATOM     18  C   UNL     1      -8.080  -5.831  -4.103  0.00  0.00    +0.157 A 
ATOM     19  C   UNL     1      -8.525  -5.627  -2.801  0.00  0.00    +0.085 A 
ATOM     20  C   UNL     1      -7.673  -5.101  -1.854  0.00  0.00    +0.036 A 
ATOM     21 CL   UNL     1     -10.155  -6.041  -2.367  0.00  0.00    -0.080 Cl
ATOM     22 CL   UNL     1      -6.226  -5.758  -6.081  0.00  0.00    -0.080 Cl
BRANCH  18  23
ATOM     23  O   UNL     1      -8.921  -6.354  -5.032  0.00  0.00    -0.492 OA
ATOM     24  C   UNL     1      -8.940  -7.777  -5.161  0.00  0.00    +0.277 C 
ENDBRANCH  18  23
ENDBRANCH  11  15
BRANCH   1  26
ATOM     25  N   UNL     1      -1.001  -0.062  -1.151  0.00  0.00    -0.312 N 
ATOM     26  C   UNL     1      -1.462  -1.321  -1.281  0.00  0.00    +0.218 C 
ATOM     27  O   UNL     1      -0.682  -2.247  -1.360  0.00  0.00    -0.275 OA
ATOM     28  H   UNL     1      -1.625   0.679  -1.087  0.00  0.00    +0.149 HD
BRANCH  25  30
ATOM     29  C   UNL     1       0.987   0.295  -2.530  0.00  0.00    +0.028 C 
ATOM     30  C   UNL     1       0.441   0.190  -1.104  0.00  0.00    +0.074 C 
BRANCH  30  31
ATOM     31  C   UNL     1       0.707   1.500  -0.359  0.00  0.00    +0.060 C 
BRANCH  31  32
ATOM     32  C   UNL     1       0.281   1.354   1.079  0.00  0.00    -0.010 A 
ATOM     33  C   UNL     1      -0.979   1.764   1.472  0.00  0.00    +0.006 A 
ATOM     34  C   UNL     1      -1.370   1.631   2.791  0.00  0.00    +0.000 A 
ATOM     35  C   UNL     1      -0.501   1.088   3.719  0.00  0.00    +0.003 A 
ATOM     36  C   UNL     1       0.759   0.677   3.329  0.00  0.00    +0.038 A 
ATOM     37  C   UNL     1       1.150   0.805   2.007  0.00  0.00    +0.127 A 
ATOM     38  F   UNL     1       2.380   0.399   1.623  0.00  0.00    -0.205 F 
ENDBRANCH  31  32
ENDBRANCH  30  31
ENDBRANCH  25  30
ENDBRANCH   1  26
TORSDOF 6
