REMARK  Name = ZINC46560474
REMARK  9 active torsions:
REMARK  status: ('A' for Active; 'I' for Inactive)
REMARK    1  A    between atoms: C_1  and  C_2
REMARK    2  A    between atoms: C_2  and  C_4
REMARK    3  A    between atoms: C_2  and  N_23
REMARK    4  A    between atoms: N_6  and  C_7
REMARK    5  A    between atoms: C_7  and  C_9
REMARK    6  A    between atoms: C_7  and  C_15
REMARK    7  A    between atoms: C_18  and  O_21
REMARK    8  A    between atoms: O_21  and  C_22
REMARK    9  A    between atoms: C_32  and  C_35
REMARK                            x       y       z     vdW  Elec       q    Type
REMARK                         _______ _______ _______ _____ _____    ______ ____
ROOT
ATOM      1  C   UNL     1       0.607   1.341  -0.416  0.00  0.00    -0.004 C 
ATOM      2  C   UNL     1       0.003  -0.002   0.000  0.00  0.00    +0.016 C 
ENDROOT
BRANCH   2   3
ATOM      3  N   UNL     1       0.006  -0.918  -1.148  0.00  0.00    +0.389 N 
ATOM      4  C   UNL     1      -0.622  -2.188  -0.761  0.00  0.00    -0.059 C 
ATOM      5  C   UNL     1      -0.516  -3.183  -1.921  0.00  0.00    +0.088 C 
ATOM      6  N   UNL     1      -1.093  -2.562  -3.123  0.00  0.00    -0.319 N 
ATOM      7  C   UNL     1      -0.636  -1.214  -3.493  0.00  0.00    +0.088 C 
ATOM      8  C   UNL     1      -0.737  -0.311  -2.259  0.00  0.00    -0.059 C 
ATOM      9  C   UNL     1      -2.043  -3.230  -3.887  0.00  0.00    +0.121 A 
ATOM     10  C   UNL     1      -2.610  -4.407  -3.408  0.00  0.00    +0.044 A 
ATOM     11  C   UNL     1      -3.554  -5.061  -4.178  0.00  0.00    +0.017 A 
ATOM     12  C   UNL     1      -3.901  -4.514  -5.407  0.00  0.00    +0.073 A 
ATOM     13  C   UNL     1      -3.299  -3.343  -5.820  0.00  0.00    +0.125 A 
ATOM     14  N   UNL     1      -2.405  -2.737  -5.061  0.00  0.00    -0.240 NA
ATOM     15  H   UNL     1       0.958  -1.091  -1.435  0.00  0.00    -0.081 HD
BRANCH  12  16
ATOM     16  C   UNL     1      -4.924  -5.193  -6.280  0.00  0.00    +0.419 C 
ATOM     17  F   UNL     1      -6.199  -4.706  -5.970  0.00  0.00    -0.166 F 
ATOM     18  F   UNL     1      -4.639  -4.929  -7.624  0.00  0.00    -0.166 F 
ATOM     19  F   UNL     1      -4.885  -6.574  -6.058  0.00  0.00    -0.166 F 
ENDBRANCH  12  16
ENDBRANCH   2   3
BRANCH   2  20
ATOM     20  C   UNL     1       0.820  -0.595   1.119  0.00  0.00    +0.200 C 
ATOM     21  O   UNL     1       1.728  -1.358   0.868  0.00  0.00    -0.278 OA
ATOM     22  N   UNL     1       0.541  -0.277   2.399  0.00  0.00    -0.306 N 
ATOM     23  H   UNL     1      -0.185   0.334   2.600  0.00  0.00    +0.150 HD
BRANCH  22  24
ATOM     24  C   UNL     1       1.336  -0.853   3.486  0.00  0.00    +0.133 C 
BRANCH  24  25
ATOM     25  C   UNL     1       0.780  -2.205   3.853  0.00  0.00    -0.023 A 
ATOM     26  C   UNL     1      -0.587  -2.404   3.888  0.00  0.00    +0.006 A 
ATOM     27  C   UNL     1      -1.097  -3.644   4.224  0.00  0.00    +0.000 A 
ATOM     28  C   UNL     1      -0.240  -4.686   4.524  0.00  0.00    +0.000 A 
ATOM     29  C   UNL     1       1.128  -4.487   4.489  0.00  0.00    +0.000 A 
ATOM     30  C   UNL     1       1.638  -3.248   4.148  0.00  0.00    +0.006 A 
ENDBRANCH  24  25
BRANCH  24  31
ATOM     31  C   UNL     1       1.278   0.056   4.687  0.00  0.00    -0.023 A 
ATOM     32  C   UNL     1       0.089   0.670   5.031  0.00  0.00    +0.009 A 
ATOM     33  C   UNL     1       0.033   1.504   6.131  0.00  0.00    +0.046 A 
ATOM     34  C   UNL     1       1.173   1.725   6.891  0.00  0.00    +0.120 A 
ATOM     35  C   UNL     1       2.365   1.107   6.543  0.00  0.00    +0.046 A 
ATOM     36  C   UNL     1       2.414   0.269   5.446  0.00  0.00    +0.009 A 
BRANCH  34  37
ATOM     37  O   UNL     1       1.121   2.545   7.973  0.00  0.00    -0.495 OA
ATOM     38  C   UNL     1       2.333   2.726   8.708  0.00  0.00    +0.277 C 
ENDBRANCH  34  37
ENDBRANCH  24  31
ENDBRANCH  22  24
ENDBRANCH   2  20
TORSDOF 7
