REMARK  Name = ZINC60331840
REMARK  6 active torsions:
REMARK  status: ('A' for Active; 'I' for Inactive)
REMARK    1  A    between atoms: C_1  and  C_2
REMARK    2  A    between atoms: C_5  and  S_7
REMARK    3  A    between atoms: S_7  and  N_10
REMARK    4  A    between atoms: C_14  and  C_17
REMARK    5  A    between atoms: N_19  and  C_20
REMARK    6  A    between atoms: C_27  and  C_30
REMARK                            x       y       z     vdW  Elec       q    Type
REMARK                         _______ _______ _______ _____ _____    ______ ____
ROOT
ATOM      1  C   UNL     1       4.255  -5.573  -3.797  0.00  0.00    +0.222 C 
ATOM      2  O   UNL     1       4.694  -4.448  -3.908  0.00  0.00    -0.275 OA
ATOM      3  N   UNL     1       4.853  -6.596  -4.439  0.00  0.00    -0.285 N 
ATOM      4  H   UNL     1       4.544  -7.505  -4.298  0.00  0.00    +0.155 HD
ENDROOT
BRANCH   3   5
ATOM      5  C   UNL     1       5.920  -6.348  -5.312  0.00  0.00    +0.036 A 
ATOM      6  C   UNL     1       6.828  -5.330  -5.025  0.00  0.00    +0.025 A 
ATOM      7  C   UNL     1       7.882  -5.075  -5.874  0.00  0.00    +0.029 A 
ATOM      8  C   UNL     1       8.043  -5.835  -7.025  0.00  0.00    +0.066 A 
ATOM      9  C   UNL     1       7.133  -6.863  -7.322  0.00  0.00    +0.091 A 
ATOM     10  C   UNL     1       6.070  -7.116  -6.451  0.00  0.00    +0.053 A 
ATOM     11  N   UNL     1       7.537  -7.425  -8.491  0.00  0.00    -0.232 NA
ATOM     12  C   UNL     1       8.609  -6.823  -8.918  0.00  0.00    +0.111 A 
ATOM     13  N   UNL     1       8.966  -5.835  -8.054  0.00  0.00    -0.342 N 
ATOM     14  H   UNL     1       9.726  -5.239  -8.144  0.00  0.00    +0.167 HD
BRANCH  12  15
ATOM     15  C   UNL     1       9.348  -7.170 -10.184  0.00  0.00    +0.055 C 
ATOM     16  C   UNL     1      10.733  -6.512 -10.290  0.00  0.00    +0.011 C 
ATOM     17  C   UNL     1      10.424  -6.281 -11.778  0.00  0.00    +0.001 C 
ATOM     18  C   UNL     1       8.936  -6.313 -11.393  0.00  0.00    +0.011 C 
ENDBRANCH  12  15
ENDBRANCH   3   5
BRANCH   1  23
ATOM     19  N   UNL     1       1.306  -4.751  -1.605  0.00  0.00    -0.175 NA
ATOM     20  C   UNL     1       0.197  -5.406  -2.313  0.00  0.00    +0.109 C 
ATOM     21  C   UNL     1       0.705  -6.716  -2.922  0.00  0.00    +0.018 C 
ATOM     22  C   UNL     1       1.926  -6.426  -3.799  0.00  0.00    +0.015 C 
ATOM     23  C   UNL     1       3.042  -5.828  -2.940  0.00  0.00    +0.091 C 
ATOM     24  C   UNL     1       2.558  -4.502  -2.332  0.00  0.00    +0.122 C 
BRANCH  19  25
ATOM     25  S   UNL     1       1.145  -4.297  -0.021  0.00  0.00    +0.067 S 
ATOM     26  O   UNL     1       2.458  -4.229   0.517  0.00  0.00    -0.152 OA
ATOM     27  O   UNL     1       0.134  -5.124   0.538  0.00  0.00    -0.152 OA
BRANCH  25  32
ATOM     28  C   UNL     1      -0.032   1.501  -0.002  0.00  0.00    +0.051 C 
ATOM     29  C   UNL     1      -0.005  -0.006  -0.004  0.00  0.00    -0.011 A 
ATOM     30  C   UNL     1      -1.043  -0.878   0.005  0.00  0.00    +0.013 A 
ATOM     31  C   UNL     1      -0.778  -2.235   0.000  0.00  0.00    +0.036 A 
ATOM     32  C   UNL     1       0.511  -2.653  -0.013  0.00  0.00    +0.143 A 
ATOM     33  S   UNL     1       1.401  -1.105  -0.025  0.00  0.00    -0.074 S 
ENDBRANCH  25  32
ENDBRANCH  19  25
ENDBRANCH   1  23
TORSDOF 5
