REMARK  Name = ZINC35402420
REMARK  6 active torsions:
REMARK  status: ('A' for Active; 'I' for Inactive)
REMARK    1  A    between atoms: C_1  and  O_2
REMARK    2  A    between atoms: O_2  and  C_3
REMARK    3  A    between atoms: C_5  and  C_27
REMARK    4  A    between atoms: N_6  and  C_8
REMARK    5  A    between atoms: C_11  and  N_14
REMARK    6  A    between atoms: C_15  and  C_17
REMARK                            x       y       z     vdW  Elec       q    Type
REMARK                         _______ _______ _______ _____ _____    ______ ____
ROOT
ATOM      1  C   UNL     1       2.439  -1.358  -4.107  0.00  0.00    +0.068 A 
ATOM      2  C   UNL     1       3.280  -2.457  -4.235  0.00  0.00    +0.029 A 
ATOM      3  C   UNL     1       4.015  -2.633  -5.390  0.00  0.00    +0.025 A 
ATOM      4  C   UNL     1       3.914  -1.712  -6.424  0.00  0.00    +0.034 A 
ATOM      5  C   UNL     1       3.074  -0.613  -6.297  0.00  0.00    +0.025 A 
ATOM      6  C   UNL     1       2.335  -0.440  -5.144  0.00  0.00    +0.029 A 
ENDROOT
BRANCH   1  10
ATOM      7  C   UNL     1       0.041  -0.761  -1.569  0.00  0.00    +0.337 A 
ATOM      8  N   UNL     1       1.121  -1.066  -0.851  0.00  0.00    -0.174 NA
ATOM      9  C   UNL     1       2.134  -1.324  -1.657  0.00  0.00    +0.167 A 
ATOM     10  N   UNL     1       1.693  -1.180  -2.935  0.00  0.00    -0.209 N 
ATOM     11  N   UNL     1       0.338  -0.822  -2.845  0.00  0.00    -0.108 NA
BRANCH   9  12
ATOM     12  C   UNL     1       3.502  -1.701  -1.244  0.00  0.00    +0.023 A 
ATOM     13  C   UNL     1       4.581  -1.460  -2.096  0.00  0.00    +0.015 A 
ATOM     14  C   UNL     1       5.857  -1.812  -1.709  0.00  0.00    +0.050 A 
ATOM     15  C   UNL     1       6.074  -2.406  -0.474  0.00  0.00    +0.166 A 
ATOM     16  C   UNL     1       5.000  -2.649   0.382  0.00  0.00    +0.167 A 
ATOM     17  C   UNL     1       3.719  -2.293   0.002  0.00  0.00    +0.061 A 
ATOM     18  O   UNL     1       5.474  -3.234   1.521  0.00  0.00    -0.453 OA
ATOM     19  C   UNL     1       6.787  -3.719   1.185  0.00  0.00    +0.466 C 
ATOM     20  O   UNL     1       7.218  -2.839   0.131  0.00  0.00    -0.453 OA
ENDBRANCH   9  12
BRANCH   7  22
ATOM     21  C   UNL     1      -2.216  -0.150  -1.996  0.00  0.00    +0.280 C 
ATOM     22  O   UNL     1      -1.178  -0.442  -1.060  0.00  0.00    -0.465 OA
ENDBRANCH   7  22
ENDBRANCH   1  10
BRANCH   4  23
ATOM     23  N   UNL     1       4.660  -1.890  -7.596  0.00  0.00    -0.285 N 
ATOM     24  C   UNL     1       5.156  -0.820  -8.248  0.00  0.00    +0.223 C 
ATOM     25  O   UNL     1       4.887   0.300  -7.869  0.00  0.00    -0.275 OA
ATOM     26  H   UNL     1       4.820  -2.784  -7.938  0.00  0.00    +0.155 HD
BRANCH  24  27
ATOM     27  C   UNL     1       6.045  -1.016  -9.449  0.00  0.00    +0.048 C 
ATOM     28  C   UNL     1       5.282  -1.786 -10.529  0.00  0.00    +0.019 C 
ATOM     29  C   UNL     1       6.184  -1.984 -11.748  0.00  0.00    -0.009 C 
ATOM     30  C   UNL     1       6.607  -0.620 -12.297  0.00  0.00    +0.007 C 
ATOM     31  C   UNL     1       7.370   0.150 -11.218  0.00  0.00    -0.009 C 
ATOM     32  C   UNL     1       6.468   0.348  -9.998  0.00  0.00    +0.019 C 
ATOM     33  C   UNL     1       8.613  -0.643 -10.809  0.00  0.00    +0.007 C 
ATOM     34  C   UNL     1       8.191  -2.007 -10.260  0.00  0.00    -0.009 C 
ATOM     35  C   UNL     1       7.427  -2.777 -11.339  0.00  0.00    +0.007 C 
ATOM     36  C   UNL     1       7.288  -1.808  -9.040  0.00  0.00    +0.019 C 
ENDBRANCH  24  27
ENDBRANCH   4  23
TORSDOF 5
