REMARK  Name = ZINC58715811
REMARK  9 active torsions:
REMARK  status: ('A' for Active; 'I' for Inactive)
REMARK    1  A    between atoms: C_1  and  C_2
REMARK    2  A    between atoms: C_4  and  C_27
REMARK    3  A    between atoms: C_5  and  N_9
REMARK    4  A    between atoms: C_6  and  C_8
REMARK    5  A    between atoms: C_10  and  C_12
REMARK    6  A    between atoms: C_12  and  N_13
REMARK    7  A    between atoms: N_16  and  C_17
REMARK    8  A    between atoms: C_17  and  C_19
REMARK    9  A    between atoms: C_17  and  C_20
REMARK                            x       y       z     vdW  Elec       q    Type
REMARK                         _______ _______ _______ _____ _____    ______ ____
ROOT
ATOM      1  N   UNL     1       0.858  -6.983   2.265  0.00  0.00    -0.291 N 
ATOM      2  C   UNL     1       0.984  -8.311   2.462  0.00  0.00    +0.300 C 
ATOM      3  O   UNL     1       0.718  -9.087   1.565  0.00  0.00    -0.253 OA
ATOM      4  N   UNL     1       1.407  -8.778   3.654  0.00  0.00    -0.293 N 
ATOM      5  H   UNL     1       1.071  -6.364   2.981  0.00  0.00    +0.151 HD
ATOM      6  H   UNL     1       1.619  -8.159   4.369  0.00  0.00    +0.151 HD
ENDROOT
BRANCH   4   7
ATOM      7  C   UNL     1       1.544 -10.221   3.868  0.00  0.00    +0.102 C 
ATOM      8  C   UNL     1       2.914 -10.682   3.367  0.00  0.00    +0.033 C 
BRANCH   7   9
ATOM      9  C   UNL     1       1.418 -10.524   5.339  0.00  0.00    -0.026 A 
ATOM     10  C   UNL     1       1.998  -9.683   6.270  0.00  0.00    +0.005 A 
ATOM     11  C   UNL     1       1.884  -9.961   7.619  0.00  0.00    +0.001 A 
ATOM     12  C   UNL     1       1.189 -11.080   8.038  0.00  0.00    +0.015 A 
ATOM     13  C   UNL     1       0.608 -11.922   7.106  0.00  0.00    +0.018 A 
ATOM     14  C   UNL     1       0.719 -11.640   5.756  0.00  0.00    +0.020 A 
ATOM     15 BR   UNL     1      -0.342 -13.454   7.678  0.00  0.00    -0.050 Br
ENDBRANCH   7   9
ENDBRANCH   4   7
BRANCH   1  16
ATOM     16  C   UNL     1       0.399  -6.476   0.969  0.00  0.00    +0.202 C 
BRANCH  16  18
ATOM     17  N   UNL     1      -0.052  -4.280  -0.077  0.00  0.00    -0.284 N 
ATOM     18  C   UNL     1       0.345  -4.970   1.011  0.00  0.00    +0.234 C 
ATOM     19  O   UNL     1       0.659  -4.380   2.022  0.00  0.00    -0.274 OA
ATOM     20  H   UNL     1      -0.370  -4.753  -0.862  0.00  0.00    +0.155 HD
BRANCH  17  25
ATOM     21  C   UNL     1       0.136   1.390  -0.065  0.00  0.00    +0.044 C 
ATOM     22  C   UNL     1       0.086  -0.116  -0.068  0.00  0.00    -0.050 A 
ATOM     23  C   UNL     1       0.759  -0.827  -1.045  0.00  0.00    +0.008 A 
ATOM     24  C   UNL     1       0.715  -2.207  -1.051  0.00  0.00    -0.029 A 
ATOM     25  C   UNL     1      -0.005  -2.882  -0.074  0.00  0.00    +0.039 A 
ATOM     26  C   UNL     1      -0.679  -2.165   0.906  0.00  0.00    -0.029 A 
ATOM     27  C   UNL     1      -0.628  -0.785   0.909  0.00  0.00    +0.008 A 
ATOM     28  C   UNL     1      -1.463  -2.893   1.968  0.00  0.00    +0.045 C 
ATOM     29  C   UNL     1       1.448  -2.981  -2.117  0.00  0.00    +0.045 C 
ENDBRANCH  17  25
ENDBRANCH  16  18
ENDBRANCH   1  16
TORSDOF 5
