REMARK  Name = ZINC59017780
REMARK  10 active torsions:
REMARK  status: ('A' for Active; 'I' for Inactive)
REMARK    1  A    between atoms: C_1  and  C_2
REMARK    2  A    between atoms: C_4  and  S_10
REMARK    3  A    between atoms: C_5  and  C_9
REMARK    4  A    between atoms: S_10  and  C_11
REMARK    5  A    between atoms: C_11  and  C_12
REMARK    6  A    between atoms: N_14  and  C_15
REMARK    7  A    between atoms: C_20  and  N_21
REMARK    8  A    between atoms: N_24  and  C_25
REMARK    9  A    between atoms: C_25  and  C_26
REMARK   10  A    between atoms: C_25  and  C_27
REMARK                            x       y       z     vdW  Elec       q    Type
REMARK                         _______ _______ _______ _____ _____    ______ ____
ROOT
ATOM      1  C   UNL     1      -0.591  -2.137  -5.432  0.00  0.00    +0.227 C 
ATOM      2  O   UNL     1      -1.120  -3.213  -5.613  0.00  0.00    -0.275 OA
ATOM      3  N   UNL     1      -0.017  -1.486  -6.464  0.00  0.00    -0.283 N 
ATOM      4  H   UNL     1       0.335  -0.591  -6.337  0.00  0.00    +0.155 HD
ENDROOT
BRANCH   3   5
ATOM      5  C   UNL     1       0.070  -2.102  -7.719  0.00  0.00    +0.055 A 
ATOM      6  C   UNL     1       0.065  -3.486  -7.816  0.00  0.00    +0.025 A 
ATOM      7  C   UNL     1       0.151  -4.091  -9.056  0.00  0.00    +0.002 A 
ATOM      8  C   UNL     1       0.243  -3.322 -10.201  0.00  0.00    +0.002 A 
ATOM      9  C   UNL     1       0.249  -1.943 -10.113  0.00  0.00    +0.025 A 
ATOM     10  C   UNL     1       0.157  -1.326  -8.874  0.00  0.00    +0.056 A 
BRANCH  10  11
ATOM     11  N   UNL     1       0.157   0.072  -8.783  0.00  0.00    -0.268 N 
ATOM     12  C   UNL     1       0.726   0.810  -9.756  0.00  0.00    +0.304 C 
ATOM     13  O   UNL     1       1.329   0.264 -10.660  0.00  0.00    -0.253 OA
ATOM     14  N   UNL     1       0.629   2.154  -9.726  0.00  0.00    -0.297 N 
ATOM     15  H   UNL     1      -0.254   0.508  -8.020  0.00  0.00    +0.156 HD
ATOM     16  H   UNL     1       0.148   2.590  -9.005  0.00  0.00    +0.151 HD
BRANCH  14  17
ATOM     17  C   UNL     1       1.248   2.957 -10.783  0.00  0.00    +0.068 C 
ATOM     18  C   UNL     1       0.291   3.060 -11.973  0.00  0.00    +0.027 C 
ATOM     19  C   UNL     1       1.550   4.359 -10.249  0.00  0.00    +0.027 C 
ENDBRANCH  14  17
ENDBRANCH  10  11
ENDBRANCH   3   5
BRANCH   1  20
ATOM     20  C   UNL     1      -0.573  -1.528  -4.054  0.00  0.00    +0.170 C 
BRANCH  20  21
ATOM     21  S   UNL     1      -1.417  -2.636  -2.892  0.00  0.00    -0.116 S 
BRANCH  21  25
ATOM     22  C   UNL     1       0.091   1.434   0.031  0.00  0.00    +0.045 C 
ATOM     23  C   UNL     1      -0.598   0.097  -0.056  0.00  0.00    -0.035 A 
ATOM     24  C   UNL     1      -0.678  -0.561  -1.268  0.00  0.00    +0.019 A 
ATOM     25  C   UNL     1      -1.313  -1.794  -1.348  0.00  0.00    +0.012 A 
ATOM     26  C   UNL     1      -1.867  -2.362  -0.206  0.00  0.00    -0.036 A 
ATOM     27  C   UNL     1      -1.784  -1.699   1.002  0.00  0.00    +0.020 A 
ATOM     28  C   UNL     1      -1.146  -0.474   1.079  0.00  0.00    +0.021 A 
ATOM     29 BR   UNL     1      -1.029   0.427   2.738  0.00  0.00    -0.050 Br
ATOM     30  C   UNL     1      -2.558  -3.699  -0.288  0.00  0.00    +0.045 C 
ENDBRANCH  21  25
ENDBRANCH  20  21
ENDBRANCH   1  20
TORSDOF 6
