REMARK  Name = ZINC47136021
REMARK  8 active torsions:
REMARK  status: ('A' for Active; 'I' for Inactive)
REMARK    1  A    between atoms: C_1  and  C_2
REMARK    2  A    between atoms: C_2  and  C_3
REMARK    3  A    between atoms: C_2  and  C_4
REMARK    4  A    between atoms: C_2  and  C_5
REMARK    5  A    between atoms: C_12  and  N_25
REMARK    6  A    between atoms: C_13  and  C_14
REMARK    7  A    between atoms: N_16  and  C_17
REMARK    8  A    between atoms: N_25  and  C_26
REMARK                            x       y       z     vdW  Elec       q    Type
REMARK                         _______ _______ _______ _____ _____    ______ ____
ROOT
ATOM      1  C   UNL     1       0.718  -0.497  -1.257  0.00  0.00    -0.000 C 
ATOM      2  C   UNL     1      -0.017   0.014  -2.499  0.00  0.00    +0.009 C 
ATOM      3  C   UNL     1       0.538  -0.669  -3.751  0.00  0.00    +0.037 C 
ATOM      4  C   UNL     1       2.052  -0.515  -3.759  0.00  0.00    -0.023 A 
ATOM      5  C   UNL     1       2.731  -0.198  -2.637  0.00  0.00    -0.004 A 
ATOM      6  S   UNL     1       4.426  -0.133  -3.139  0.00  0.00    -0.078 S 
ATOM      7  C   UNL     1       4.257  -0.509  -4.767  0.00  0.00    +0.081 A 
ATOM      8  C   UNL     1       2.891  -0.687  -4.934  0.00  0.00    +0.068 A 
ATOM      9  C   UNL     1       2.158   0.038  -1.273  0.00  0.00    +0.046 C 
ENDROOT
BRANCH   1  11
ATOM     10  C   UNL     1      -0.019   1.526   0.010  0.00  0.00    +0.011 C 
ATOM     11  C   UNL     1       0.002  -0.004   0.002  0.00  0.00    -0.035 C 
ATOM     12  C   UNL     1       0.742  -0.511   1.242  0.00  0.00    +0.011 C 
ATOM     13  C   UNL     1      -1.433  -0.534   0.013  0.00  0.00    +0.011 C 
ENDBRANCH   1  11
BRANCH   8  14
ATOM     14  C   UNL     1       2.319  -1.033  -6.237  0.00  0.00    +0.247 C 
ATOM     15  O   UNL     1       1.976  -0.152  -7.004  0.00  0.00    -0.270 OA
ATOM     16  N   UNL     1       2.173  -2.326  -6.587  0.00  0.00    -0.307 N 
ATOM     17  H   UNL     1       2.446  -3.028  -5.976  0.00  0.00    +0.149 HD
BRANCH  16  18
ATOM     18  C   UNL     1       1.601  -2.672  -7.890  0.00  0.00    +0.096 C 
ATOM     19  C   UNL     1       0.067  -2.713  -7.789  0.00  0.00    +0.046 C 
ATOM     20  C   UNL     1      -0.527  -3.381  -9.053  0.00  0.00    +0.168 C 
ATOM     21  S   UNL     1       0.822  -4.513  -9.584  0.00  0.00    -0.029 S 
ATOM     22  O   UNL     1       0.406  -5.856  -9.379  0.00  0.00    -0.174 OA
ATOM     23  O   UNL     1       1.284  -4.111 -10.866  0.00  0.00    -0.174 OA
ATOM     24  C   UNL     1       2.095  -4.081  -8.324  0.00  0.00    +0.188 C 
ENDBRANCH  16  18
ENDBRANCH   8  14
BRANCH   7  25
ATOM     25  N   UNL     1       5.250  -0.617  -5.722  0.00  0.00    -0.300 N 
ATOM     26  H   UNL     1       5.021  -0.842  -6.638  0.00  0.00    +0.150 HD
BRANCH  25  27
ATOM     27  C   UNL     1       6.650  -0.391  -5.352  0.00  0.00    +0.297 C 
ATOM     28  C   UNL     1       7.357   0.367  -6.447  0.00  0.00    +0.025 A 
ATOM     29  C   UNL     1       7.168   1.603  -7.019  0.00  0.00    +0.010 A 
ATOM     30  C   UNL     1       8.006   2.030  -8.035  0.00  0.00    +0.000 A 
ATOM     31  C   UNL     1       9.035   1.217  -8.478  0.00  0.00    +0.001 A 
ATOM     32  C   UNL     1       9.235  -0.025  -7.911  0.00  0.00    +0.015 A 
ATOM     33  C   UNL     1       8.393  -0.462  -6.887  0.00  0.00    +0.067 A 
ATOM     34  C   UNL     1       8.340  -1.703  -6.093  0.00  0.00    +0.342 C 
ATOM     35  O   UNL     1       9.101  -2.642  -6.216  0.00  0.00    -0.245 OA
ATOM     36  O   UNL     1       7.327  -1.642  -5.212  0.00  0.00    -0.435 OA
ENDBRANCH  25  27
ENDBRANCH   7  25
TORSDOF 5
