REMARK  Name = ZINC49122879
REMARK  6 active torsions:
REMARK  status: ('A' for Active; 'I' for Inactive)
REMARK    1  A    between atoms: C_1  and  C_2
REMARK    2  A    between atoms: C_2  and  C_3
REMARK    3  A    between atoms: C_9  and  N_11
REMARK    4  A    between atoms: N_11  and  S_12
REMARK    5  A    between atoms: S_12  and  C_15
REMARK    6  A    between atoms: N_21  and  N_22
REMARK                            x       y       z     vdW  Elec       q    Type
REMARK                         _______ _______ _______ _____ _____    ______ ____
ROOT
ATOM      1  S   UNL     1      -1.261  -3.825  -0.626  0.00  0.00    +0.059 S 
ATOM      2  O   UNL     1      -2.664  -3.927  -0.826  0.00  0.00    -0.153 OA
ATOM      3  O   UNL     1      -0.357  -4.841  -1.036  0.00  0.00    -0.153 OA
ENDROOT
BRANCH   1   4
ATOM      4  C   UNL     1      -1.014  -3.599   1.104  0.00  0.00    +0.110 A 
ATOM      5  C   UNL     1       0.193  -3.941   1.699  0.00  0.00    +0.048 A 
ATOM      6  C   UNL     1       0.355  -3.751   3.057  0.00  0.00    +0.115 A 
ATOM      7  N   UNL     1      -0.621  -3.251   3.791  0.00  0.00    -0.239 NA
ATOM      8  C   UNL     1      -1.786  -2.913   3.261  0.00  0.00    +0.134 A 
ATOM      9  C   UNL     1      -2.016  -3.072   1.898  0.00  0.00    +0.073 A 
ATOM     10  N   UNL     1      -2.786  -2.389   4.072  0.00  0.00    -0.267 N 
ATOM     11  H   UNL     1      -3.641  -2.140   3.688  0.00  0.00    +0.167 HD
BRANCH  10  12
ATOM     12  N   UNL     1      -2.564  -2.226   5.410  0.00  0.00    -0.255 NA
ATOM     13  H   UNL     1      -1.750  -1.654   5.574  0.00  0.00    +0.140 HD
ATOM     14  H   UNL     1      -3.377  -1.838   5.866  0.00  0.00    +0.140 HD
ENDBRANCH  10  12
ENDBRANCH   1   4
BRANCH   1  15
ATOM     15  N   UNL     1      -0.776  -2.430  -1.376  0.00  0.00    -0.187 NA
ATOM     16  H   UNL     1      -1.424  -1.882  -1.847  0.00  0.00    +0.148 HD
BRANCH  15  22
ATOM     17  C   UNL     1       0.718  -0.497  -1.257  0.00  0.00    +0.007 C 
ATOM     18  C   UNL     1       2.187  -0.073  -1.207  0.00  0.00    +0.005 C 
ATOM     19  C   UNL     1       2.904  -0.566  -2.466  0.00  0.00    +0.000 C 
ATOM     20  C   UNL     1       2.816  -2.092  -2.538  0.00  0.00    +0.002 C 
ATOM     21  C   UNL     1       1.347  -2.517  -2.587  0.00  0.00    +0.020 C 
ATOM     22  C   UNL     1       0.630  -2.023  -1.329  0.00  0.00    +0.080 C 
BRANCH  17  24
ATOM     23  C   UNL     1      -0.019   1.526   0.010  0.00  0.00    +0.004 C 
ATOM     24  C   UNL     1       0.002  -0.004   0.002  0.00  0.00    +0.002 C 
ENDBRANCH  17  24
ENDBRANCH  15  22
ENDBRANCH   1  15
TORSDOF 5
