REMARK  Name = ZINC59857083
REMARK  14 active torsions:
REMARK  status: ('A' for Active; 'I' for Inactive)
REMARK    1  A    between atoms: C_1  and  C_2
REMARK    2  A    between atoms: C_2  and  C_3
REMARK    3  A    between atoms: C_2  and  C_4
REMARK    4  A    between atoms: C_4  and  C_6
REMARK    5  A    between atoms: C_4  and  S_9
REMARK    6  A    between atoms: S_9  and  C_10
REMARK    7  A    between atoms: C_13  and  C_16
REMARK    8  A    between atoms: N_14  and  C_15
REMARK    9  A    between atoms: C_19  and  N_22
REMARK   10  A    between atoms: C_23  and  C_25
REMARK   11  A    between atoms: C_28  and  C_31
REMARK   12  A    between atoms: C_31  and  C_32
REMARK   13  A    between atoms: C_31  and  C_33
REMARK   14  A    between atoms: C_31  and  C_34
REMARK                            x       y       z     vdW  Elec       q    Type
REMARK                         _______ _______ _______ _____ _____    ______ ____
ROOT
ATOM      1  C   UNL     1      -7.415  -1.100  -2.267  0.00  0.00    +0.019 A 
ATOM      2  C   UNL     1      -7.545  -0.964  -3.650  0.00  0.00    +0.013 A 
ATOM      3  C   UNL     1      -8.791  -1.039  -4.234  0.00  0.00    +0.024 A 
ATOM      4  C   UNL     1      -9.918  -1.250  -3.447  0.00  0.00    +0.034 A 
ATOM      5  C   UNL     1      -9.791  -1.385  -2.069  0.00  0.00    +0.024 A 
ATOM      6  C   UNL     1      -8.548  -1.317  -1.480  0.00  0.00    +0.013 A 
ENDROOT
BRANCH   1  10
ATOM      7  C   UNL     1      -3.964  -0.635  -1.255  0.00  0.00    +0.192 A 
ATOM      8  N   UNL     1      -4.511  -1.219  -0.213  0.00  0.00    -0.122 NA
ATOM      9  N   UNL     1      -5.756  -1.446  -0.438  0.00  0.00    -0.128 NA
ATOM     10  C   UNL     1      -6.080  -1.021  -1.637  0.00  0.00    +0.165 A 
ATOM     11  N   UNL     1      -4.943  -0.484  -2.195  0.00  0.00    -0.305 N 
ATOM     12  C   UNL     1      -4.810   0.122  -3.523  0.00  0.00    +0.153 C 
BRANCH   7  13
ATOM     13  S   UNL     1      -2.281  -0.135  -1.408  0.00  0.00    -0.071 S 
BRANCH  13  14
ATOM     14  C   UNL     1      -1.533  -0.622   0.171  0.00  0.00    +0.170 C 
BRANCH  14  16
ATOM     15  C   UNL     1      -0.066   1.400   0.220  0.00  0.00    +0.009 C 
ATOM     16  C   UNL     1      -0.085  -0.130   0.223  0.00  0.00    +0.007 C 
ATOM     17  C   UNL     1       0.584  -0.646   1.498  0.00  0.00    +0.009 C 
ENDBRANCH  14  16
BRANCH  14  18
ATOM     18  C   UNL     1      -1.558  -2.123   0.297  0.00  0.00    +0.369 C 
ATOM     19  O   UNL     1      -1.544  -2.643   1.400  0.00  0.00    -0.245 OA
ATOM     20  O   UNL     1      -1.592  -2.819  -0.703  0.00  0.00    -0.245 OA
ENDBRANCH  14  18
ENDBRANCH  13  14
ENDBRANCH   7  13
ENDBRANCH   1  10
BRANCH   4  21
ATOM     21  N   UNL     1     -11.180  -1.324  -4.042  0.00  0.00    -0.282 N 
ATOM     22  C   UNL     1     -12.121  -2.140  -3.527  0.00  0.00    +0.248 C 
ATOM     23  O   UNL     1     -11.844  -2.880  -2.603  0.00  0.00    -0.270 OA
ATOM     24  H   UNL     1     -11.379  -0.789  -4.826  0.00  0.00    +0.155 HD
BRANCH  22  25
ATOM     25  C   UNL     1     -13.489  -2.135  -4.085  0.00  0.00    +0.037 A 
ATOM     26  C   UNL     1     -13.809  -1.290  -5.149  0.00  0.00    +0.013 A 
ATOM     27  C   UNL     1     -15.089  -1.289  -5.665  0.00  0.00    +0.005 A 
ATOM     28  C   UNL     1     -16.054  -2.124  -5.129  0.00  0.00    -0.042 A 
ATOM     29  C   UNL     1     -15.743  -2.964  -4.074  0.00  0.00    +0.005 A 
ATOM     30  C   UNL     1     -14.466  -2.978  -3.553  0.00  0.00    +0.013 A 
BRANCH  28  31
ATOM     31  C   UNL     1     -17.450  -2.118  -5.697  0.00  0.00    -0.013 C 
ATOM     32  C   UNL     1     -17.400  -2.507  -7.176  0.00  0.00    +0.015 C 
ATOM     33  C   UNL     1     -18.316  -3.123  -4.934  0.00  0.00    +0.015 C 
ATOM     34  C   UNL     1     -18.051  -0.718  -5.559  0.00  0.00    +0.015 C 
ENDBRANCH  28  31
ENDBRANCH  22  25
ENDBRANCH   4  21
TORSDOF 8
