REMARK  Name = ZINC00989129
REMARK  13 active torsions:
REMARK  status: ('A' for Active; 'I' for Inactive)
REMARK    1  A    between atoms: C_1  and  C_2
REMARK    2  A    between atoms: C_2  and  C_3
REMARK    3  A    between atoms: C_2  and  O_4
REMARK    4  A    between atoms: O_4  and  C_5
REMARK    5  A    between atoms: C_5  and  C_7
REMARK    6  A    between atoms: C_13  and  C_14
REMARK    7  A    between atoms: C_17  and  O_20
REMARK    8  A    between atoms: O_20  and  C_21
REMARK    9  A    between atoms: C_23  and  N_37
REMARK   10  A    between atoms: C_24  and  C_35
REMARK   11  A    between atoms: C_25  and  C_27
REMARK   12  A    between atoms: C_30  and  O_33
REMARK   13  A    between atoms: O_33  and  C_34
REMARK                            x       y       z     vdW  Elec       q    Type
REMARK                         _______ _______ _______ _____ _____    ______ ____
ROOT
ATOM      1  C   UNL     1       1.486   1.431   4.181  0.00  0.00    +0.080 C 
ATOM      2  C   UNL     1       2.580   2.120   4.634  0.00  0.00    +0.100 A 
ATOM      3  N   UNL     1       3.477   1.630   5.560  0.00  0.00    -0.257 N 
ATOM      4  C   UNL     1       4.504   2.426   5.918  0.00  0.00    +0.271 A 
ATOM      5  O   UNL     1       5.332   2.050   6.726  0.00  0.00    -0.266 OA
ATOM      6  C   UNL     1       4.613   3.750   5.294  0.00  0.00    +0.079 A 
ATOM      7  C   UNL     1       5.546   4.718   5.483  0.00  0.00    +0.028 C 
ATOM      8  S   UNL     1       3.178   3.749   4.232  0.00  0.00    -0.065 S 
ATOM      9  C   UNL     1       3.287   0.344   6.078  0.00  0.00    +0.118 C 
ATOM     10  C   UNL     1       2.262  -0.464   5.729  0.00  0.00    +0.079 C 
ATOM     11  C   UNL     1       1.247   0.034   4.720  0.00  0.00    +0.102 C 
ENDROOT
BRANCH   7  12
ATOM     12  C   UNL     1       5.543   5.915   4.633  0.00  0.00    -0.024 A 
ATOM     13  C   UNL     1       4.981   5.867   3.351  0.00  0.00    +0.011 A 
ATOM     14  C   UNL     1       4.977   6.994   2.561  0.00  0.00    +0.046 A 
ATOM     15  C   UNL     1       5.539   8.176   3.029  0.00  0.00    +0.120 A 
ATOM     16  C   UNL     1       6.104   8.228   4.298  0.00  0.00    +0.046 A 
ATOM     17  C   UNL     1       6.109   7.109   5.099  0.00  0.00    +0.011 A 
BRANCH  15  18
ATOM     18  O   UNL     1       5.538   9.283   2.243  0.00  0.00    -0.495 OA
ATOM     19  C   UNL     1       4.941   9.160   0.950  0.00  0.00    +0.277 C 
ENDBRANCH  15  18
ENDBRANCH   7  12
BRANCH  11  20
ATOM     20  C   UNL     1       1.231  -0.924   3.557  0.00  0.00    -0.034 A 
ATOM     21  C   UNL     1       2.342  -1.040   2.742  0.00  0.00    +0.008 A 
ATOM     22  C   UNL     1       2.332  -1.921   1.679  0.00  0.00    +0.046 A 
ATOM     23  C   UNL     1       1.201  -2.682   1.421  0.00  0.00    +0.120 A 
ATOM     24  C   UNL     1       0.085  -2.560   2.236  0.00  0.00    +0.046 A 
ATOM     25  C   UNL     1       0.103  -1.682   3.302  0.00  0.00    +0.008 A 
BRANCH  23  26
ATOM     26  O   UNL     1       1.186  -3.545   0.371  0.00  0.00    -0.495 OA
ATOM     27  C   UNL     1       2.371  -3.618  -0.425  0.00  0.00    +0.277 C 
ENDBRANCH  23  26
ENDBRANCH  11  20
BRANCH   9  28
ATOM     28  N   UNL     1       4.196  -0.125   6.994  0.00  0.00    -0.343 N 
ATOM     29  H   UNL     1       4.353  -1.079   7.078  0.00  0.00    +0.144 HD
ATOM     30  H   UNL     1       4.681   0.497   7.558  0.00  0.00    +0.144 HD
ENDBRANCH   9  28
BRANCH   1  31
ATOM     31  C   UNL     1       0.614   1.998   3.243  0.00  0.00    +0.339 C 
ATOM     32  O   UNL     1       0.822   3.123   2.821  0.00  0.00    -0.245 OA
BRANCH  31  33
ATOM     33  O   UNL     1      -0.456   1.300   2.805  0.00  0.00    -0.459 OA
BRANCH  33  35
ATOM     34  C   UNL     1      -0.808   1.620   0.436  0.00  0.00    +0.052 C 
ATOM     35  C   UNL     1      -1.302   1.940   1.848  0.00  0.00    +0.171 C 
ATOM     36  C   UNL     1      -2.736   1.433   2.014  0.00  0.00    +0.052 C 
ENDBRANCH  33  35
ENDBRANCH  31  33
ENDBRANCH   1  31
BRANCH  10  37
ATOM     37  C   UNL     1       2.136  -1.769   6.305  0.00  0.00    +0.099 C 
ATOM     38  N   UNL     1       2.037  -2.805   6.761  0.00  0.00    -0.191 NA
ENDBRANCH  10  37
TORSDOF 9
