REMARK  Name = ZINC50704036
REMARK  2 active torsions:
REMARK  status: ('A' for Active; 'I' for Inactive)
REMARK    1  A    between atoms: C_2  and  C_9
REMARK    2  A    between atoms: C_6  and  N_7
REMARK                            x       y       z     vdW  Elec       q    Type
REMARK                         _______ _______ _______ _____ _____    ______ ____
ROOT
ATOM      1  C   UNL     1       1.224   3.560   0.009  0.00  0.00    +0.247 C 
ATOM      2  O   UNL     1       0.186   4.188  -0.048  0.00  0.00    -0.270 OA
ATOM      3  N   UNL     1       2.401   4.210   0.103  0.00  0.00    -0.294 N 
ATOM      4  C   UNL     1       3.672   3.473   0.083  0.00  0.00    +0.108 C 
ATOM      5  C   UNL     1       4.491   3.860   1.318  0.00  0.00    +0.019 C 
ATOM      6  C   UNL     1       4.644   5.382   1.371  0.00  0.00    +0.007 C 
ATOM      7  C   UNL     1       3.263   6.029   1.472  0.00  0.00    +0.010 C 
ATOM      8  C   UNL     1       2.444   5.677   0.222  0.00  0.00    +0.079 C 
ATOM      9  C   UNL     1       3.130   6.248  -1.022  0.00  0.00    +0.023 C 
ATOM     10  C   UNL     1       3.248   7.767  -0.894  0.00  0.00    +0.002 C 
ATOM     11  C   UNL     1       4.087   8.108   0.341  0.00  0.00    +0.000 C 
ATOM     12  C   UNL     1       3.400   7.545   1.579  0.00  0.00    +0.005 C 
ENDROOT
BRANCH   1  14
ATOM     13  C   UNL     1       2.013   1.367  -0.906  0.00  0.00    +0.056 A 
ATOM     14  C   UNL     1       1.197   2.079  -0.025  0.00  0.00    +0.043 A 
ATOM     15  C   UNL     1       0.353   1.357   0.826  0.00  0.00    +0.053 A 
ATOM     16  C   UNL     1       0.356  -0.024   0.765  0.00  0.00    +0.132 A 
ATOM     17  N   UNL     1       1.141  -0.664  -0.081  0.00  0.00    -0.221 NA
ATOM     18  C   UNL     1       1.955  -0.022  -0.903  0.00  0.00    +0.119 A 
ATOM     19 CL   UNL     1      -0.687  -0.929   1.817  0.00  0.00    -0.062 Cl
BRANCH  18  20
ATOM     20  N   UNL     1       2.761  -0.745  -1.776  0.00  0.00    -0.343 N 
ATOM     21  H   UNL     1       3.360  -0.279  -2.381  0.00  0.00    +0.144 HD
ATOM     22  H   UNL     1       2.726  -1.714  -1.779  0.00  0.00    +0.144 HD
ENDBRANCH  18  20
ENDBRANCH   1  14
TORSDOF 2
