REMARK  Name = ZINC40303825
REMARK  5 active torsions:
REMARK  status: ('A' for Active; 'I' for Inactive)
REMARK    1  A    between atoms: C_1  and  C_2
REMARK    2  A    between atoms: C_2  and  C_4
REMARK    3  A    between atoms: C_2  and  N_9
REMARK    4  A    between atoms: C_10  and  C_12
REMARK    5  A    between atoms: C_16  and  N_18
REMARK                            x       y       z     vdW  Elec       q    Type
REMARK                         _______ _______ _______ _____ _____    ______ ____
ROOT
ATOM      1  N   UNL     1       0.688  -0.476  -1.203  0.00  0.00    -0.302 N 
ATOM      2  C   UNL     1       0.006  -0.608  -2.358  0.00  0.00    +0.245 C 
ATOM      3  O   UNL     1      -1.177  -0.335  -2.400  0.00  0.00    -0.270 OA
ATOM      4  H   UNL     1       1.632  -0.695  -1.170  0.00  0.00    +0.150 HD
ENDROOT
BRANCH   2   5
ATOM      5  C   UNL     1       0.698  -1.085  -3.575  0.00  0.00    +0.039 A 
ATOM      6  C   UNL     1       2.056  -1.405  -3.528  0.00  0.00    +0.014 A 
ATOM      7  C   UNL     1       2.700  -1.850  -4.664  0.00  0.00    +0.018 A 
ATOM      8  C   UNL     1       2.004  -1.981  -5.852  0.00  0.00    +0.039 A 
ATOM      9  C   UNL     1       0.651  -1.664  -5.909  0.00  0.00    +0.039 A 
ATOM     10  C   UNL     1      -0.005  -1.222  -4.772  0.00  0.00    +0.037 A 
ATOM     11 BR   UNL     1       2.896  -2.591  -7.404  0.00  0.00    -0.048 Br
BRANCH   9  12
ATOM     12  N   UNL     1      -0.048  -1.798  -7.112  0.00  0.00    -0.357 N 
ATOM     13  H   UNL     1       0.411  -2.111  -7.908  0.00  0.00    +0.142 HD
ATOM     14  H   UNL     1      -0.991  -1.577  -7.152  0.00  0.00    +0.142 HD
ENDBRANCH   9  12
ENDBRANCH   2   5
BRANCH   1  16
ATOM     15  C   UNL     1      -0.019   1.526   0.010  0.00  0.00    +0.036 C 
ATOM     16  C   UNL     1       0.002  -0.004   0.002  0.00  0.00    +0.136 C 
BRANCH  16  17
ATOM     17  C   UNL     1       0.731  -0.503   1.223  0.00  0.00    +0.125 A 
ATOM     18  C   UNL     1       0.156  -0.963   2.349  0.00  0.00    +0.046 A 
ATOM     19  C   UNL     1       1.205  -1.322   3.227  0.00  0.00    +0.041 A 
ATOM     20  C   UNL     1       2.358  -1.060   2.584  0.00  0.00    +0.195 A 
ATOM     21  O   UNL     1       2.064  -0.570   1.369  0.00  0.00    -0.466 OA
ENDBRANCH  16  17
ENDBRANCH   1  16
TORSDOF 4
