REMARK  Name = ZINC01423957
REMARK  8 active torsions:
REMARK  status: ('A' for Active; 'I' for Inactive)
REMARK    1  A    between atoms: C_1  and  O_2
REMARK    2  A    between atoms: O_2  and  C_3
REMARK    3  A    between atoms: C_3  and  C_5
REMARK    4  A    between atoms: C_5  and  C_6
REMARK    5  A    between atoms: C_13  and  N_32
REMARK    6  A    between atoms: C_14  and  C_30
REMARK    7  A    between atoms: C_15  and  C_17
REMARK    8  A    between atoms: C_19  and  C_23
REMARK                            x       y       z     vdW  Elec       q    Type
REMARK                         _______ _______ _______ _____ _____    ______ ____
ROOT
ATOM      1  C   UNL     1       1.374  -2.514  -2.380  0.00  0.00    +0.055 A 
ATOM      2  C   UNL     1       2.701  -2.635  -2.534  0.00  0.00    +0.050 A 
ATOM      3  C   UNL     1       2.955  -3.038  -3.863  0.00  0.00    +0.245 A 
ATOM      4  N   UNL     1       1.811  -3.154  -4.473  0.00  0.00    -0.135 NA
ATOM      5  N   UNL     1       0.794  -2.834  -3.560  0.00  0.00    -0.277 N 
ATOM      6  H   UNL     1      -0.158  -2.839  -3.744  0.00  0.00    +0.189 HD
ATOM      7  O   UNL     1       4.217  -3.242  -4.326  0.00  0.00    -0.421 OA
ATOM      8  C   UNL     1       5.237  -2.791  -3.569  0.00  0.00    +0.201 C 
ATOM      9  C   UNL     1       5.118  -2.390  -2.286  0.00  0.00    +0.098 C 
ATOM     10  C   UNL     1       3.809  -2.406  -1.537  0.00  0.00    +0.103 C 
ENDROOT
BRANCH  10  11
ATOM     11  C   UNL     1       3.818  -3.519  -0.522  0.00  0.00    -0.016 A 
ATOM     12  C   UNL     1       3.633  -3.243   0.822  0.00  0.00    +0.016 A 
ATOM     13  C   UNL     1       3.649  -4.308   1.726  0.00  0.00    +0.001 A 
ATOM     14  C   UNL     1       3.849  -5.599   1.243  0.00  0.00    +0.119 A 
ATOM     15  N   UNL     1       4.022  -5.814  -0.045  0.00  0.00    -0.262 NA
ATOM     16  C   UNL     1       4.006  -4.829  -0.923  0.00  0.00    +0.115 A 
BRANCH  13  17
ATOM     17  C   UNL     1       3.456  -4.067   3.178  0.00  0.00    -0.016 A 
ATOM     18  C   UNL     1       3.251  -2.773   3.650  0.00  0.00    +0.011 A 
ATOM     19  C   UNL     1       3.071  -2.554   5.001  0.00  0.00    +0.039 A 
ATOM     20  C   UNL     1       3.096  -3.619   5.886  0.00  0.00    +0.123 A 
ATOM     21  C   UNL     1       3.300  -4.908   5.421  0.00  0.00    +0.039 A 
ATOM     22  C   UNL     1       3.473  -5.136   4.071  0.00  0.00    +0.011 A 
ATOM     23  F   UNL     1       2.921  -3.400   7.208  0.00  0.00    -0.205 F 
ENDBRANCH  13  17
ENDBRANCH  10  11
BRANCH   8  24
ATOM     24  N   UNL     1       6.482  -2.735  -4.143  0.00  0.00    -0.328 N 
ATOM     25  H   UNL     1       6.605  -3.015  -5.063  0.00  0.00    +0.145 HD
ATOM     26  H   UNL     1       7.240  -2.415  -3.628  0.00  0.00    +0.145 HD
ENDBRANCH   8  24
BRANCH   9  27
ATOM     27  C   UNL     1       6.289  -1.929  -1.604  0.00  0.00    +0.101 C 
ATOM     28  N   UNL     1       7.218  -1.563  -1.062  0.00  0.00    -0.191 NA
ENDBRANCH   9  27
BRANCH   1  29
ATOM     29  C   UNL     1       0.657  -2.104  -1.120  0.00  0.00    +0.175 C 
BRANCH  29  30
ATOM     30  C   UNL     1       0.598  -0.600  -1.043  0.00  0.00    +0.313 C 
ATOM     31  O   UNL     1       1.088   0.070  -1.921  0.00  0.00    -0.250 OA
BRANCH  30  33
ATOM     32  C   UNL     1      -0.017   1.425   0.010  0.00  0.00    +0.280 C 
ATOM     33  O   UNL     1       0.002  -0.004   0.002  0.00  0.00    -0.468 OA
ENDBRANCH  30  33
ENDBRANCH  29  30
ENDBRANCH   1  29
TORSDOF 7
