REMARK  Name = ZINC00747584
REMARK  5 active torsions:
REMARK  status: ('A' for Active; 'I' for Inactive)
REMARK    1  A    between atoms: C_3  and  N_11
REMARK    2  A    between atoms: C_6  and  C_7
REMARK    3  A    between atoms: N_14  and  C_15
REMARK    4  A    between atoms: C_18  and  N_29
REMARK    5  A    between atoms: C_19  and  C_21
REMARK                            x       y       z     vdW  Elec       q    Type
REMARK                         _______ _______ _______ _____ _____    ______ ____
ROOT
ATOM      1  C   UNL     1       3.715  -4.556  -0.542  0.00  0.00    +0.036 A 
ATOM      2  C   UNL     1       4.898  -3.827  -0.469  0.00  0.00    +0.025 A 
ATOM      3  C   UNL     1       6.109  -4.474  -0.339  0.00  0.00    +0.026 A 
ATOM      4  C   UNL     1       6.156  -5.862  -0.291  0.00  0.00    +0.042 A 
ATOM      5  C   UNL     1       4.968  -6.603  -0.370  0.00  0.00    +0.060 A 
ATOM      6  C   UNL     1       3.745  -5.938  -0.496  0.00  0.00    +0.038 A 
ENDROOT
BRANCH   5   7
ATOM      7  C   UNL     1       5.008  -8.076  -0.320  0.00  0.00    +0.248 C 
ATOM      8  O   UNL     1       5.686  -8.693  -1.119  0.00  0.00    -0.270 OA
ATOM      9  N   UNL     1       4.294  -8.738   0.611  0.00  0.00    -0.297 N 
ATOM     10  C   UNL     1       3.414  -8.011   1.537  0.00  0.00    +0.108 C 
ATOM     11  C   UNL     1       2.008  -8.625   1.457  0.00  0.00    +0.019 C 
ATOM     12  C   UNL     1       2.098 -10.129   1.727  0.00  0.00    +0.003 C 
ATOM     13  C   UNL     1       2.972 -10.789   0.658  0.00  0.00    +0.019 C 
ATOM     14  C   UNL     1       4.385 -10.200   0.725  0.00  0.00    +0.108 C 
ENDBRANCH   5   7
BRANCH   1  18
ATOM     15  N   UNL     1       1.091  -2.108  -0.095  0.00  0.00    -0.269 N 
ATOM     16  C   UNL     1       2.298  -2.706  -0.049  0.00  0.00    +0.308 C 
ATOM     17  O   UNL     1       3.215  -2.180   0.553  0.00  0.00    -0.252 OA
ATOM     18  N   UNL     1       2.489  -3.887  -0.669  0.00  0.00    -0.269 N 
ATOM     19  H   UNL     1       0.243  -2.618  -0.575  0.00  0.00    +0.156 HD
ATOM     20  H   UNL     1       1.684  -4.327  -1.276  0.00  0.00    +0.156 HD
BRANCH  15  23
ATOM     21  C   UNL     1      -0.117   1.324   0.433  0.00  0.00    +0.014 A 
ATOM     22  C   UNL     1       0.052   0.072  -0.125  0.00  0.00    +0.024 A 
ATOM     23  C   UNL     1       0.917  -0.839   0.467  0.00  0.00    +0.035 A 
ATOM     24  C   UNL     1       1.609  -0.487   1.619  0.00  0.00    +0.024 A 
ATOM     25  C   UNL     1       1.435   0.767   2.171  0.00  0.00    +0.014 A 
ATOM     26  C   UNL     1       0.573   1.671   1.579  0.00  0.00    +0.055 A 
BRANCH  26  27
ATOM     27  C   UNL     1       0.385   3.038   2.186  0.00  0.00    +0.417 C 
ATOM     28  F   UNL     1      -0.664   2.998   3.110  0.00  0.00    -0.166 F 
ATOM     29  F   UNL     1       1.563   3.427   2.833  0.00  0.00    -0.166 F 
ATOM     30  F   UNL     1       0.083   3.958   1.176  0.00  0.00    -0.166 F 
ENDBRANCH  26  27
ENDBRANCH  15  23
ENDBRANCH   1  18
BRANCH   4  31
ATOM     31  N   UNL     1       7.378  -6.514  -0.165  0.00  0.00    -0.329 N 
ATOM     32  C   UNL     1       8.479  -5.543   0.064  0.00  0.00    +0.105 C 
ATOM     33  C   UNL     1       9.597  -6.416   0.689  0.00  0.00    +0.020 C 
ATOM     34  C   UNL     1       8.809  -7.396   1.588  0.00  0.00    +0.020 C 
ATOM     35  C   UNL     1       7.381  -7.412   1.011  0.00  0.00    +0.105 C 
ENDBRANCH   4  31
TORSDOF 5
