REMARK  Name = ZINC09781058
REMARK  9 active torsions:
REMARK  status: ('A' for Active; 'I' for Inactive)
REMARK    1  A    between atoms: C_1  and  C_2
REMARK    2  A    between atoms: C_2  and  C_38
REMARK    3  A    between atoms: C_6  and  C_26
REMARK    4  A    between atoms: C_13  and  S_17
REMARK    5  A    between atoms: S_17  and  C_18
REMARK    6  A    between atoms: C_18  and  C_19
REMARK    7  A    between atoms: C_29  and  N_32
REMARK    8  A    between atoms: N_32  and  C_33
REMARK    9  A    between atoms: N_32  and  C_34
REMARK                            x       y       z     vdW  Elec       q    Type
REMARK                         _______ _______ _______ _____ _____    ______ ____
ROOT
ATOM      1  C   UNL     1       1.783  -1.655   3.050  0.00  0.00    +0.011 C 
ATOM      2  C   UNL     1       1.986  -2.502   1.793  0.00  0.00    -0.023 C 
ATOM      3  C   UNL     1       0.938  -2.123   0.743  0.00  0.00    +0.058 C 
ATOM      4  C   UNL     1       1.101  -0.671   0.365  0.00  0.00    +0.017 C 
ATOM      5  C   UNL     1       2.314  -0.080   0.387  0.00  0.00    +0.024 C 
ATOM      6  C   UNL     1       2.488   1.362  -0.020  0.00  0.00    +0.092 C 
ATOM      7  C   UNL     1       1.182   2.097   0.004  0.00  0.00    +0.069 A 
ATOM      8  C   UNL     1       1.158   3.497   0.019  0.00  0.00    +0.258 A 
ATOM      9  O   UNL     1       2.198   4.136   0.018  0.00  0.00    -0.267 OA
ATOM     10  N   UNL     1      -0.036   4.126   0.037  0.00  0.00    -0.302 N 
ATOM     11  H   UNL     1      -0.073   5.095   0.047  0.00  0.00    +0.171 HD
ATOM     12  C   UNL     1      -1.190   3.402   0.039  0.00  0.00    +0.171 A 
ATOM     13  N   UNL     1      -1.173   2.084   0.020  0.00  0.00    -0.208 NA
ATOM     14  C   UNL     1      -0.019   1.409   0.009  0.00  0.00    +0.135 A 
ATOM     15  N   UNL     1      -0.016   0.028  -0.004  0.00  0.00    -0.302 N 
ATOM     16  C   UNL     1       3.459  -0.792   0.785  0.00  0.00    +0.162 C 
ATOM     17  O   UNL     1       4.538  -0.232   0.787  0.00  0.00    -0.292 OA
ATOM     18  C   UNL     1       3.376  -2.232   1.209  0.00  0.00    +0.086 C 
ATOM     19  C   UNL     1       1.849  -3.985   2.144  0.00  0.00    +0.011 C 
ATOM     20  H   UNL     1      -0.813  -0.451  -0.279  0.00  0.00    +0.153 HD
ENDROOT
BRANCH   6  21
ATOM     21  C   UNL     1       3.059   1.415  -1.414  0.00  0.00    -0.035 A 
ATOM     22  C   UNL     1       2.368   0.841  -2.465  0.00  0.00    +0.006 A 
ATOM     23  C   UNL     1       2.885   0.893  -3.744  0.00  0.00    +0.023 A 
ATOM     24  C   UNL     1       4.107   1.513  -3.973  0.00  0.00    +0.029 A 
ATOM     25  C   UNL     1       4.802   2.084  -2.914  0.00  0.00    +0.023 A 
ATOM     26  C   UNL     1       4.276   2.033  -1.638  0.00  0.00    +0.006 A 
BRANCH  24  27
ATOM     27  N   UNL     1       4.636   1.563  -5.264  0.00  0.00    -0.336 N 
ATOM     28  C   UNL     1       5.860   2.325  -5.526  0.00  0.00    +0.129 C 
ATOM     29  C   UNL     1       3.967   0.854  -6.358  0.00  0.00    +0.129 C 
ENDBRANCH  24  27
ENDBRANCH   6  21
BRANCH  12  30
ATOM     30  S   UNL     1      -2.737   4.245   0.060  0.00  0.00    -0.083 S 
BRANCH  30  31
ATOM     31  C   UNL     1      -3.866   2.830   0.055  0.00  0.00    +0.115 C 
BRANCH  31  32
ATOM     32  C   UNL     1      -5.290   3.323   0.071  0.00  0.00    -0.002 A 
ATOM     33  C   UNL     1      -5.935   3.531   1.276  0.00  0.00    +0.007 A 
ATOM     34  C   UNL     1      -7.239   3.989   1.292  0.00  0.00    +0.000 A 
ATOM     35  C   UNL     1      -7.904   4.228   0.103  0.00  0.00    +0.003 A 
ATOM     36  C   UNL     1      -7.263   4.015  -1.103  0.00  0.00    +0.038 A 
ATOM     37  C   UNL     1      -5.954   3.562  -1.119  0.00  0.00    +0.127 A 
ATOM     38  F   UNL     1      -5.326   3.353  -2.297  0.00  0.00    -0.205 F 
ENDBRANCH  31  32
ENDBRANCH  30  31
ENDBRANCH  12  30
TORSDOF 5
