REMARK  Name = ZINC45339203
REMARK  5 active torsions:
REMARK  status: ('A' for Active; 'I' for Inactive)
REMARK    1  A    between atoms: C_1  and  C_2
REMARK    2  A    between atoms: C_7  and  C_8
REMARK    3  A    between atoms: C_22  and  C_24
REMARK    4  A    between atoms: C_26  and  C_34
REMARK    5  A    between atoms: C_28  and  C_30
REMARK                            x       y       z     vdW  Elec       q    Type
REMARK                         _______ _______ _______ _____ _____    ______ ____
ROOT
ATOM      1  C   UNL     1       2.419   0.532   2.393  0.00  0.00    +0.091 C 
ATOM      2  C   UNL     1       2.182   1.736   3.311  0.00  0.00    -0.055 C 
ATOM      3  N   UNL     1       3.368   1.953   4.149  0.00  0.00    +0.381 N 
ATOM      4  C   UNL     1       3.564   0.806   5.044  0.00  0.00    -0.063 C 
ATOM      5  C   UNL     1       3.869  -0.444   4.212  0.00  0.00    +0.091 C 
ATOM      6  N   UNL     1       2.796  -0.624   3.221  0.00  0.00    -0.282 N 
ATOM      7  C   UNL     1       2.173  -1.810   3.080  0.00  0.00    +0.306 C 
ATOM      8  O   UNL     1       1.745  -2.147   1.993  0.00  0.00    -0.252 OA
ATOM      9  N   UNL     1       2.024  -2.624   4.144  0.00  0.00    -0.275 N 
ATOM     10  C   UNL     1       1.756  -2.087   5.489  0.00  0.00    +0.114 C 
ATOM     11  C   UNL     1       0.395  -2.620   5.946  0.00  0.00    +0.046 C 
ATOM     12  C   UNL     1       0.286  -4.088   5.659  0.00  0.00    -0.027 C 
ATOM     13  C   UNL     1       1.028  -4.729   4.814  0.00  0.00    -0.004 C 
ATOM     14  C   UNL     1       2.117  -4.085   4.009  0.00  0.00    +0.131 C 
ATOM     15  H   UNL     1       4.180   2.060   3.559  0.00  0.00    -0.086 HD
ATOM     16  H   UNL     1       3.242   2.789   4.698  0.00  0.00    -0.086 HD
ENDROOT
BRANCH   1  23
ATOM     17  C   UNL     1       2.261   1.096  -0.435  0.00  0.00    +0.044 C 
ATOM     18  C   UNL     1       1.081   0.489   0.279  0.00  0.00    -0.043 A 
ATOM     19  C   UNL     1      -0.075   0.198  -0.421  0.00  0.00    +0.042 A 
ATOM     20  C   UNL     1      -1.159  -0.360   0.235  0.00  0.00    +0.124 A 
ATOM     21  C   UNL     1      -1.084  -0.625   1.592  0.00  0.00    +0.039 A 
ATOM     22  C   UNL     1       0.072  -0.333   2.289  0.00  0.00    +0.008 A 
ATOM     23  C   UNL     1       1.156   0.219   1.632  0.00  0.00    -0.026 A 
ATOM     24  F   UNL     1      -2.289  -0.645  -0.448  0.00  0.00    -0.205 F 
ENDBRANCH   1  23
BRANCH  14  25
ATOM     25  C   UNL     1       1.964  -4.468   2.559  0.00  0.00    -0.022 A 
ATOM     26  C   UNL     1       0.734  -4.352   1.940  0.00  0.00    +0.018 A 
ATOM     27  C   UNL     1       0.594  -4.702   0.610  0.00  0.00    +0.056 A 
ATOM     28  C   UNL     1       1.685  -5.169  -0.100  0.00  0.00    +0.024 A 
ATOM     29  C   UNL     1       2.915  -5.284   0.519  0.00  0.00    +0.056 A 
ATOM     30  C   UNL     1       3.056  -4.929   1.848  0.00  0.00    +0.018 A 
BRANCH  29  31
ATOM     31  C   UNL     1       4.104  -5.793  -0.255  0.00  0.00    +0.417 C 
ATOM     32  F   UNL     1       3.716  -6.080  -1.568  0.00  0.00    -0.166 F 
ATOM     33  F   UNL     1       5.105  -4.816  -0.268  0.00  0.00    -0.166 F 
ATOM     34  F   UNL     1       4.593  -6.954   0.352  0.00  0.00    -0.166 F 
ENDBRANCH  29  31
BRANCH  27  35
ATOM     35  C   UNL     1      -0.747  -4.577  -0.065  0.00  0.00    +0.417 C 
ATOM     36  F   UNL     1      -0.833  -3.336  -0.705  0.00  0.00    -0.166 F 
ATOM     37  F   UNL     1      -0.891  -5.599  -1.010  0.00  0.00    -0.166 F 
ATOM     38  F   UNL     1      -1.762  -4.680   0.892  0.00  0.00    -0.166 F 
ENDBRANCH  27  35
ENDBRANCH  14  25
TORSDOF 4
