REMARK  Name = ZINC13352877
REMARK  10 active torsions:
REMARK  status: ('A' for Active; 'I' for Inactive)
REMARK    1  A    between atoms: C_1  and  C_2
REMARK    2  A    between atoms: C_5  and  N_9
REMARK    3  A    between atoms: C_6  and  C_8
REMARK    4  A    between atoms: C_10  and  C_27
REMARK    5  A    between atoms: C_13  and  S_14
REMARK    6  A    between atoms: S_14  and  C_15
REMARK    7  A    between atoms: C_15  and  C_16
REMARK    8  A    between atoms: N_18  and  C_19
REMARK    9  A    between atoms: C_23  and  C_25
REMARK   10  A    between atoms: C_27  and  C_28
REMARK                            x       y       z     vdW  Elec       q    Type
REMARK                         _______ _______ _______ _____ _____    ______ ____
ROOT
ATOM      1  N   UNL     1       3.652   3.392  -2.204  0.00  0.00    -0.274 N 
ATOM      2  C   UNL     1       2.849   4.190  -1.432  0.00  0.00    +0.143 A 
ATOM      3  N   UNL     1       2.523   5.225  -2.154  0.00  0.00    -0.133 NA
ATOM      4  N   UNL     1       3.055   5.136  -3.320  0.00  0.00    -0.122 NA
ATOM      5  C   UNL     1       3.756   4.030  -3.409  0.00  0.00    +0.197 A 
ENDROOT
BRANCH   1  10
ATOM      6  C   UNL     1       6.037  -1.538  -0.712  0.00  0.00    +0.044 C 
ATOM      7  C   UNL     1       5.404  -0.229  -1.108  0.00  0.00    -0.050 A 
ATOM      8  C   UNL     1       4.148  -0.217  -1.687  0.00  0.00    +0.005 A 
ATOM      9  C   UNL     1       3.563   0.981  -2.046  0.00  0.00    +0.027 A 
ATOM     10  C   UNL     1       4.241   2.174  -1.836  0.00  0.00    +0.053 A 
ATOM     11  C   UNL     1       5.502   2.159  -1.255  0.00  0.00    -0.026 A 
ATOM     12  C   UNL     1       6.080   0.958  -0.893  0.00  0.00    +0.008 A 
ATOM     13  C   UNL     1       6.239   3.452  -1.019  0.00  0.00    +0.046 C 
ENDBRANCH   1  10
BRANCH   5  14
ATOM     14  S   UNL     1       4.665   3.476  -4.813  0.00  0.00    -0.076 S 
BRANCH  14  15
ATOM     15  C   UNL     1       4.324   4.830  -5.964  0.00  0.00    +0.173 C 
BRANCH  15  16
ATOM     16  C   UNL     1       5.021   4.565  -7.274  0.00  0.00    +0.227 C 
ATOM     17  O   UNL     1       5.683   3.559  -7.415  0.00  0.00    -0.275 OA
ATOM     18  N   UNL     1       4.908   5.446  -8.287  0.00  0.00    -0.285 N 
ATOM     19  H   UNL     1       4.325   6.216  -8.198  0.00  0.00    +0.155 HD
BRANCH  18  20
ATOM     20  C   UNL     1       5.631   5.249  -9.469  0.00  0.00    +0.034 A 
ATOM     21  C   UNL     1       6.122   6.342 -10.174  0.00  0.00    +0.023 A 
ATOM     22  C   UNL     1       6.842   6.153 -11.339  0.00  0.00    +0.003 A 
ATOM     23  C   UNL     1       7.069   4.878 -11.816  0.00  0.00    +0.015 A 
ATOM     24  C   UNL     1       6.575   3.773 -11.118  0.00  0.00    +0.065 A 
ATOM     25  C   UNL     1       5.854   3.964  -9.940  0.00  0.00    +0.038 A 
BRANCH  24  26
ATOM     26  C   UNL     1       6.816   2.407 -11.627  0.00  0.00    +0.387 C 
ATOM     27  O   UNL     1       6.386   1.448 -11.019  0.00  0.00    -0.241 OA
ATOM     28  O   UNL     1       7.514   2.226 -12.765  0.00  0.00    -0.241 OA
ENDBRANCH  24  26
ENDBRANCH  18  20
ENDBRANCH  15  16
ENDBRANCH  14  15
ENDBRANCH   5  14
BRANCH   2  29
ATOM     29  C   UNL     1       2.426   3.923  -0.010  0.00  0.00    +0.111 C 
BRANCH  29  30
ATOM     30  C   UNL     1       1.137   3.144  -0.007  0.00  0.00    -0.040 A 
ATOM     31  C   UNL     1       1.165   1.762  -0.014  0.00  0.00    +0.004 A 
ATOM     32  C   UNL     1      -0.018   1.046  -0.011  0.00  0.00    +0.000 A 
ATOM     33  C   UNL     1      -1.229   1.713  -0.007  0.00  0.00    +0.000 A 
ATOM     34  C   UNL     1      -1.257   3.095   0.005  0.00  0.00    +0.000 A 
ATOM     35  C   UNL     1      -0.074   3.811   0.003  0.00  0.00    +0.004 A 
ENDBRANCH  29  30
ENDBRANCH   2  29
TORSDOF 8
