REMARK  Name = ZINC64589709
REMARK  10 active torsions:
REMARK  status: ('A' for Active; 'I' for Inactive)
REMARK    1  A    between atoms: C_1  and  C_2
REMARK    2  A    between atoms: C_5  and  N_8
REMARK    3  A    between atoms: C_9  and  C_11
REMARK    4  A    between atoms: C_11  and  N_12
REMARK    5  A    between atoms: N_15  and  C_18
REMARK    6  A    between atoms: C_21  and  N_27
REMARK    7  A    between atoms: C_22  and  C_24
REMARK    8  A    between atoms: C_28  and  C_30
REMARK    9  A    between atoms: C_30  and  C_31
REMARK   10  A    between atoms: C_30  and  C_32
REMARK                            x       y       z     vdW  Elec       q    Type
REMARK                         _______ _______ _______ _____ _____    ______ ____
ROOT
ATOM      1  N   UNL     1       0.292  -6.798   2.551  0.00  0.00    -0.291 NA
ATOM      2  C   UNL     1       1.532  -6.330   3.183  0.00  0.00    +0.104 C 
ATOM      3  C   UNL     1       1.535  -6.739   4.660  0.00  0.00    +0.120 C 
ATOM      4  N   UNL     1       1.304  -8.189   4.743  0.00  0.00    -0.327 N 
ATOM      5  C   UNL     1       0.155  -8.754   4.019  0.00  0.00    +0.120 C 
ATOM      6  C   UNL     1       0.207  -8.265   2.567  0.00  0.00    +0.104 C 
ENDROOT
BRANCH   4   7
ATOM      7  C   UNL     1       2.155  -9.010   5.492  0.00  0.00    +0.031 A 
ATOM      8  C   UNL     1       3.163  -8.442   6.266  0.00  0.00    +0.025 A 
ATOM      9  C   UNL     1       4.007  -9.242   7.008  0.00  0.00    +0.026 A 
ATOM     10  C   UNL     1       3.857 -10.622   6.988  0.00  0.00    +0.048 A 
ATOM     11  C   UNL     1       2.842 -11.202   6.210  0.00  0.00    +0.086 A 
ATOM     12  C   UNL     1       1.988 -10.383   5.465  0.00  0.00    +0.040 A 
BRANCH  10  13
ATOM     13  N   UNL     1       4.711 -11.429   7.737  0.00  0.00    -0.285 N 
ATOM     14  C   UNL     1       6.005 -11.084   7.886  0.00  0.00    +0.220 C 
ATOM     15  O   UNL     1       6.408 -10.032   7.438  0.00  0.00    -0.275 OA
ATOM     16  H   UNL     1       4.374 -12.239   8.151  0.00  0.00    +0.155 HD
BRANCH  14  17
ATOM     17  C   UNL     1       6.952 -12.005   8.612  0.00  0.00    +0.069 C 
ATOM     18  C   UNL     1       8.349 -11.381   8.641  0.00  0.00    +0.017 C 
ATOM     19  C   UNL     1       6.459 -12.219  10.044  0.00  0.00    +0.017 C 
ENDBRANCH  14  17
ENDBRANCH  10  13
BRANCH  11  20
ATOM     20  C   UNL     1       2.676 -12.664   6.182  0.00  0.00    +0.388 C 
ATOM     21  O   UNL     1       1.851 -13.172   5.435  0.00  0.00    -0.241 OA
ATOM     22  O   UNL     1       3.364 -13.372   6.905  0.00  0.00    -0.241 OA
ENDBRANCH  11  20
ENDBRANCH   4   7
BRANCH   1  23
ATOM     23  C   UNL     1       0.171  -6.280   1.182  0.00  0.00    +0.180 C 
BRANCH  23  25
ATOM     24  N   UNL     1      -0.114  -4.084   0.078  0.00  0.00    -0.284 N 
ATOM     25  C   UNL     1       0.016  -4.781   1.224  0.00  0.00    +0.231 C 
ATOM     26  O   UNL     1       0.007  -4.203   2.290  0.00  0.00    -0.274 OA
ATOM     27  H   UNL     1      -0.172  -4.552  -0.770  0.00  0.00    +0.155 HD
BRANCH  24  32
ATOM     28  C   UNL     1      -0.315   1.583   0.213  0.00  0.00    +0.044 C 
ATOM     29  C   UNL     1      -0.262   0.078   0.177  0.00  0.00    -0.050 A 
ATOM     30  C   UNL     1      -0.836  -0.657   1.198  0.00  0.00    +0.005 A 
ATOM     31  C   UNL     1      -0.788  -2.037   1.168  0.00  0.00    +0.023 A 
ATOM     32  C   UNL     1      -0.164  -2.687   0.111  0.00  0.00    +0.033 A 
ATOM     33  C   UNL     1       0.412  -1.945  -0.913  0.00  0.00    +0.023 A 
ATOM     34  C   UNL     1       0.357  -0.566  -0.880  0.00  0.00    +0.005 A 
ENDBRANCH  24  32
ENDBRANCH  23  25
ENDBRANCH   1  23
TORSDOF 7
