REMARK  Name = ZINC13358367
REMARK  9 active torsions:
REMARK  status: ('A' for Active; 'I' for Inactive)
REMARK    1  A    between atoms: C_1  and  C_2
REMARK    2  A    between atoms: C_4  and  C_10
REMARK    3  A    between atoms: C_6  and  C_9
REMARK    4  A    between atoms: C_7  and  O_8
REMARK    5  A    between atoms: C_11  and  C_12
REMARK    6  A    between atoms: C_12  and  C_14
REMARK    7  A    between atoms: C_17  and  S_20
REMARK    8  A    between atoms: S_20  and  N_23
REMARK    9  A    between atoms: C_28  and  C_30
REMARK                            x       y       z     vdW  Elec       q    Type
REMARK                         _______ _______ _______ _____ _____    ______ ____
ROOT
ATOM      1  C   UNL     1       3.177  -1.619  -4.114  0.00  0.00    +0.022 A 
ATOM      2  C   UNL     1       3.841  -0.466  -3.692  0.00  0.00    +0.013 A 
ATOM      3  C   UNL     1       3.910  -0.167  -2.347  0.00  0.00    +0.029 A 
ATOM      4  C   UNL     1       3.321  -1.006  -1.417  0.00  0.00    +0.106 A 
ATOM      5  C   UNL     1       2.665  -2.153  -1.829  0.00  0.00    +0.029 A 
ATOM      6  C   UNL     1       2.585  -2.461  -3.171  0.00  0.00    +0.013 A 
ENDROOT
BRANCH   4   7
ATOM      7  S   UNL     1       3.414  -0.616   0.299  0.00  0.00    +0.062 S 
ATOM      8  O   UNL     1       4.666   0.023   0.503  0.00  0.00    -0.153 OA
ATOM      9  O   UNL     1       3.034  -1.790   1.003  0.00  0.00    -0.153 OA
BRANCH   7  10
ATOM     10  N   UNL     1       2.248   0.519   0.607  0.00  0.00    -0.163 NA
ATOM     11  C   UNL     1       2.512   1.946   0.377  0.00  0.00    +0.110 C 
ATOM     12  C   UNL     1       1.415   2.511  -0.530  0.00  0.00    +0.017 C 
ATOM     13  C   UNL     1       0.046   2.217   0.088  0.00  0.00    +0.003 C 
ATOM     14  C   UNL     1      -0.151   0.703   0.199  0.00  0.00    +0.032 C 
ATOM     15  C   UNL     1       0.928   0.117   1.114  0.00  0.00    +0.192 C 
BRANCH  15  16
ATOM     16  C   UNL     1       0.825  -1.386   1.120  0.00  0.00    +0.374 C 
ATOM     17  O   UNL     1       0.780  -1.992   0.076  0.00  0.00    -0.245 OA
ATOM     18  O   UNL     1       0.783  -2.052   2.285  0.00  0.00    -0.245 OA
ENDBRANCH  15  16
ENDBRANCH   7  10
ENDBRANCH   4   7
BRANCH   1  19
ATOM     19  C   UNL     1       3.100  -1.946  -5.554  0.00  0.00    +0.186 C 
ATOM     20  O   UNL     1       3.617  -1.210  -6.375  0.00  0.00    -0.287 OA
BRANCH  19  22
ATOM     21  C   UNL     1       2.354  -3.417  -7.297  0.00  0.00    +0.012 C 
ATOM     22  C   UNL     1       2.424  -3.118  -5.980  0.00  0.00    +0.052 C 
BRANCH  21  26
ATOM     23  C   UNL     1       0.842  -6.420 -10.975  0.00  0.00    +0.047 C 
ATOM     24  C   UNL     1       0.922  -6.082  -9.508  0.00  0.00    -0.008 A 
ATOM     25  C   UNL     1       1.579  -4.944  -9.101  0.00  0.00    +0.015 A 
ATOM     26  C   UNL     1       1.653  -4.631  -7.737  0.00  0.00    -0.024 A 
ATOM     27  C   UNL     1       1.063  -5.483  -6.796  0.00  0.00    +0.015 A 
ATOM     28  C   UNL     1       0.404  -6.616  -7.214  0.00  0.00    -0.008 A 
ATOM     29  C   UNL     1       0.333  -6.922  -8.569  0.00  0.00    +0.123 A 
ATOM     30  C   UNL     1      -0.237  -7.531  -6.202  0.00  0.00    +0.047 C 
BRANCH  29  31
ATOM     31  O   UNL     1      -0.313  -8.043  -8.976  0.00  0.00    -0.506 OA
ATOM     32  H   UNL     1       0.253  -8.826  -9.030  0.00  0.00    +0.292 HD
ENDBRANCH  29  31
ENDBRANCH  21  26
ENDBRANCH  19  22
ENDBRANCH   1  19
TORSDOF 7
