REMARK  Name = ZINC02625100
REMARK  10 active torsions:
REMARK  status: ('A' for Active; 'I' for Inactive)
REMARK    1  A    between atoms: C_1  and  C_2
REMARK    2  A    between atoms: C_2  and  C_4
REMARK    3  A    between atoms: C_2  and  N_50
REMARK    4  A    between atoms: C_7  and  S_16
REMARK    5  A    between atoms: N_8  and  C_9
REMARK    6  A    between atoms: S_16  and  C_17
REMARK    7  A    between atoms: C_17  and  C_18
REMARK    8  A    between atoms: N_20  and  C_21
REMARK    9  A    between atoms: C_32  and  N_50
REMARK   10  A    between atoms: C_33  and  N_50
REMARK                            x       y       z     vdW  Elec       q    Type
REMARK                         _______ _______ _______ _____ _____    ______ ____
ROOT
ATOM      1  C   UNL     1      -5.810   7.549   1.405  0.00  0.00    +0.125 A 
ATOM      2  N   UNL     1      -6.143   6.357   0.997  0.00  0.00    -0.135 NA
ATOM      3  N   UNL     1      -5.093   5.631   0.849  0.00  0.00    -0.122 NA
ATOM      4  C   UNL     1      -4.022   6.325   1.156  0.00  0.00    +0.197 A 
ATOM      5  N   UNL     1      -4.446   7.572   1.526  0.00  0.00    -0.275 N 
ENDROOT
BRANCH   5   6
ATOM      6  C   UNL     1      -3.649   8.650   1.941  0.00  0.00    +0.050 A 
ATOM      7  C   UNL     1      -3.759   9.137   3.236  0.00  0.00    +0.029 A 
ATOM      8  C   UNL     1      -2.969  10.194   3.645  0.00  0.00    +0.040 A 
ATOM      9  C   UNL     1      -2.078  10.776   2.759  0.00  0.00    +0.124 A 
ATOM     10  C   UNL     1      -1.972  10.295   1.465  0.00  0.00    +0.040 A 
ATOM     11  C   UNL     1      -2.755   9.234   1.055  0.00  0.00    +0.029 A 
ATOM     12  F   UNL     1      -1.311  11.814   3.159  0.00  0.00    -0.205 F 
ENDBRANCH   5   6
BRANCH   1  14
ATOM     13  C   UNL     1      -7.465   8.436   3.024  0.00  0.00    -0.005 C 
ATOM     14  C   UNL     1      -6.751   8.690   1.694  0.00  0.00    -0.003 C 
BRANCH  14  17
ATOM     15  C   UNL     1      -8.682   9.894   0.866  0.00  0.00    -0.096 C 
ATOM     16  C   UNL     1      -7.090   8.940  -0.690  0.00  0.00    -0.096 C 
ATOM     17  N   UNL     1      -7.760   8.766   0.616  0.00  0.00    +0.382 N 
ATOM     18  H   UNL     1      -8.298   7.892   0.601  0.00  0.00    -0.082 HD
ENDBRANCH  14  17
ENDBRANCH   1  14
BRANCH   4  19
ATOM     19  S   UNL     1      -2.355   5.756   1.108  0.00  0.00    -0.076 S 
BRANCH  19  20
ATOM     20  C   UNL     1      -2.619   4.057   0.543  0.00  0.00    +0.173 C 
BRANCH  20  21
ATOM     21  C   UNL     1      -1.290   3.355   0.426  0.00  0.00    +0.228 C 
ATOM     22  O   UNL     1      -0.266   3.946   0.697  0.00  0.00    -0.275 OA
ATOM     23  N   UNL     1      -1.240   2.071   0.019  0.00  0.00    -0.280 N 
ATOM     24  H   UNL     1      -2.051   1.621  -0.267  0.00  0.00    +0.155 HD
BRANCH  23  25
ATOM     25  C   UNL     1      -0.017   1.385   0.011  0.00  0.00    +0.111 A 
ATOM     26  C   UNL     1       0.772   1.384  -1.133  0.00  0.00    +0.185 A 
ATOM     27  C   UNL     1       1.978   0.703  -1.141  0.00  0.00    +0.198 A 
ATOM     28  C   UNL     1       2.396   0.020  -0.010  0.00  0.00    +0.199 A 
ATOM     29  C   UNL     1       1.610   0.019   1.132  0.00  0.00    +0.198 A 
ATOM     30  C   UNL     1       0.405   0.700   1.144  0.00  0.00    +0.185 A 
ATOM     31  F   UNL     1      -0.361   0.699   2.257  0.00  0.00    -0.200 F 
ATOM     32  F   UNL     1       2.021  -0.647   2.233  0.00  0.00    -0.199 F 
ATOM     33  F   UNL     1       3.572  -0.645  -0.020  0.00  0.00    -0.199 F 
ATOM     34  F   UNL     1       2.746   0.702  -2.252  0.00  0.00    -0.199 F 
ATOM     35  F   UNL     1       0.364   2.049  -2.236  0.00  0.00    -0.200 F 
ENDBRANCH  23  25
ENDBRANCH  20  21
ENDBRANCH  19  20
ENDBRANCH   4  19
TORSDOF 7
