REMARK  Name = ZINC20720219
REMARK  5 active torsions:
REMARK  status: ('A' for Active; 'I' for Inactive)
REMARK    1  A    between atoms: C_4  and  C_7
REMARK    2  A    between atoms: C_7  and  N_8
REMARK    3  A    between atoms: N_8  and  S_9
REMARK    4  A    between atoms: S_9  and  C_12
REMARK    5  A    between atoms: C_25  and  C_28
REMARK                            x       y       z     vdW  Elec       q    Type
REMARK                         _______ _______ _______ _____ _____    ______ ____
ROOT
ATOM      1  C   UNL     1       6.980   8.170  -0.948  0.00  0.00    +0.106 A 
ATOM      2  C   UNL     1       7.465   7.164  -0.131  0.00  0.00    +0.030 A 
ATOM      3  C   UNL     1       6.625   6.162   0.308  0.00  0.00    +0.025 A 
ATOM      4  C   UNL     1       5.287   6.153  -0.067  0.00  0.00    +0.031 A 
ATOM      5  C   UNL     1       4.801   7.179  -0.886  0.00  0.00    -0.018 A 
ATOM      6  C   UNL     1       5.649   8.174  -1.322  0.00  0.00    +0.034 A 
ATOM      7  C   UNL     1       3.367   7.143  -1.249  0.00  0.00    +0.049 C 
ATOM      8  C   UNL     1       2.859   7.764  -2.499  0.00  0.00    -0.023 C 
ATOM      9  C   UNL     1       1.810   7.069  -2.922  0.00  0.00    -0.030 C 
ATOM     10  C   UNL     1       1.554   5.887  -1.985  0.00  0.00    +0.033 C 
ATOM     11  C   UNL     1       2.951   5.649  -1.399  0.00  0.00    +0.029 C 
ATOM     12  C   UNL     1       3.027   5.065   0.000  0.00  0.00    +0.107 C 
ATOM     13  N   UNL     1       4.458   5.114   0.374  0.00  0.00    -0.336 N 
ATOM     14  H   UNL     1       4.888   4.326   1.009  0.00  0.00    +0.147 HD
ENDROOT
BRANCH  12  15
ATOM     15  C   UNL     1       2.539   3.639  -0.003  0.00  0.00    -0.002 A 
ATOM     16  C   UNL     1       3.301   2.534  -0.016  0.00  0.00    +0.089 A 
ATOM     17  N   UNL     1       2.507   1.420  -0.014  0.00  0.00    -0.360 N 
ATOM     18  H   UNL     1       2.964   0.419  -0.023  0.00  0.00    +0.165 HD
ATOM     19  C   UNL     1       1.181   1.790   0.000  0.00  0.00    +0.047 A 
ATOM     20  C   UNL     1       1.143   3.196   0.008  0.00  0.00    +0.005 A 
ATOM     21  C   UNL     1      -0.085   3.860   0.023  0.00  0.00    +0.010 A 
ATOM     22  C   UNL     1      -1.246   3.138   0.030  0.00  0.00    +0.001 A 
ATOM     23  C   UNL     1      -1.214   1.751   0.017  0.00  0.00    +0.002 A 
ATOM     24  C   UNL     1      -0.013   1.076   0.008  0.00  0.00    +0.026 A 
ENDBRANCH  12  15
BRANCH   1  25
ATOM     25  S   UNL     1       8.058   9.445  -1.510  0.00  0.00    +0.059 S 
ATOM     26  O   UNL     1       7.238  10.564  -1.816  0.00  0.00    -0.153 OA
ATOM     27  O   UNL     1       9.126   9.515  -0.576  0.00  0.00    -0.153 OA
BRANCH  25  28
ATOM     28  N   UNL     1       8.714   8.934  -2.942  0.00  0.00    -0.186 NA
ATOM     29  H   UNL     1       9.759   8.591  -2.963  0.00  0.00    +0.148 HD
BRANCH  28  30
ATOM     30  C   UNL     1       7.855   8.736  -4.112  0.00  0.00    +0.141 C 
BRANCH  30  34
ATOM     31  C   UNL     1      10.273   8.454  -7.623  0.00  0.00    +0.000 A 
ATOM     32  C   UNL     1       9.957   7.313  -6.908  0.00  0.00    +0.000 A 
ATOM     33  C   UNL     1       9.174   7.405  -5.772  0.00  0.00    +0.005 A 
ATOM     34  C   UNL     1       8.708   8.636  -5.351  0.00  0.00    -0.032 A 
ATOM     35  C   UNL     1       9.020   9.775  -6.069  0.00  0.00    +0.005 A 
ATOM     36  C   UNL     1       9.806   9.685  -7.202  0.00  0.00    +0.000 A 
ENDBRANCH  30  34
ENDBRANCH  28  30
ENDBRANCH  25  28
ENDBRANCH   1  25
TORSDOF 5
