REMARK  Name = ZINC03198766
REMARK  10 active torsions:
REMARK  status: ('A' for Active; 'I' for Inactive)
REMARK    1  A    between atoms: C_1  and  C_2
REMARK    2  A    between atoms: C_7  and  C_8
REMARK    3  A    between atoms: N_10  and  C_11
REMARK    4  A    between atoms: C_11  and  N_13
REMARK    5  A    between atoms: N_13  and  C_14
REMARK    6  A    between atoms: C_16  and  C_25
REMARK    7  A    between atoms: N_18  and  C_19
REMARK    8  A    between atoms: C_27  and  C_38
REMARK    9  A    between atoms: N_28  and  C_31
REMARK   10  A    between atoms: C_29  and  C_30
REMARK                            x       y       z     vdW  Elec       q    Type
REMARK                         _______ _______ _______ _____ _____    ______ ____
ROOT
ATOM      1  C   UNL     1       1.975   4.410   0.873  0.00  0.00    +0.128 A 
ATOM      2  C   UNL     1       1.726   5.696   0.512  0.00  0.00    +0.074 A 
ATOM      3  C   UNL     1       0.486   5.723  -0.153  0.00  0.00    +0.097 A 
ATOM      4  N   UNL     1       0.013   4.495  -0.193  0.00  0.00    -0.165 NA
ATOM      5  N   UNL     1       0.931   3.649   0.442  0.00  0.00    -0.218 N 
ENDROOT
BRANCH   3   6
ATOM      6  C   UNL     1      -0.175   6.928  -0.714  0.00  0.00    +0.023 A 
ATOM      7  C   UNL     1       0.321   8.257  -0.673  0.00  0.00    +0.033 A 
ATOM      8  C   UNL     1      -0.579   9.042  -1.295  0.00  0.00    +0.022 A 
ATOM      9  N   UNL     1      -1.619   8.261  -1.714  0.00  0.00    -0.317 N 
ATOM     10  C   UNL     1      -1.372   6.968  -1.358  0.00  0.00    +0.030 A 
ATOM     11  C   UNL     1      -2.269   5.788  -1.632  0.00  0.00    +0.064 C 
ATOM     12  C   UNL     1      -0.461  10.531  -1.491  0.00  0.00    +0.064 C 
BRANCH   9  13
ATOM     13  C   UNL     1      -2.756   8.716  -2.397  0.00  0.00    +0.047 A 
ATOM     14  C   UNL     1      -2.991   8.307  -3.703  0.00  0.00    +0.029 A 
ATOM     15  C   UNL     1      -4.114   8.752  -4.373  0.00  0.00    +0.040 A 
ATOM     16  C   UNL     1      -4.999   9.614  -3.747  0.00  0.00    +0.124 A 
ATOM     17  C   UNL     1      -4.762  10.027  -2.446  0.00  0.00    +0.040 A 
ATOM     18  C   UNL     1      -3.643   9.581  -1.772  0.00  0.00    +0.029 A 
ATOM     19  F   UNL     1      -6.093  10.053  -4.406  0.00  0.00    -0.205 F 
ENDBRANCH   9  13
ENDBRANCH   3   6
BRANCH   5  20
ATOM     20  C   UNL     1       0.796   2.265   0.609  0.00  0.00    +0.067 A 
ATOM     21  C   UNL     1      -0.458   1.710   0.827  0.00  0.00    +0.028 A 
ATOM     22  C   UNL     1      -0.587   0.344   0.991  0.00  0.00    +0.002 A 
ATOM     23  C   UNL     1       0.530  -0.469   0.938  0.00  0.00    +0.000 A 
ATOM     24  C   UNL     1       1.780   0.081   0.721  0.00  0.00    +0.002 A 
ATOM     25  C   UNL     1       1.916   1.446   0.557  0.00  0.00    +0.028 A 
ENDBRANCH   5  20
BRANCH   1  26
ATOM     26  N   UNL     1       3.099   3.951   1.559  0.00  0.00    -0.281 N 
ATOM     27  H   UNL     1       3.055   3.124   2.064  0.00  0.00    +0.155 HD
BRANCH  26  28
ATOM     28  C   UNL     1       4.247   4.656   1.519  0.00  0.00    +0.142 C 
ATOM     29  S   UNL     1       4.303   6.155   0.694  0.00  0.00    -0.018 S 
BRANCH  28  32
ATOM     30  C   UNL     1       6.499   4.886   2.090  0.00  0.00    +0.250 C 
ATOM     31  O   UNL     1       6.538   5.950   1.504  0.00  0.00    -0.270 OA
ATOM     32  N   UNL     1       5.351   4.181   2.129  0.00  0.00    -0.264 N 
ATOM     33  H   UNL     1       5.319   3.332   2.597  0.00  0.00    +0.157 HD
BRANCH  30  40
ATOM     34  C   UNL     1       8.904   6.493   2.147  0.00  0.00    +0.044 C 
ATOM     35  C   UNL     1       8.876   5.132   2.792  0.00  0.00    -0.038 A 
ATOM     36  C   UNL     1      10.002   4.639   3.419  0.00  0.00    +0.004 A 
ATOM     37  C   UNL     1       9.978   3.390   4.012  0.00  0.00    +0.000 A 
ATOM     38  C   UNL     1       8.825   2.625   3.982  0.00  0.00    +0.001 A 
ATOM     39  C   UNL     1       7.689   3.108   3.364  0.00  0.00    +0.013 A 
ATOM     40  C   UNL     1       7.709   4.366   2.758  0.00  0.00    +0.040 A 
ENDBRANCH  30  40
ENDBRANCH  28  32
ENDBRANCH  26  28
ENDBRANCH   1  26
TORSDOF 7
