REMARK  Name = ZINC03007298
REMARK  8 active torsions:
REMARK  status: ('A' for Active; 'I' for Inactive)
REMARK    1  A    between atoms: C_1  and  C_2
REMARK    2  A    between atoms: C_10  and  N_15
REMARK    3  A    between atoms: C_11  and  C_12
REMARK    4  A    between atoms: C_16  and  C_18
REMARK    5  A    between atoms: C_21  and  S_24
REMARK    6  A    between atoms: S_24  and  N_27
REMARK    7  A    between atoms: N_27  and  C_28
REMARK    8  A    between atoms: N_27  and  C_29
REMARK                            x       y       z     vdW  Elec       q    Type
REMARK                         _______ _______ _______ _____ _____    ______ ____
ROOT
ATOM      1  N   UNL     1      -3.770  -1.454  -6.235  0.00  0.00    -0.275 N 
ATOM      2  C   UNL     1      -3.765  -0.536  -7.222  0.00  0.00    +0.249 C 
ATOM      3  O   UNL     1      -3.022   0.423  -7.157  0.00  0.00    -0.270 OA
ATOM      4  H   UNL     1      -4.364  -2.219  -6.287  0.00  0.00    +0.156 HD
ENDROOT
BRANCH   1  14
ATOM      5  C   UNL     1      -0.023   1.503   0.011  0.00  0.00    +0.109 C 
ATOM      6  C   UNL     1       0.002  -0.004   0.002  0.00  0.00    +0.213 C 
ATOM      7  O   UNL     1       0.116  -0.615   1.044  0.00  0.00    -0.276 OA
ATOM      8  N   UNL     1      -0.102  -0.673  -1.163  0.00  0.00    -0.297 N 
ATOM      9  C   UNL     1      -0.200  -2.140  -1.194  0.00  0.00    +0.113 C 
ATOM     10  C   UNL     1      -1.560  -2.551  -1.762  0.00  0.00    +0.056 C 
ATOM     11  C   UNL     1      -1.832  -1.757  -3.031  0.00  0.00    -0.020 A 
ATOM     12  C   UNL     1      -1.174  -0.609  -3.302  0.00  0.00    +0.013 A 
ATOM     13  S   UNL     1      -1.828  -0.069  -4.853  0.00  0.00    -0.076 S 
ATOM     14  C   UNL     1      -2.927  -1.304  -5.146  0.00  0.00    +0.085 A 
ATOM     15  C   UNL     1      -2.796  -2.140  -4.048  0.00  0.00    +0.068 A 
ATOM     16  C   UNL     1      -0.127   0.041  -2.456  0.00  0.00    +0.150 C 
BRANCH  15  17
ATOM     17  C   UNL     1      -3.599  -3.360  -3.918  0.00  0.00    +0.244 C 
ATOM     18  O   UNL     1      -4.680  -3.321  -3.360  0.00  0.00    -0.270 OA
ATOM     19  N   UNL     1      -3.139  -4.525  -4.416  0.00  0.00    -0.325 N 
ATOM     20  H   UNL     1      -2.277  -4.557  -4.860  0.00  0.00    +0.145 HD
ATOM     21  H   UNL     1      -3.670  -5.333  -4.330  0.00  0.00    +0.145 HD
ENDBRANCH  15  17
ENDBRANCH   1  14
BRANCH   2  22
ATOM     22  C   UNL     1      -4.665  -0.696  -8.384  0.00  0.00    +0.037 A 
ATOM     23  C   UNL     1      -5.525  -1.793  -8.459  0.00  0.00    +0.015 A 
ATOM     24  C   UNL     1      -6.362  -1.936  -9.546  0.00  0.00    +0.029 A 
ATOM     25  C   UNL     1      -6.351  -0.995 -10.560  0.00  0.00    +0.106 A 
ATOM     26  C   UNL     1      -5.501   0.095 -10.492  0.00  0.00    +0.029 A 
ATOM     27  C   UNL     1      -4.663   0.253  -9.408  0.00  0.00    +0.015 A 
BRANCH  25  28
ATOM     28  S   UNL     1      -7.424  -1.185 -11.945  0.00  0.00    +0.061 S 
ATOM     29  O   UNL     1      -6.834  -0.463 -13.017  0.00  0.00    -0.153 OA
ATOM     30  O   UNL     1      -7.728  -2.570 -12.036  0.00  0.00    -0.153 OA
BRANCH  28  31
ATOM     31  N   UNL     1      -8.841  -0.412 -11.576  0.00  0.00    -0.177 NA
ATOM     32  C   UNL     1      -9.013   1.003 -11.913  0.00  0.00    +0.132 C 
BRANCH  31  33
ATOM     33  C   UNL     1      -9.923  -1.144 -10.913  0.00  0.00    +0.080 C 
ATOM     34  C   UNL     1     -11.171  -1.124 -11.799  0.00  0.00    +0.020 C 
ATOM     35  C   UNL     1     -12.301  -1.888 -11.107  0.00  0.00    +0.002 C 
ATOM     36  C   UNL     1     -12.618  -1.225  -9.765  0.00  0.00    +0.000 C 
ATOM     37  C   UNL     1     -11.370  -1.245  -8.879  0.00  0.00    +0.002 C 
ATOM     38  C   UNL     1     -10.240  -0.481  -9.572  0.00  0.00    +0.020 C 
ENDBRANCH  31  33
ENDBRANCH  28  31
ENDBRANCH  25  28
ENDBRANCH   2  22
TORSDOF 6
