REMARK  Name = ZINC35057842
REMARK  8 active torsions:
REMARK  status: ('A' for Active; 'I' for Inactive)
REMARK    1  A    between atoms: C_1  and  C_2
REMARK    2  A    between atoms: N_4  and  C_5
REMARK    3  A    between atoms: C_7  and  O_38
REMARK    4  A    between atoms: C_15  and  C_18
REMARK    5  A    between atoms: C_25  and  O_27
REMARK    6  A    between atoms: O_27  and  C_28
REMARK    7  A    between atoms: O_38  and  C_39
REMARK    8  A    between atoms: C_39  and  C_40
REMARK                            x       y       z     vdW  Elec       q    Type
REMARK                         _______ _______ _______ _____ _____    ______ ____
ROOT
ATOM      1  C   UNL     1       1.961  -2.124  -1.227  0.00  0.00    +0.173 C 
ATOM      2  C   UNL     1       0.794  -2.576  -2.111  0.00  0.00    +0.176 C 
ATOM      3  C   UNL     1       0.996  -2.037  -3.528  0.00  0.00    +0.183 C 
ATOM      4  C   UNL     1       2.354  -2.501  -4.066  0.00  0.00    +0.179 C 
ATOM      5  C   UNL     1       2.584  -1.851  -5.436  0.00  0.00    +0.197 C 
ATOM      6  O   UNL     1       2.455  -0.432  -5.301  0.00  0.00    -0.345 OA
ATOM      7  C   UNL     1       1.187  -0.013  -4.792  0.00  0.00    +0.282 C 
ATOM      8  O   UNL     1       0.965  -0.608  -3.511  0.00  0.00    -0.339 OA
ATOM      9  O   UNL     1       3.387  -2.099  -3.164  0.00  0.00    -0.332 OA
ATOM     10  C   UNL     1       3.275  -2.607  -1.848  0.00  0.00    +0.331 C 
ENDROOT
BRANCH   7  11
ATOM     11  C   UNL     1       1.171   1.488  -4.658  0.00  0.00    +0.008 A 
ATOM     12  C   UNL     1       0.314   2.092  -3.757  0.00  0.00    +0.008 A 
ATOM     13  C   UNL     1       0.299   3.469  -3.634  0.00  0.00    +0.000 A 
ATOM     14  C   UNL     1       1.142   4.241  -4.411  0.00  0.00    +0.000 A 
ATOM     15  C   UNL     1       2.000   3.637  -5.310  0.00  0.00    +0.000 A 
ATOM     16  C   UNL     1       2.018   2.260  -5.431  0.00  0.00    +0.008 A 
ENDBRANCH   7  11
BRANCH   1  20
ATOM     17  C   UNL     1       1.214   1.460  -0.113  0.00  0.00    +0.109 C 
ATOM     18  C   UNL     1       1.303  -0.044  -0.141  0.00  0.00    +0.210 C 
ATOM     19  O   UNL     1       0.775  -0.699   0.733  0.00  0.00    -0.276 OA
ATOM     20  N   UNL     1       1.969  -0.662  -1.137  0.00  0.00    -0.304 N 
ATOM     21  H   UNL     1       2.455  -0.138  -1.793  0.00  0.00    +0.149 HD
ENDBRANCH   1  20
BRANCH  10  22
ATOM     22  O   UNL     1       3.282  -4.035  -1.898  0.00  0.00    -0.461 OA
BRANCH  22  23
ATOM     23  C   UNL     1       4.455  -4.634  -2.227  0.00  0.00    +0.132 A 
ATOM     24  C   UNL     1       5.565  -3.879  -2.486  0.00  0.00    +0.046 A 
ATOM     25  C   UNL     1       6.775  -4.478  -2.824  0.00  0.00    +0.004 A 
ATOM     26  C   UNL     1       6.889  -5.833  -2.906  0.00  0.00    +0.009 A 
ATOM     27  C   UNL     1       5.772  -6.645  -2.646  0.00  0.00    -0.014 A 
ATOM     28  C   UNL     1       4.540  -6.040  -2.297  0.00  0.00    +0.024 A 
ATOM     29  C   UNL     1       3.424  -6.851  -2.032  0.00  0.00    +0.012 A 
ATOM     30  C   UNL     1       3.543  -8.205  -2.110  0.00  0.00    +0.001 A 
ATOM     31  C   UNL     1       4.756  -8.801  -2.448  0.00  0.00    +0.001 A 
ATOM     32  C   UNL     1       5.855  -8.046  -2.721  0.00  0.00    +0.008 A 
ENDBRANCH  22  23
ENDBRANCH  10  22
BRANCH   2  33
ATOM     33  O   UNL     1      -0.432  -2.070  -1.578  0.00  0.00    -0.361 OA
BRANCH  33  34
ATOM     34  C   UNL     1      -1.061  -2.943  -0.638  0.00  0.00    +0.285 C 
BRANCH  34  35
ATOM     35  C   UNL     1      -2.337  -2.314  -0.143  0.00  0.00    +0.381 C 
ATOM     36  O   UNL     1      -2.677  -1.219  -0.558  0.00  0.00    -0.244 OA
ATOM     37  O   UNL     1      -3.030  -2.899   0.671  0.00  0.00    -0.244 OA
ENDBRANCH  34  35
ENDBRANCH  33  34
ENDBRANCH   2  33
TORSDOF 7
