REMARK  Name = ZINC59331437
REMARK  7 active torsions:
REMARK  status: ('A' for Active; 'I' for Inactive)
REMARK    1  A    between atoms: C_5  and  C_7
REMARK    2  A    between atoms: C_11  and  N_16
REMARK    3  A    between atoms: N_16  and  C_17
REMARK    4  A    between atoms: C_17  and  N_19
REMARK    5  A    between atoms: C_20  and  C_22
REMARK    6  A    between atoms: C_25  and  N_31
REMARK    7  A    between atoms: C_26  and  N_28
REMARK                            x       y       z     vdW  Elec       q    Type
REMARK                         _______ _______ _______ _____ _____    ______ ____
ROOT
ATOM      1  C   UNL     1       0.644  -9.007  -0.163  0.00  0.00    +0.141 C 
ATOM      2  S   UNL     1       2.356  -8.981  -0.173  0.00  0.00    -0.018 S 
ENDROOT
BRANCH   1   3
ATOM      3  N   UNL     1      -0.013 -10.179  -0.268  0.00  0.00    -0.264 N 
ATOM      4  C   UNL     1       0.678 -11.331  -0.381  0.00  0.00    +0.250 C 
ATOM      5  O   UNL     1       1.894 -11.312  -0.388  0.00  0.00    -0.270 OA
ATOM      6  H   UNL     1      -0.983 -10.194  -0.263  0.00  0.00    +0.157 HD
BRANCH   4   7
ATOM      7  C   UNL     1      -0.040 -12.614  -0.495  0.00  0.00    +0.039 A 
ATOM      8  C   UNL     1      -1.438 -12.636  -0.493  0.00  0.00    +0.015 A 
ATOM      9  C   UNL     1      -2.103 -13.824  -0.600  0.00  0.00    +0.026 A 
ATOM     10  C   UNL     1      -1.393 -15.017  -0.712  0.00  0.00    +0.060 A 
ATOM     11  C   UNL     1      -0.001 -15.004  -0.714  0.00  0.00    +0.148 A 
ATOM     12  C   UNL     1       0.675 -13.809  -0.612  0.00  0.00    +0.047 A 
BRANCH  10  13
ATOM     13  N   UNL     1      -2.076 -16.223  -0.820  0.00  0.00    -0.328 N 
ATOM     14  C   UNL     1      -2.445 -16.985   0.382  0.00  0.00    +0.105 C 
ATOM     15  C   UNL     1      -3.949 -17.273   0.340  0.00  0.00    +0.019 C 
ATOM     16  C   UNL     1      -4.295 -17.971  -0.977  0.00  0.00    +0.003 C 
ATOM     17  C   UNL     1      -3.946 -17.051  -2.150  0.00  0.00    +0.019 C 
ATOM     18  C   UNL     1      -2.448 -16.758  -2.137  0.00  0.00    +0.105 C 
ENDBRANCH  10  13
BRANCH  11  19
ATOM     19  N   UNL     1       0.751 -16.273  -0.833  0.00  0.00    +0.058 N 
ATOM     20  O   UNL     1       1.960 -16.261  -0.835  0.00  0.00    -0.126 OA
ATOM     21  O   UNL     1       0.157 -17.322  -0.927  0.00  0.00    -0.126 OA
ENDBRANCH  11  19
ENDBRANCH   4   7
ENDBRANCH   1   3
BRANCH   1  22
ATOM     22  N   UNL     1      -0.047  -7.856  -0.051  0.00  0.00    -0.297 N 
ATOM     23  H   UNL     1      -1.015  -7.875   0.017  0.00  0.00    +0.154 HD
BRANCH  22  28
ATOM     24  C   UNL     1       1.602  -2.337  -1.023  0.00  0.00    +0.231 A 
ATOM     25  N   UNL     1       0.661  -3.166  -1.400  0.00  0.00    -0.209 NA
ATOM     26  C   UNL     1       0.854  -4.357  -0.777  0.00  0.00    +0.112 A 
ATOM     27  C   UNL     1       0.173  -5.577  -0.800  0.00  0.00    +0.054 A 
ATOM     28  C   UNL     1       0.632  -6.631  -0.031  0.00  0.00    +0.035 A 
ATOM     29  C   UNL     1       1.765  -6.479   0.764  0.00  0.00    +0.027 A 
ATOM     30  C   UNL     1       2.442  -5.278   0.793  0.00  0.00    +0.050 A 
ATOM     31  C   UNL     1       1.996  -4.212   0.027  0.00  0.00    +0.156 A 
ATOM     32  O   UNL     1       2.434  -2.946  -0.158  0.00  0.00    -0.435 OA
BRANCH  24  37
ATOM     33  C   UNL     1       0.941   0.895  -2.816  0.00  0.00    +0.001 A 
ATOM     34  C   UNL     1       1.983   1.680  -2.352  0.00  0.00    +0.003 A 
ATOM     35  C   UNL     1       2.902   1.163  -1.458  0.00  0.00    +0.039 A 
ATOM     36  C   UNL     1       2.785  -0.143  -1.020  0.00  0.00    +0.136 A 
ATOM     37  C   UNL     1       1.734  -0.940  -1.485  0.00  0.00    +0.072 A 
ATOM     38  C   UNL     1       0.812  -0.409  -2.388  0.00  0.00    +0.016 A 
ATOM     39  F   UNL     1       3.683  -0.648  -0.146  0.00  0.00    -0.205 F 
ENDBRANCH  24  37
ENDBRANCH  22  28
ENDBRANCH   1  22
TORSDOF 7
