REMARK  Name = ZINC34969899
REMARK  10 active torsions:
REMARK  status: ('A' for Active; 'I' for Inactive)
REMARK    1  A    between atoms: C_1  and  C_2
REMARK    2  A    between atoms: C_2  and  C_3
REMARK    3  A    between atoms: C_3  and  C_5
REMARK    4  A    between atoms: C_3  and  C_6
REMARK    5  A    between atoms: C_6  and  C_8
REMARK    6  A    between atoms: C_6  and  N_25
REMARK    7  A    between atoms: N_13  and  C_16
REMARK    8  A    between atoms: C_16  and  C_17
REMARK    9  A    between atoms: C_18  and  C_19
REMARK   10  A    between atoms: N_28  and  C_29
REMARK                            x       y       z     vdW  Elec       q    Type
REMARK                         _______ _______ _______ _____ _____    ______ ____
ROOT
ATOM      1  C   UNL     1      -1.315  -2.188   0.091  0.00  0.00    +0.163 C 
ENDROOT
BRANCH   1   2
ATOM      2  C   UNL     1      -0.589  -2.716   1.301  0.00  0.00    +0.236 C 
ATOM      3  O   UNL     1       0.435  -3.352   1.166  0.00  0.00    -0.274 OA
ATOM      4  N   UNL     1      -1.078  -2.481   2.535  0.00  0.00    -0.298 N 
ATOM      5  C   UNL     1      -2.375  -1.812   2.719  0.00  0.00    +0.123 C 
ATOM      6  C   UNL     1      -3.229  -2.658   3.668  0.00  0.00    +0.103 C 
ATOM      7  N   UNL     1      -2.479  -2.909   4.906  0.00  0.00    -0.296 NA
ATOM      8  C   UNL     1      -1.264  -3.692   4.643  0.00  0.00    +0.103 C 
ATOM      9  C   UNL     1      -0.332  -2.893   3.734  0.00  0.00    +0.123 C 
BRANCH   7  10
ATOM     10  C   UNL     1      -3.324  -3.570   5.909  0.00  0.00    +0.111 C 
BRANCH  10  11
ATOM     11  C   UNL     1      -2.608  -3.589   7.235  0.00  0.00    -0.011 C 
ATOM     12  C   UNL     1      -3.191  -3.080   8.311  0.00  0.00    +0.005 C 
BRANCH  12  13
ATOM     13  C   UNL     1      -2.489  -3.099   9.611  0.00  0.00    -0.025 A 
ATOM     14  C   UNL     1      -1.209  -3.647   9.709  0.00  0.00    +0.008 A 
ATOM     15  C   UNL     1      -0.559  -3.662  10.925  0.00  0.00    +0.001 A 
ATOM     16  C   UNL     1      -1.173  -3.136  12.048  0.00  0.00    +0.000 A 
ATOM     17  C   UNL     1      -2.441  -2.591  11.958  0.00  0.00    +0.001 A 
ATOM     18  C   UNL     1      -3.100  -2.564  10.746  0.00  0.00    +0.008 A 
ENDBRANCH  12  13
ENDBRANCH  10  11
ENDBRANCH   7  10
ENDBRANCH   1   2
BRANCH   1  19
ATOM     19  N   UNL     1      -0.981  -3.010  -1.075  0.00  0.00    -0.288 N 
ATOM     20  C   UNL     1      -1.835  -3.082  -2.116  0.00  0.00    +0.305 C 
ATOM     21  O   UNL     1      -2.882  -2.464  -2.087  0.00  0.00    -0.252 OA
ATOM     22  N   UNL     1      -1.528  -3.838  -3.188  0.00  0.00    -0.268 N 
ATOM     23  H   UNL     1      -0.146  -3.503  -1.098  0.00  0.00    +0.151 HD
ATOM     24  H   UNL     1      -0.658  -4.263  -3.249  0.00  0.00    +0.156 HD
BRANCH  22  25
ATOM     25  C   UNL     1      -2.465  -4.010  -4.214  0.00  0.00    +0.049 A 
ATOM     26  C   UNL     1      -3.821  -3.872  -3.949  0.00  0.00    +0.024 A 
ATOM     27  C   UNL     1      -4.743  -4.042  -4.963  0.00  0.00    +0.002 A 
ATOM     28  C   UNL     1      -4.317  -4.350  -6.243  0.00  0.00    +0.001 A 
ATOM     29  C   UNL     1      -2.967  -4.488  -6.511  0.00  0.00    +0.017 A 
ATOM     30  C   UNL     1      -2.040  -4.314  -5.501  0.00  0.00    +0.039 A 
ATOM     31 BR   UNL     1      -0.194  -4.496  -5.870  0.00  0.00    -0.048 Br
ENDBRANCH  22  25
ENDBRANCH   1  19
BRANCH   1  32
ATOM     32  C   UNL     1      -0.890  -0.741  -0.168  0.00  0.00    +0.015 C 
ATOM     33  C   UNL     1      -1.635  -0.202  -1.391  0.00  0.00    +0.010 C 
BRANCH  32  35
ATOM     34  C   UNL     1       1.062   0.768  -0.559  0.00  0.00    +0.004 C 
ATOM     35  C   UNL     1       0.617  -0.690  -0.425  0.00  0.00    +0.002 C 
ENDBRANCH  32  35
ENDBRANCH   1  32
TORSDOF 8
