REMARK  Name = ZINC09949870
REMARK  4 active torsions:
REMARK  status: ('A' for Active; 'I' for Inactive)
REMARK    1  A    between atoms: C_11  and  C_13
REMARK    2  A    between atoms: C_13  and  S_14
REMARK    3  A    between atoms: S_14  and  C_15
REMARK    4  A    between atoms: N_20  and  C_21
REMARK                            x       y       z     vdW  Elec       q    Type
REMARK                         _______ _______ _______ _____ _____    ______ ____
ROOT
ATOM      1  C   UNL     1     -10.544  -4.473   5.361  0.00  0.00    +0.030 A 
ATOM      2  C   UNL     1     -11.367  -3.574   6.006  0.00  0.00    +0.020 A 
ATOM      3  C   UNL     1     -11.044  -2.224   6.045  0.00  0.00    +0.032 A 
ATOM      4  C   UNL     1      -9.899  -1.754   5.439  0.00  0.00    +0.045 A 
ATOM      5  C   UNL     1      -9.051  -2.646   4.779  0.00  0.00    +0.092 A 
ATOM      6  C   UNL     1      -9.382  -4.018   4.742  0.00  0.00    +0.067 A 
ATOM      7  C   UNL     1      -8.467  -4.931   4.039  0.00  0.00    +0.259 A 
ATOM      8  O   UNL     1      -8.694  -6.124   3.970  0.00  0.00    -0.267 OA
ATOM      9  N   UNL     1      -7.364  -4.391   3.471  0.00  0.00    -0.310 N 
ATOM     10  H   UNL     1      -6.738  -4.962   3.000  0.00  0.00    +0.170 HD
ATOM     11  C   UNL     1      -7.125  -3.056   3.557  0.00  0.00    +0.121 A 
ATOM     12  N   UNL     1      -7.910  -2.228   4.174  0.00  0.00    -0.232 NA
ATOM     13 BR   UNL     1      -9.478   0.088   5.503  0.00  0.00    -0.048 Br
ATOM     14 BR   UNL     1     -12.947  -4.185   6.846  0.00  0.00    -0.050 Br
ENDROOT
BRANCH  11  15
ATOM     15  C   UNL     1      -5.880  -2.510   2.905  0.00  0.00    +0.150 C 
BRANCH  15  16
ATOM     16  S   UNL     1      -5.800  -0.716   3.164  0.00  0.00    -0.089 S 
BRANCH  16  17
ATOM     17  C   UNL     1      -4.310  -0.235   2.355  0.00  0.00    +0.160 A 
ATOM     18  N   UNL     1      -3.435  -0.977   1.704  0.00  0.00    -0.133 NA
ATOM     19  N   UNL     1      -2.326  -0.391   1.140  0.00  0.00    -0.125 NA
ATOM     20  C   UNL     1      -2.142   0.910   1.253  0.00  0.00    +0.183 A 
ATOM     21  S   UNL     1      -3.578   1.387   2.203  0.00  0.00    -0.025 S 
ATOM     22  N   UNL     1      -1.105   1.699   0.767  0.00  0.00    -0.319 N 
ATOM     23  H   UNL     1      -1.106   2.655   0.931  0.00  0.00    +0.148 HD
BRANCH  22  24
ATOM     24  C   UNL     1      -0.013   1.086   0.008  0.00  0.00    +0.072 C 
ATOM     25  C   UNL     1       0.460   1.806  -1.256  0.00  0.00    +0.024 C 
ATOM     26  C   UNL     1       1.335   1.811  -0.001  0.00  0.00    +0.024 C 
ENDBRANCH  22  24
ENDBRANCH  16  17
ENDBRANCH  15  16
ENDBRANCH  11  15
TORSDOF 4
