REMARK  Name = ZINC02645362
REMARK  11 active torsions:
REMARK  status: ('A' for Active; 'I' for Inactive)
REMARK    1  A    between atoms: C_1  and  C_2
REMARK    2  A    between atoms: C_2  and  C_3
REMARK    3  A    between atoms: C_3  and  C_4
REMARK    4  A    between atoms: C_4  and  N_5
REMARK    5  A    between atoms: N_8  and  S_9
REMARK    6  A    between atoms: S_9  and  C_12
REMARK    7  A    between atoms: C_15  and  N_18
REMARK    8  A    between atoms: N_18  and  S_19
REMARK    9  A    between atoms: S_19  and  C_22
REMARK   10  A    between atoms: C_25  and  O_29
REMARK   11  A    between atoms: O_29  and  C_30
REMARK                            x       y       z     vdW  Elec       q    Type
REMARK                         _______ _______ _______ _____ _____    ______ ____
ROOT
ATOM      1  C   UNL     1      -0.949   1.989   1.401  0.00  0.00    +0.109 A 
ATOM      2  C   UNL     1      -0.702   3.199   2.022  0.00  0.00    +0.030 A 
ATOM      3  C   UNL     1      -1.411   3.554   3.153  0.00  0.00    +0.026 A 
ATOM      4  C   UNL     1      -2.364   2.688   3.673  0.00  0.00    +0.048 A 
ATOM      5  C   UNL     1      -2.606   1.471   3.050  0.00  0.00    +0.026 A 
ATOM      6  C   UNL     1      -1.898   1.125   1.915  0.00  0.00    +0.030 A 
ENDROOT
BRANCH   1   7
ATOM      7  S   UNL     1      -0.047   1.544  -0.046  0.00  0.00    +0.076 S 
ATOM      8  O   UNL     1      -0.073   0.125  -0.120  0.00  0.00    -0.150 OA
ATOM      9  O   UNL     1       1.166   2.283  -0.013  0.00  0.00    -0.150 OA
BRANCH   7  13
ATOM     10  N   UNL     1      -1.770   3.880  -2.588  0.00  0.00    -0.298 N 
ATOM     11  C   UNL     1      -1.072   3.426  -1.529  0.00  0.00    +0.319 C 
ATOM     12  O   UNL     1      -0.592   4.213  -0.735  0.00  0.00    -0.251 OA
ATOM     13  N   UNL     1      -0.905   2.101  -1.349  0.00  0.00    -0.169 N 
ATOM     14  H   UNL     1      -2.153   3.252  -3.222  0.00  0.00    +0.150 HD
ATOM     15  H   UNL     1      -1.288   1.474  -1.982  0.00  0.00    +0.178 HD
BRANCH  10  16
ATOM     16  C   UNL     1      -1.951   5.320  -2.784  0.00  0.00    +0.106 C 
BRANCH  16  17
ATOM     17  C   UNL     1      -2.774   5.563  -4.051  0.00  0.00    +0.018 C 
BRANCH  17  19
ATOM     18  C   UNL     1      -3.786   7.311  -5.522  0.00  0.00    +0.004 C 
ATOM     19  C   UNL     1      -2.963   7.068  -4.256  0.00  0.00    -0.002 C 
ENDBRANCH  17  19
ENDBRANCH  16  17
ENDBRANCH  10  16
ENDBRANCH   7  13
ENDBRANCH   1   7
BRANCH   4  20
ATOM     20  N   UNL     1      -3.079   3.041   4.820  0.00  0.00    -0.216 N 
ATOM     21  H   UNL     1      -4.041   2.921   4.849  0.00  0.00    +0.174 HD
BRANCH  20  22
ATOM     22  S   UNL     1      -2.283   3.665   6.132  0.00  0.00    +0.072 S 
ATOM     23  O   UNL     1      -1.499   4.749   5.653  0.00  0.00    -0.150 OA
ATOM     24  O   UNL     1      -3.253   3.821   7.159  0.00  0.00    -0.150 OA
BRANCH  22  25
ATOM     25  C   UNL     1      -1.153   2.434   6.689  0.00  0.00    +0.110 A 
ATOM     26  C   UNL     1      -1.581   1.444   7.555  0.00  0.00    +0.032 A 
ATOM     27  C   UNL     1      -0.699   0.475   7.990  0.00  0.00    +0.048 A 
ATOM     28  C   UNL     1       0.622   0.500   7.566  0.00  0.00    +0.134 A 
ATOM     29  C   UNL     1       1.052   1.497   6.702  0.00  0.00    +0.061 A 
ATOM     30  C   UNL     1       0.163   2.462   6.265  0.00  0.00    +0.047 A 
ATOM     31 BR   UNL     1       2.851   1.536   6.121  0.00  0.00    -0.046 Br
BRANCH  28  32
ATOM     32  O   UNL     1       1.494  -0.449   7.998  0.00  0.00    -0.494 OA
ATOM     33  C   UNL     1       0.982  -1.444   8.886  0.00  0.00    +0.277 C 
ENDBRANCH  28  32
ENDBRANCH  22  25
ENDBRANCH  20  22
ENDBRANCH   4  20
TORSDOF 9
