REMARK  Name = ZINC62329337
REMARK  3 active torsions:
REMARK  status: ('A' for Active; 'I' for Inactive)
REMARK    1  A    between atoms: C_1  and  C_2
REMARK    2  A    between atoms: C_5  and  C_9
REMARK    3  A    between atoms: C_6  and  N_8
REMARK                            x       y       z     vdW  Elec       q    Type
REMARK                         _______ _______ _______ _____ _____    ______ ____
ROOT
ATOM      1  C   UNL     1      -0.018   1.503   0.010  0.00  0.00    +0.088 C 
ATOM      2  C   UNL     1       0.002  -0.004   0.002  0.00  0.00    +0.128 A 
ATOM      3  N   UNL     1       0.005  -0.635  -1.156  0.00  0.00    -0.240 NA
ATOM      4  C   UNL     1       0.023  -1.957  -1.215  0.00  0.00    +0.126 A 
ATOM      5  C   UNL     1       0.039  -2.688  -0.026  0.00  0.00    +0.065 A 
ATOM      6  C   UNL     1       0.035  -1.975   1.189  0.00  0.00    +0.129 A 
ATOM      7  N   UNL     1       0.022  -0.647   1.152  0.00  0.00    -0.217 NA
ENDROOT
BRANCH   5   8
ATOM      8  C   UNL     1       0.059  -4.165  -0.042  0.00  0.00    +0.114 A 
ATOM      9  N   UNL     1       0.070  -5.017   0.972  0.00  0.00    -0.244 NA
ATOM     10  C   UNL     1       0.090  -6.337   0.793  0.00  0.00    +0.052 A 
ATOM     11  C   UNL     1       0.063  -6.780  -0.481  0.00  0.00    +0.013 A 
ATOM     12  S   UNL     1       0.067  -5.288  -1.436  0.00  0.00    -0.072 S 
ATOM     13  C   UNL     1      -0.004  -8.209  -0.954  0.00  0.00    +0.044 C 
ATOM     14  C   UNL     1       1.350  -8.861  -0.612  0.00  0.00    +0.005 C 
ATOM     15  C   UNL     1       1.395  -9.218   0.855  0.00  0.00    +0.001 C 
ATOM     16  C   UNL     1       1.508  -8.072   1.826  0.00  0.00    +0.006 C 
ATOM     17  C   UNL     1       0.191  -7.309   1.974  0.00  0.00    +0.056 C 
ENDBRANCH   5   8
BRANCH   6  18
ATOM     18  N   UNL     1       0.050  -2.646   2.399  0.00  0.00    -0.343 N 
ATOM     19  H   UNL     1       0.064  -3.615   2.416  0.00  0.00    +0.144 HD
ATOM     20  H   UNL     1       0.047  -2.146   3.230  0.00  0.00    +0.144 HD
ENDBRANCH   6  18
TORSDOF 2
