REMARK  Name = ZINC39657147
REMARK  9 active torsions:
REMARK  status: ('A' for Active; 'I' for Inactive)
REMARK    1  A    between atoms: C_1  and  C_2
REMARK    2  A    between atoms: C_2  and  C_3
REMARK    3  A    between atoms: C_3  and  C_5
REMARK    4  A    between atoms: C_3  and  C_6
REMARK    5  A    between atoms: C_6  and  C_7
REMARK    6  A    between atoms: C_11  and  C_20
REMARK    7  A    between atoms: N_22  and  C_23
REMARK    8  A    between atoms: C_23  and  C_25
REMARK    9  A    between atoms: C_23  and  C_26
REMARK                            x       y       z     vdW  Elec       q    Type
REMARK                         _______ _______ _______ _____ _____    ______ ____
ROOT
ATOM      1  C   UNL     1       1.595  -2.528  -2.053  0.00  0.00    +0.216 C 
ATOM      2  O   UNL     1       2.012  -1.648  -2.777  0.00  0.00    -0.276 OA
ATOM      3  N   UNL     1       1.866  -3.817  -2.336  0.00  0.00    -0.300 N 
ATOM      4  C   UNL     1       1.443  -5.021  -1.581  0.00  0.00    +0.121 C 
ATOM      5  C   UNL     1       1.094  -6.061  -2.670  0.00  0.00    +0.100 C 
ATOM      6  C   UNL     1       1.895  -5.618  -3.906  0.00  0.00    -0.004 C 
ATOM      7  C   UNL     1       2.650  -4.353  -3.474  0.00  0.00    +0.115 C 
ATOM      8  C   UNL     1       0.949  -5.293  -5.059  0.00  0.00    -0.010 C 
ATOM      9  C   UNL     1       1.770  -4.911  -6.293  0.00  0.00    -0.082 C 
ATOM     10  N   UNL     1       2.655  -6.024  -6.659  0.00  0.00    +0.379 N 
ATOM     11  C   UNL     1       3.622  -6.269  -5.582  0.00  0.00    -0.082 C 
ATOM     12  C   UNL     1       2.879  -6.709  -4.317  0.00  0.00    -0.010 C 
ATOM     13  H   UNL     1       2.103  -6.855  -6.809  0.00  0.00    -0.086 HD
ATOM     14  H   UNL     1       3.150  -5.793  -7.507  0.00  0.00    -0.086 HD
ENDROOT
BRANCH   5  15
ATOM     15  C   UNL     1      -0.384  -6.039  -2.963  0.00  0.00    +0.219 C 
ATOM     16  O   UNL     1      -1.010  -5.008  -2.842  0.00  0.00    -0.275 OA
ATOM     17  N   UNL     1      -1.009  -7.165  -3.359  0.00  0.00    -0.308 N 
ATOM     18  H   UNL     1      -0.508  -7.990  -3.456  0.00  0.00    +0.149 HD
BRANCH  17  19
ATOM     19  C   UNL     1      -2.446  -7.143  -3.644  0.00  0.00    +0.100 C 
ATOM     20  C   UNL     1      -2.673  -6.684  -5.086  0.00  0.00    +0.033 C 
BRANCH  19  21
ATOM     21  C   UNL     1      -3.015  -8.527  -3.462  0.00  0.00    -0.027 A 
ATOM     22  C   UNL     1      -2.297  -9.630  -3.884  0.00  0.00    +0.006 A 
ATOM     23  C   UNL     1      -2.819 -10.899  -3.716  0.00  0.00    +0.015 A 
ATOM     24  C   UNL     1      -4.059 -11.065  -3.126  0.00  0.00    +0.018 A 
ATOM     25  C   UNL     1      -4.776  -9.961  -2.704  0.00  0.00    +0.015 A 
ATOM     26  C   UNL     1      -4.252  -8.692  -2.867  0.00  0.00    +0.006 A 
ATOM     27 BR   UNL     1      -4.773 -12.801  -2.897  0.00  0.00    -0.050 Br
ENDBRANCH  19  21
ENDBRANCH  17  19
ENDBRANCH   5  15
BRANCH   1  28
ATOM     28  C   UNL     1       0.774  -2.179  -0.839  0.00  0.00    +0.099 C 
BRANCH  28  29
ATOM     29  C   UNL     1       0.615  -0.659  -0.750  0.00  0.00    -0.006 C 
ATOM     30  C   UNL     1      -0.199  -0.161  -1.946  0.00  0.00    +0.008 C 
BRANCH  29  32
ATOM     31  C   UNL     1      -0.159   1.224   0.697  0.00  0.00    +0.004 C 
ATOM     32  C   UNL     1      -0.110  -0.297   0.547  0.00  0.00    +0.000 C 
ENDBRANCH  29  32
ENDBRANCH  28  29
ENDBRANCH   1  28
TORSDOF 6
