REMARK  Name = ZINC59054340
REMARK  5 active torsions:
REMARK  status: ('A' for Active; 'I' for Inactive)
REMARK    1  A    between atoms: C_4  and  C_7
REMARK    2  A    between atoms: N_9  and  C_10
REMARK    3  A    between atoms: C_13  and  N_20
REMARK    4  A    between atoms: C_14  and  C_16
REMARK    5  A    between atoms: N_23  and  C_24
REMARK                            x       y       z     vdW  Elec       q    Type
REMARK                         _______ _______ _______ _____ _____    ______ ____
ROOT
ATOM      1  C   UNL     1       4.917  -2.743  -0.174  0.00  0.00    +0.034 A 
ATOM      2  C   UNL     1       6.139  -2.083  -0.168  0.00  0.00    +0.025 A 
ATOM      3  C   UNL     1       7.313  -2.804  -0.266  0.00  0.00    +0.026 A 
ATOM      4  C   UNL     1       7.271  -4.188  -0.371  0.00  0.00    +0.047 A 
ATOM      5  C   UNL     1       6.049  -4.847  -0.377  0.00  0.00    +0.078 A 
ATOM      6  C   UNL     1       4.875  -4.127  -0.273  0.00  0.00    +0.037 A 
ENDROOT
BRANCH   4   7
ATOM      7  N   UNL     1       8.462  -4.920  -0.471  0.00  0.00    -0.269 N 
ATOM      8  C   UNL     1       9.563  -4.508   0.188  0.00  0.00    +0.304 C 
ATOM      9  O   UNL     1       9.547  -3.459   0.802  0.00  0.00    -0.252 OA
ATOM     10  N   UNL     1      10.681  -5.259   0.167  0.00  0.00    -0.292 N 
ATOM     11  H   UNL     1       8.494  -5.722  -1.015  0.00  0.00    +0.156 HD
ATOM     12  H   UNL     1      10.694  -6.096  -0.323  0.00  0.00    +0.151 HD
BRANCH  10  13
ATOM     13  C   UNL     1      11.878  -4.812   0.883  0.00  0.00    +0.111 C 
ATOM     14  C   UNL     1      13.120  -5.433   0.238  0.00  0.00    +0.068 C 
ATOM     15  C   UNL     1      14.316  -5.196   1.169  0.00  0.00    +0.231 C 
ATOM     16  O   UNL     1      14.088  -5.910   2.385  0.00  0.00    -0.492 OA
ATOM     17  C   UNL     1      12.884  -5.757   2.995  0.00  0.00    +0.125 A 
ATOM     18  C   UNL     1      11.789  -5.241   2.326  0.00  0.00    +0.015 A 
ATOM     19  C   UNL     1      10.579  -5.108   2.987  0.00  0.00    +0.009 A 
ATOM     20  C   UNL     1      10.462  -5.487   4.310  0.00  0.00    +0.001 A 
ATOM     21  C   UNL     1      11.556  -6.002   4.981  0.00  0.00    +0.004 A 
ATOM     22  C   UNL     1      12.763  -6.136   4.328  0.00  0.00    +0.046 A 
ENDBRANCH  10  13
ENDBRANCH   4   7
BRANCH   1  25
ATOM     23  C   UNL     1       3.630  -0.800  -0.656  0.00  0.00    +0.248 C 
ATOM     24  O   UNL     1       4.601  -0.305  -1.195  0.00  0.00    -0.270 OA
ATOM     25  N   UNL     1       3.727  -2.012  -0.075  0.00  0.00    -0.281 N 
ATOM     26  H   UNL     1       2.972  -2.378   0.413  0.00  0.00    +0.155 HD
BRANCH  23  30
ATOM     27  C   UNL     1      -0.068   1.289  -0.608  0.00  0.00    +0.000 A 
ATOM     28  C   UNL     1       1.035   1.856  -1.221  0.00  0.00    +0.001 A 
ATOM     29  C   UNL     1       2.239   1.183  -1.240  0.00  0.00    +0.013 A 
ATOM     30  C   UNL     1       2.343  -0.073  -0.639  0.00  0.00    +0.037 A 
ATOM     31  C   UNL     1       1.226  -0.638  -0.021  0.00  0.00    +0.013 A 
ATOM     32  C   UNL     1       0.028   0.045  -0.010  0.00  0.00    +0.001 A 
ENDBRANCH  23  30
ENDBRANCH   1  25
BRANCH   5  33
ATOM     33  C   UNL     1       6.003  -6.349  -0.491  0.00  0.00    +0.419 C 
ATOM     34  F   UNL     1       4.672  -6.778  -0.475  0.00  0.00    -0.166 F 
ATOM     35  F   UNL     1       6.606  -6.745  -1.690  0.00  0.00    -0.166 F 
ATOM     36  F   UNL     1       6.690  -6.920   0.587  0.00  0.00    -0.166 F 
ENDBRANCH   5  33
TORSDOF 5
