REMARK  Name = ZINC39930424
REMARK  2 active torsions:
REMARK  status: ('A' for Active; 'I' for Inactive)
REMARK    1  A    between atoms: N_6  and  C_7
REMARK    2  A    between atoms: C_14  and  O_17
REMARK                            x       y       z     vdW  Elec       q    Type
REMARK                         _______ _______ _______ _____ _____    ______ ____
ROOT
ATOM      1  C   UNL     1       0.182  -2.945  -0.015  0.00  0.00    +0.266 C 
ATOM      2  C   UNL     1       0.497  -4.239  -0.802  0.00  0.00    +0.105 C 
ATOM      3  C   UNL     1       0.993  -5.160   0.295  0.00  0.00    +0.023 A 
ATOM      4  C   UNL     1       0.619  -4.591   1.505  0.00  0.00    +0.148 A 
ATOM      5  C   UNL     1       0.964  -5.237   2.690  0.00  0.00    +0.105 A 
ATOM      6  C   UNL     1       1.662  -6.429   2.657  0.00  0.00    +0.106 A 
ATOM      7  C   UNL     1       2.026  -6.993   1.443  0.00  0.00    +0.155 A 
ATOM      8  C   UNL     1       1.687  -6.351   0.259  0.00  0.00    +0.091 A 
ATOM      9 CL   UNL     1       2.136  -7.048  -1.266  0.00  0.00    -0.079 Cl
ATOM     10 CL   UNL     1       2.087  -7.223   4.141  0.00  0.00    -0.078 Cl
ATOM     11 CL   UNL     1       0.515  -4.541   4.216  0.00  0.00    -0.078 Cl
ATOM     12  O   UNL     1      -0.077  -3.430   1.313  0.00  0.00    -0.469 OA
ENDROOT
BRANCH   1  18
ATOM     13  C   UNL     1      -0.016   1.317   0.009  0.00  0.00    +0.120 A 
ATOM     14  C   UNL     1       1.182   1.950   0.001  0.00  0.00    +0.068 A 
ATOM     15  S   UNL     1       2.296   0.554  -0.017  0.00  0.00    -0.061 S 
ATOM     16  C   UNL     1       1.138  -0.668  -0.012  0.00  0.00    +0.161 A 
ATOM     17  N   UNL     1       0.002  -0.004   0.002  0.00  0.00    -0.233 NA
ATOM     18  N   UNL     1       1.335  -2.040  -0.022  0.00  0.00    -0.289 N 
ATOM     19  H   UNL     1       2.235  -2.401  -0.032  0.00  0.00    +0.151 HD
ENDBRANCH   1  18
BRANCH   7  20
ATOM     20  O   UNL     1       2.710  -8.168   1.412  0.00  0.00    -0.504 OA
ATOM     21  H   UNL     1       2.145  -8.951   1.381  0.00  0.00    +0.292 HD
ENDBRANCH   7  20
TORSDOF 2
