REMARK  Name = ZINC37254432
REMARK  5 active torsions:
REMARK  status: ('A' for Active; 'I' for Inactive)
REMARK    1  A    between atoms: C_1  and  C_2
REMARK    2  A    between atoms: C_7  and  N_10
REMARK    3  A    between atoms: N_10  and  S_11
REMARK    4  A    between atoms: S_11  and  C_14
REMARK    5  A    between atoms: C_16  and  N_22
REMARK                            x       y       z     vdW  Elec       q    Type
REMARK                         _______ _______ _______ _____ _____    ______ ____
ROOT
ATOM      1  S   UNL     1       2.375  -3.885   0.086  0.00  0.00    +0.061 S 
ATOM      2  O   UNL     1       2.877  -4.092  -1.227  0.00  0.00    -0.153 OA
ATOM      3  O   UNL     1       3.227  -3.751   1.215  0.00  0.00    -0.153 OA
ENDROOT
BRANCH   1   4
ATOM      4  C   UNL     1       1.291  -5.231   0.429  0.00  0.00    +0.143 A 
ATOM      5  C   UNL     1       1.111  -6.229  -0.509  0.00  0.00    +0.054 A 
ATOM      6  C   UNL     1       0.257  -7.290  -0.239  0.00  0.00    +0.028 A 
ATOM      7  C   UNL     1      -0.414  -7.346   0.976  0.00  0.00    +0.045 A 
ATOM      8  C   UNL     1      -0.231  -6.347   1.912  0.00  0.00    +0.080 A 
ATOM      9  C   UNL     1       0.626  -5.291   1.642  0.00  0.00    +0.168 A 
ATOM     10  F   UNL     1       0.808  -4.317   2.560  0.00  0.00    -0.202 F 
ATOM     11 CL   UNL     1      -1.069  -6.416   3.431  0.00  0.00    -0.080 Cl
BRANCH   6  12
ATOM     12  N   UNL     1       0.073  -8.300  -1.188  0.00  0.00    -0.358 N 
ATOM     13  H   UNL     1       0.542  -8.259  -2.036  0.00  0.00    +0.142 HD
ATOM     14  H   UNL     1      -0.523  -9.041  -0.998  0.00  0.00    +0.142 HD
ENDBRANCH   6  12
ENDBRANCH   1   4
BRANCH   1  15
ATOM     15  N   UNL     1       1.448  -2.513   0.028  0.00  0.00    -0.187 NA
ATOM     16  H   UNL     1       1.360  -2.023  -0.804  0.00  0.00    +0.148 HD
BRANCH  15  22
ATOM     17  C   UNL     1      -0.019   1.526   0.010  0.00  0.00    +0.007 C 
ATOM     18  C   UNL     1       0.002  -0.004   0.002  0.00  0.00    -0.013 C 
ATOM     19  C   UNL     1      -1.433  -0.534   0.013  0.00  0.00    +0.003 C 
ATOM     20  C   UNL     1      -1.413  -2.063   0.004  0.00  0.00    +0.002 C 
ATOM     21  C   UNL     1      -0.673  -2.570   1.244  0.00  0.00    +0.020 C 
ATOM     22  C   UNL     1       0.763  -2.041   1.233  0.00  0.00    +0.077 C 
ATOM     23  C   UNL     1       0.742  -0.511   1.242  0.00  0.00    +0.023 C 
ENDBRANCH  15  22
ENDBRANCH   1  15
TORSDOF 4
