REMARK  Name = ZINC04093087
REMARK  5 active torsions:
REMARK  status: ('A' for Active; 'I' for Inactive)
REMARK    1  A    between atoms: C_5  and  N_7
REMARK    2  A    between atoms: C_8  and  C_10
REMARK    3  A    between atoms: N_21  and  C_33
REMARK    4  A    between atoms: C_22  and  C_24
REMARK    5  A    between atoms: N_26  and  C_27
REMARK                            x       y       z     vdW  Elec       q    Type
REMARK                         _______ _______ _______ _____ _____    ______ ____
ROOT
ATOM      1  C   UNL     1       3.744  -0.964   0.179  0.00  0.00    +0.123 C 
ATOM      2  C   UNL     1       4.491  -0.592   1.501  0.00  0.00    +0.155 C 
ATOM      3  C   UNL     1       3.511  -0.844   2.652  0.00  0.00    +0.004 C 
ATOM      4  C   UNL     1       3.400  -2.172   2.796  0.00  0.00    +0.009 C 
ATOM      5  C   UNL     1       4.270  -2.717   1.721  0.00  0.00    +0.127 C 
ATOM      6  C   UNL     1       3.527  -2.478   0.355  0.00  0.00    +0.128 C 
ATOM      7  C   UNL     1       4.339  -3.344  -0.566  0.00  0.00    +0.228 C 
ATOM      8  O   UNL     1       4.453  -3.183  -1.763  0.00  0.00    -0.275 OA
ATOM      9  N   UNL     1       4.925  -4.336   0.152  0.00  0.00    -0.255 N 
ATOM     10  C   UNL     1       4.680  -4.152   1.603  0.00  0.00    +0.203 C 
ATOM     11  O   UNL     1       5.367  -1.769   1.637  0.00  0.00    -0.358 OA
ENDROOT
BRANCH   9  12
ATOM     12  C   UNL     1       5.660  -5.390  -0.402  0.00  0.00    +0.055 A 
ATOM     13  C   UNL     1       5.837  -5.481  -1.781  0.00  0.00    +0.026 A 
ATOM     14  C   UNL     1       6.573  -6.542  -2.281  0.00  0.00    +0.021 A 
ATOM     15  C   UNL     1       7.104  -7.469  -1.404  0.00  0.00    +0.111 A 
ATOM     16  N   UNL     1       6.918  -7.356  -0.103  0.00  0.00    -0.261 NA
ATOM     17  C   UNL     1       6.229  -6.358   0.415  0.00  0.00    +0.134 A 
ENDBRANCH   9  12
BRANCH   1  19
ATOM     18  N   UNL     1       2.403   1.105  -0.014  0.00  0.00    -0.283 N 
ATOM     19  C   UNL     1       2.427  -0.239   0.081  0.00  0.00    +0.224 C 
ATOM     20  O   UNL     1       1.388  -0.865   0.088  0.00  0.00    -0.275 OA
ATOM     21  H   UNL     1       3.234   1.601  -0.085  0.00  0.00    +0.155 HD
BRANCH  18  26
ATOM     22  C   UNL     1      -1.141   1.890  -0.608  0.00  0.00    +0.002 A 
ATOM     23  C   UNL     1      -1.241   3.131  -0.005  0.00  0.00    +0.003 A 
ATOM     24  C   UNL     1      -0.133   3.704   0.591  0.00  0.00    +0.040 A 
ATOM     25  C   UNL     1       1.078   3.035   0.590  0.00  0.00    +0.144 A 
ATOM     26  C   UNL     1       1.179   1.786  -0.011  0.00  0.00    +0.069 A 
ATOM     27  C   UNL     1       0.064   1.214  -0.608  0.00  0.00    +0.026 A 
ATOM     28  F   UNL     1       2.161   3.596   1.172  0.00  0.00    -0.204 F 
ENDBRANCH  18  26
ENDBRANCH   1  19
BRANCH  10  29
ATOM     29  C   UNL     1       3.571  -5.059   2.071  0.00  0.00    +0.237 C 
ATOM     30  O   UNL     1       2.847  -5.599   1.262  0.00  0.00    -0.274 OA
ATOM     31  N   UNL     1       3.385  -5.270   3.389  0.00  0.00    -0.311 N 
ATOM     32  H   UNL     1       3.964  -4.838   4.036  0.00  0.00    +0.149 HD
BRANCH  31  33
ATOM     33  C   UNL     1       2.307  -6.151   3.844  0.00  0.00    +0.073 C 
ATOM     34  C   UNL     1       1.002  -5.357   3.936  0.00  0.00    +0.022 C 
ATOM     35  C   UNL     1      -0.123  -6.278   4.411  0.00  0.00    +0.002 C 
ATOM     36  C   UNL     1       0.228  -6.843   5.789  0.00  0.00    +0.000 C 
ATOM     37  C   UNL     1       1.532  -7.637   5.697  0.00  0.00    +0.002 C 
ATOM     38  C   UNL     1       2.658  -6.716   5.222  0.00  0.00    +0.022 C 
ENDBRANCH  31  33
ENDBRANCH  10  29
TORSDOF 5
