REMARK  Name = ZINC50323145
REMARK  5 active torsions:
REMARK  status: ('A' for Active; 'I' for Inactive)
REMARK    1  A    between atoms: C_1  and  C_2
REMARK    2  A    between atoms: C_2  and  C_3
REMARK    3  A    between atoms: C_3  and  C_4
REMARK    4  A    between atoms: C_5  and  N_23
REMARK    5  A    between atoms: C_6  and  C_10
REMARK                            x       y       z     vdW  Elec       q    Type
REMARK                         _______ _______ _______ _____ _____    ______ ____
ROOT
ATOM      1  C   UNL     1      -3.685  -4.628  -3.388  0.00  0.00    +0.057 A 
ATOM      2  C   UNL     1      -2.466  -4.194  -2.968  0.00  0.00    +0.078 A 
ATOM      3  C   UNL     1      -1.818  -5.341  -2.443  0.00  0.00    +0.168 A 
ATOM      4  N   UNL     1      -2.655  -6.353  -2.574  0.00  0.00    -0.167 NA
ATOM      5  N   UNL     1      -3.750  -5.957  -3.118  0.00  0.00    -0.279 N 
ATOM      6  H   UNL     1      -4.512  -6.526  -3.309  0.00  0.00    +0.189 HD
ENDROOT
BRANCH   3   7
ATOM      7  C   UNL     1      -0.465  -5.394  -1.860  0.00  0.00    +0.269 C 
ATOM      8  O   UNL     1       0.165  -4.367  -1.691  0.00  0.00    -0.268 OA
ATOM      9  N   UNL     1       0.075  -6.579  -1.514  0.00  0.00    -0.288 N 
ATOM     10  C   UNL     1       1.357  -6.626  -0.796  0.00  0.00    +0.136 C 
ATOM     11  C   UNL     1       2.261  -7.623  -1.537  0.00  0.00    +0.179 C 
ATOM     12  O   UNL     1       1.579  -8.873  -1.623  0.00  0.00    -0.373 OA
ATOM     13  C   UNL     1       0.380  -8.870  -2.400  0.00  0.00    +0.139 C 
ATOM     14  C   UNL     1      -0.613  -7.821  -1.845  0.00  0.00    +0.105 C 
ATOM     15  C   UNL     1      -1.176  -8.493  -0.576  0.00  0.00    +0.025 C 
ATOM     16  C   UNL     1      -1.322  -9.978  -0.975  0.00  0.00    +0.004 C 
ATOM     17  C   UNL     1      -0.338 -10.217  -2.149  0.00  0.00    +0.033 C 
ENDBRANCH   3   7
BRANCH   2  18
ATOM     18  N   UNL     1      -1.958  -2.889  -3.040  0.00  0.00    -0.355 N 
ATOM     19  H   UNL     1      -2.496  -2.179  -3.424  0.00  0.00    +0.142 HD
ATOM     20  H   UNL     1      -1.068  -2.697  -2.706  0.00  0.00    +0.142 HD
ENDBRANCH   2  18
BRANCH   1  21
ATOM     21  C   UNL     1      -4.762  -3.790  -4.027  0.00  0.00    +0.056 C 
BRANCH  21  23
ATOM     22  C   UNL     1      -5.604  -2.844  -6.181  0.00  0.00    +0.004 C 
ATOM     23  C   UNL     1      -4.509  -3.695  -5.533  0.00  0.00    +0.003 C 
ENDBRANCH  21  23
ENDBRANCH   1  21
TORSDOF 4
