REMARK  Name = ZINC05511062
REMARK  3 active torsions:
REMARK  status: ('A' for Active; 'I' for Inactive)
REMARK    1  A    between atoms: C_5  and  C_6
REMARK    2  A    between atoms: C_6  and  N_7
REMARK    3  A    between atoms: N_8  and  C_9
REMARK                            x       y       z     vdW  Elec       q    Type
REMARK                         _______ _______ _______ _____ _____    ______ ____
ROOT
ATOM      1  C   UNL     1       2.498   3.360  -0.004  0.00  0.00    +0.206 C 
ENDROOT
BRANCH   1   6
ATOM      2  C   UNL     1       2.224   0.790  -0.015  0.00  0.00    +0.028 A 
ATOM      3  C   UNL     1       1.332  -0.267  -0.012  0.00  0.00    +0.025 A 
ATOM      4  C   UNL     1       0.002  -0.004   0.002  0.00  0.00    +0.060 A 
ATOM      5  S   UNL     1      -0.022   1.781   0.012  0.00  0.00    -0.099 S 
ATOM      6  C   UNL     1       1.742   2.057  -0.004  0.00  0.00    +0.014 A 
ATOM      7 BR   UNL     1       1.958  -2.051  -0.027  0.00  0.00    -0.050 Br
ENDBRANCH   1   6
BRANCH   1   8
ATOM      8  N   UNL     1       2.730   3.790  -1.385  0.00  0.00    -0.189 NA
ATOM      9  N   UNL     1       2.279   4.875  -1.781  0.00  0.00    -0.067 NA
BRANCH   9  10
ATOM     10  C   UNL     1       2.492   5.271  -3.052  0.00  0.00    +0.338 C 
ATOM     11  O   UNL     1       3.125   4.564  -3.810  0.00  0.00    -0.249 OA
ATOM     12  N   UNL     1       2.002   6.451  -3.482  0.00  0.00    -0.311 N 
ATOM     13  H   UNL     1       1.497   7.015  -2.876  0.00  0.00    +0.147 HD
ATOM     14  H   UNL     1       2.156   6.735  -4.396  0.00  0.00    +0.147 HD
ENDBRANCH   9  10
ENDBRANCH   1   8
TORSDOF 3
