REMARK  Name = ZINC09374567
REMARK  14 active torsions:
REMARK  status: ('A' for Active; 'I' for Inactive)
REMARK    1  A    between atoms: C_1  and  C_2
REMARK    2  A    between atoms: C_5  and  N_9
REMARK    3  A    between atoms: C_7  and  C_8
REMARK    4  A    between atoms: C_10  and  C_12
REMARK    5  A    between atoms: C_12  and  S_13
REMARK    6  A    between atoms: S_13  and  C_14
REMARK    7  A    between atoms: C_15  and  C_36
REMARK    8  A    between atoms: C_16  and  C_27
REMARK    9  A    between atoms: C_18  and  C_23
REMARK   10  A    between atoms: C_23  and  O_25
REMARK   11  A    between atoms: O_25  and  C_26
REMARK   12  A    between atoms: C_30  and  C_33
REMARK   13  A    between atoms: C_33  and  C_34
REMARK   14  A    between atoms: C_33  and  C_35
REMARK                            x       y       z     vdW  Elec       q    Type
REMARK                         _______ _______ _______ _____ _____    ______ ____
ROOT
ATOM      1  C   UNL     1      -0.356  -8.692  -2.728  0.00  0.00    +0.115 C 
ATOM      2  C   UNL     1      -0.455  -9.480  -3.854  0.00  0.00    +0.070 C 
ATOM      3  C   UNL     1      -0.573 -10.977  -3.706  0.00  0.00    +0.085 C 
ATOM      4  C   UNL     1       0.222 -11.420  -2.475  0.00  0.00    +0.200 C 
ATOM      5  C   UNL     1      -0.096 -10.512  -1.316  0.00  0.00    +0.262 C 
ATOM      6  O   UNL     1      -0.133 -11.021  -0.070  0.00  0.00    -0.270 OA
ATOM      7  N   UNL     1      -0.330  -9.249  -1.495  0.00  0.00    -0.205 NA
ENDROOT
BRANCH   3   8
ATOM      8  C   UNL     1      -2.022 -11.354  -3.535  0.00  0.00    -0.038 A 
ATOM      9  C   UNL     1      -2.746 -10.851  -2.470  0.00  0.00    +0.004 A 
ATOM     10  C   UNL     1      -4.076 -11.197  -2.314  0.00  0.00    +0.004 A 
ATOM     11  C   UNL     1      -4.681 -12.045  -3.222  0.00  0.00    -0.045 A 
ATOM     12  C   UNL     1      -3.957 -12.547  -4.287  0.00  0.00    +0.004 A 
ATOM     13  C   UNL     1      -2.629 -12.198  -4.446  0.00  0.00    +0.004 A 
BRANCH  11  14
ATOM     14  C   UNL     1      -6.130 -12.423  -3.051  0.00  0.00    +0.013 C 
ATOM     15  C   UNL     1      -6.922 -11.974  -4.280  0.00  0.00    +0.012 C 
ATOM     16  C   UNL     1      -6.246 -13.940  -2.894  0.00  0.00    +0.012 C 
ENDBRANCH  11  14
ENDBRANCH   3   8
BRANCH   4  17
ATOM     17  C   UNL     1      -0.150 -12.836  -2.119  0.00  0.00    +0.320 C 
ATOM     18  O   UNL     1      -0.967 -13.431  -2.782  0.00  0.00    -0.250 OA
BRANCH  17  19
ATOM     19  O   UNL     1       0.426 -13.437  -1.066  0.00  0.00    -0.467 OA
ATOM     20  C   UNL     1       0.026 -14.780  -0.787  0.00  0.00    +0.280 C 
ENDBRANCH  17  19
ENDBRANCH   4  17
BRANCH   2  21
ATOM     21  C   UNL     1      -0.445  -8.883  -5.156  0.00  0.00    +0.098 C 
ATOM     22  N   UNL     1      -0.438  -8.409  -6.188  0.00  0.00    -0.191 NA
ENDBRANCH   2  21
BRANCH   1  23
ATOM     23  S   UNL     1      -0.255  -6.941  -2.895  0.00  0.00    -0.095 S 
BRANCH  23  24
ATOM     24  C   UNL     1      -0.134  -6.343  -1.187  0.00  0.00    +0.172 C 
BRANCH  24  26
ATOM     25  N   UNL     1       0.059  -4.170  -0.021  0.00  0.00    -0.285 N 
ATOM     26  C   UNL     1      -0.040  -4.839  -1.187  0.00  0.00    +0.227 C 
ATOM     27  O   UNL     1      -0.054  -4.230  -2.236  0.00  0.00    -0.275 OA
ATOM     28  H   UNL     1       0.147  -4.658   0.812  0.00  0.00    +0.155 HD
BRANCH  25  33
ATOM     29  C   UNL     1      -0.041   1.502   0.014  0.00  0.00    +0.044 C 
ATOM     30  C   UNL     1      -0.015  -0.004   0.004  0.00  0.00    -0.047 A 
ATOM     31  C   UNL     1      -0.752  -0.702  -0.935  0.00  0.00    +0.005 A 
ATOM     32  C   UNL     1      -0.730  -2.082  -0.946  0.00  0.00    +0.023 A 
ATOM     33  C   UNL     1       0.034  -2.771  -0.013  0.00  0.00    +0.034 A 
ATOM     34  C   UNL     1       0.773  -2.068   0.929  0.00  0.00    +0.027 A 
ATOM     35  C   UNL     1       0.751  -0.686   0.932  0.00  0.00    -0.046 A 
ATOM     36  C   UNL     1       1.557   0.078   1.950  0.00  0.00    +0.044 C 
ENDBRANCH  25  33
ENDBRANCH  24  26
ENDBRANCH  23  24
ENDBRANCH   1  23
TORSDOF 9
