REMARK  Name = ZINC35701846
REMARK  12 active torsions:
REMARK  status: ('A' for Active; 'I' for Inactive)
REMARK    1  A    between atoms: C_1  and  C_2
REMARK    2  A    between atoms: C_3  and  C_32
REMARK    3  A    between atoms: C_4  and  C_22
REMARK    4  A    between atoms: C_7  and  C_12
REMARK    5  A    between atoms: C_13  and  N_15
REMARK    6  A    between atoms: N_15  and  C_16
REMARK    7  A    between atoms: C_16  and  C_17
REMARK    8  A    between atoms: C_25  and  C_28
REMARK    9  A    between atoms: C_32  and  O_34
REMARK   10  A    between atoms: O_34  and  C_35
REMARK   11  A    between atoms: C_35  and  C_36
REMARK   12  A    between atoms: C_35  and  C_37
REMARK                            x       y       z     vdW  Elec       q    Type
REMARK                         _______ _______ _______ _____ _____    ______ ____
ROOT
ATOM      1  C   UNL     1       0.331   1.169   0.884  0.00  0.00    +0.066 C 
ATOM      2  C   UNL     1       0.261  -0.288   0.505  0.00  0.00    +0.053 C 
ATOM      3  C   UNL     1      -0.965  -0.923   0.443  0.00  0.00    +0.082 C 
ATOM      4  C   UNL     1      -0.983  -2.385   0.057  0.00  0.00    +0.150 C 
ATOM      5  N   UNL     1       0.328  -3.026  -0.228  0.00  0.00    -0.267 N 
ATOM      6  C   UNL     1       0.550  -4.338  -0.596  0.00  0.00    +0.048 C 
ATOM      7  C   UNL     1       1.827  -4.722  -0.810  0.00  0.00    +0.072 C 
ATOM      8  S   UNL     1       2.724  -3.217  -0.488  0.00  0.00    -0.060 S 
ATOM      9  C   UNL     1       1.427  -2.221  -0.110  0.00  0.00    +0.166 C 
ATOM     10  N   UNL     1       1.373  -0.949   0.227  0.00  0.00    -0.230 NA
ENDROOT
BRANCH   4  11
ATOM     11  C   UNL     1      -1.641  -3.152   1.175  0.00  0.00    -0.022 A 
ATOM     12  C   UNL     1      -0.959  -3.371   2.357  0.00  0.00    +0.006 A 
ATOM     13  C   UNL     1      -1.562  -4.075   3.383  0.00  0.00    +0.013 A 
ATOM     14  C   UNL     1      -2.847  -4.559   3.226  0.00  0.00    +0.055 A 
ATOM     15  C   UNL     1      -3.529  -4.340   2.044  0.00  0.00    +0.013 A 
ATOM     16  C   UNL     1      -2.928  -3.632   1.020  0.00  0.00    +0.006 A 
BRANCH  14  17
ATOM     17  C   UNL     1      -3.504  -5.327   4.344  0.00  0.00    +0.417 C 
ATOM     18  F   UNL     1      -4.191  -4.440   5.179  0.00  0.00    -0.166 F 
ATOM     19  F   UNL     1      -4.404  -6.254   3.807  0.00  0.00    -0.166 F 
ATOM     20  F   UNL     1      -2.527  -6.002   5.084  0.00  0.00    -0.166 F 
ENDBRANCH  14  17
ENDBRANCH   4  11
BRANCH   6  21
ATOM     21  C   UNL     1      -0.565  -5.284  -0.749  0.00  0.00    +0.091 C 
ATOM     22  C   UNL     1      -0.316  -6.587  -0.981  0.00  0.00    +0.239 C 
ATOM     23  O   UNL     1       0.958  -7.049  -0.951  0.00  0.00    -0.271 OA
BRANCH  22  24
ATOM     24  N   UNL     1      -1.361  -7.455  -1.251  0.00  0.00    -0.305 N 
ATOM     25  H   UNL     1      -2.277  -7.141  -1.200  0.00  0.00    +0.149 HD
BRANCH  24  26
ATOM     26  C   UNL     1      -1.082  -8.846  -1.614  0.00  0.00    +0.179 C 
BRANCH  26  27
ATOM     27  C   UNL     1      -2.372  -9.539  -1.974  0.00  0.00    +0.122 A 
ATOM     28  C   UNL     1      -2.911  -9.608  -3.204  0.00  0.00    +0.046 A 
ATOM     29  C   UNL     1      -4.111 -10.346  -3.084  0.00  0.00    +0.041 A 
ATOM     30  C   UNL     1      -4.233 -10.684  -1.788  0.00  0.00    +0.195 A 
ATOM     31  O   UNL     1      -3.174 -10.198  -1.121  0.00  0.00    -0.466 OA
ENDBRANCH  26  27
ENDBRANCH  24  26
ENDBRANCH  22  24
ENDBRANCH   6  21
BRANCH   3  32
ATOM     32  C   UNL     1      -2.151  -0.236   0.730  0.00  0.00    +0.339 C 
ATOM     33  O   UNL     1      -2.113   0.942   1.039  0.00  0.00    -0.245 OA
BRANCH  32  34
ATOM     34  O   UNL     1      -3.337  -0.879   0.663  0.00  0.00    -0.459 OA
BRANCH  34  35
ATOM     35  C   UNL     1      -4.507  -0.116   0.968  0.00  0.00    +0.171 C 
ATOM     36  C   UNL     1      -5.695  -0.667   0.177  0.00  0.00    +0.052 C 
ATOM     37  C   UNL     1      -4.803  -0.213   2.466  0.00  0.00    +0.052 C 
ENDBRANCH  34  35
ENDBRANCH  32  34
ENDBRANCH   3  32
TORSDOF 9
