REMARK  Name = ZINC39946296
REMARK  8 active torsions:
REMARK  status: ('A' for Active; 'I' for Inactive)
REMARK    1  A    between atoms: C_7  and  C_10
REMARK    2  A    between atoms: C_10  and  C_12
REMARK    3  A    between atoms: C_12  and  O_13
REMARK    4  A    between atoms: O_13  and  C_14
REMARK    5  A    between atoms: C_14  and  C_16
REMARK    6  A    between atoms: C_20  and  S_22
REMARK    7  A    between atoms: S_22  and  N_25
REMARK    8  A    between atoms: N_28  and  C_31
REMARK                            x       y       z     vdW  Elec       q    Type
REMARK                         _______ _______ _______ _____ _____    ______ ____
ROOT
ATOM      1  C   UNL     1      -0.644  -7.796  -0.028  0.00  0.00    +0.061 A 
ATOM      2  C   UNL     1      -1.975  -7.374  -0.024  0.00  0.00    +0.015 A 
ATOM      3  C   UNL     1      -2.991  -8.307  -0.025  0.00  0.00    +0.003 A 
ATOM      4  C   UNL     1      -2.693  -9.658  -0.029  0.00  0.00    +0.028 A 
ATOM      5  C   UNL     1      -1.377 -10.083  -0.032  0.00  0.00    +0.106 A 
ATOM      6  C   UNL     1      -0.351  -9.161  -0.037  0.00  0.00    +0.043 A 
ENDROOT
BRANCH   5   7
ATOM      7  S   UNL     1      -1.009 -11.806  -0.035  0.00  0.00    +0.061 S 
ATOM      8  O   UNL     1       0.295 -11.945   0.513  0.00  0.00    -0.153 OA
ATOM      9  O   UNL     1      -2.141 -12.464   0.516  0.00  0.00    -0.153 OA
BRANCH   7  10
ATOM     10  N   UNL     1      -0.909 -12.282  -1.618  0.00  0.00    -0.174 NA
ATOM     11  C   UNL     1      -2.103 -12.755  -2.334  0.00  0.00    +0.128 C 
ATOM     12  C   UNL     1      -2.278 -11.915  -3.604  0.00  0.00    +0.122 C 
ATOM     13  N   UNL     1      -0.995 -11.871  -4.319  0.00  0.00    -0.327 N 
ATOM     14  C   UNL     1       0.198 -11.398  -3.604  0.00  0.00    +0.122 C 
ATOM     15  C   UNL     1       0.373 -12.233  -2.335  0.00  0.00    +0.128 C 
BRANCH  13  16
ATOM     16  C   UNL     1      -0.911 -12.273  -5.656  0.00  0.00    +0.030 A 
ATOM     17  C   UNL     1       0.279 -12.119  -6.355  0.00  0.00    +0.026 A 
ATOM     18  C   UNL     1       0.360 -12.518  -7.675  0.00  0.00    +0.040 A 
ATOM     19  C   UNL     1      -0.745 -13.069  -8.302  0.00  0.00    +0.124 A 
ATOM     20  C   UNL     1      -1.932 -13.223  -7.607  0.00  0.00    +0.040 A 
ATOM     21  C   UNL     1      -2.016 -12.831  -6.285  0.00  0.00    +0.026 A 
ATOM     22  F   UNL     1      -0.663 -13.457  -9.593  0.00  0.00    -0.205 F 
ENDBRANCH  13  16
ENDBRANCH   7  10
ENDBRANCH   5   7
BRANCH   1  23
ATOM     23  C   UNL     1       0.449  -6.802  -0.027  0.00  0.00    +0.340 C 
ATOM     24  O   UNL     1       1.606  -7.172  -0.035  0.00  0.00    -0.245 OA
BRANCH  23  25
ATOM     25  O   UNL     1       0.163  -5.486  -0.018  0.00  0.00    -0.453 OA
BRANCH  25  26
ATOM     26  C   UNL     1       1.269  -4.581  -0.018  0.00  0.00    +0.311 C 
BRANCH  26  27
ATOM     27  C   UNL     1       0.758  -3.163  -0.007  0.00  0.00    +0.199 C 
ATOM     28  O   UNL     1      -0.437  -2.948   0.001  0.00  0.00    -0.289 OA
BRANCH  27  35
ATOM     29  C   UNL     1       0.146   1.329   0.025  0.00  0.00    +0.001 A 
ATOM     30  C   UNL     1       1.330   2.083   0.024  0.00  0.00    +0.002 A 
ATOM     31  C   UNL     1       2.548   1.500   0.013  0.00  0.00    +0.026 A 
ATOM     32  C   UNL     1       2.638   0.031   0.003  0.00  0.00    +0.043 A 
ATOM     33  N   UNL     1       3.659  -0.778  -0.007  0.00  0.00    -0.380 N 
ATOM     34  C   UNL     1       3.180  -2.164  -0.013  0.00  0.00    +0.152 C 
ATOM     35  C   UNL     1       1.669  -2.085  -0.005  0.00  0.00    +0.026 C 
ATOM     36  C   UNL     1       1.368  -0.735   0.005  0.00  0.00    +0.006 A 
ATOM     37  C   UNL     1       0.146  -0.022   0.017  0.00  0.00    +0.010 A 
ATOM     38  H   UNL     1       4.590  -0.506  -0.011  0.00  0.00    +0.160 HD
ENDBRANCH  27  35
ENDBRANCH  26  27
ENDBRANCH  25  26
ENDBRANCH  23  25
ENDBRANCH   1  23
TORSDOF 8
