REMARK  Name = ZINC20477457
REMARK  8 active torsions:
REMARK  status: ('A' for Active; 'I' for Inactive)
REMARK    1  A    between atoms: C_1  and  O_2
REMARK    2  A    between atoms: O_2  and  C_3
REMARK    3  A    between atoms: C_5  and  C_20
REMARK    4  A    between atoms: C_8  and  O_9
REMARK    5  A    between atoms: O_9  and  C_10
REMARK    6  A    between atoms: C_10  and  C_11
REMARK    7  A    between atoms: C_20  and  N_21
REMARK    8  A    between atoms: N_21  and  C_22
REMARK                            x       y       z     vdW  Elec       q    Type
REMARK                         _______ _______ _______ _____ _____    ______ ____
ROOT
ATOM      1  C   UNL     1       5.199   4.516  -1.646  0.00  0.00    +0.163 A 
ATOM      2  C   UNL     1       6.380   5.218  -1.830  0.00  0.00    +0.054 A 
ATOM      3  C   UNL     1       7.579   4.537  -1.935  0.00  0.00    -0.029 A 
ATOM      4  C   UNL     1       7.604   3.158  -1.852  0.00  0.00    +0.024 A 
ATOM      5  C   UNL     1       6.429   2.452  -1.663  0.00  0.00    +0.063 A 
ATOM      6  C   UNL     1       5.224   3.128  -1.556  0.00  0.00    +0.176 A 
ATOM      7 BR   UNL     1       6.468   0.565  -1.548  0.00  0.00    -0.046 Br
ENDROOT
BRANCH   1   9
ATOM      8  C   UNL     1       4.068   6.609  -1.649  0.00  0.00    +0.277 C 
ATOM      9  O   UNL     1       4.018   5.184  -1.548  0.00  0.00    -0.491 OA
ENDBRANCH   1   9
BRANCH   6  10
ATOM     10  O   UNL     1       4.068   2.436  -1.371  0.00  0.00    -0.483 OA
BRANCH  10  11
ATOM     11  C   UNL     1       3.672   2.185  -0.021  0.00  0.00    +0.264 C 
BRANCH  11  12
ATOM     12  C   UNL     1       2.378   1.412  -0.013  0.00  0.00    -0.009 A 
ATOM     13  C   UNL     1       1.171   2.087   0.002  0.00  0.00    +0.008 A 
ATOM     14  C   UNL     1      -0.017   1.379   0.010  0.00  0.00    +0.022 A 
ATOM     15  C   UNL     1       0.002  -0.004   0.002  0.00  0.00    +0.059 A 
ATOM     16  C   UNL     1       1.211  -0.679  -0.013  0.00  0.00    +0.060 A 
ATOM     17  C   UNL     1       2.398   0.030  -0.021  0.00  0.00    +0.028 A 
ATOM     18 CL   UNL     1       1.236  -2.415  -0.022  0.00  0.00    -0.082 Cl
ATOM     19 CL   UNL     1      -1.489  -0.893   0.011  0.00  0.00    -0.082 Cl
ENDBRANCH  11  12
ENDBRANCH  10  11
ENDBRANCH   6  10
BRANCH   3  20
ATOM     20  C   UNL     1       8.861   5.301  -2.140  0.00  0.00    +0.116 C 
BRANCH  20  21
ATOM     21  N   UNL     1       9.110   5.464  -3.579  0.00  0.00    -0.311 NA
ATOM     22  H   UNL     1       9.193   4.474  -4.051  0.00  0.00    +0.122 HD
BRANCH  21  23
ATOM     23  C   UNL     1      10.355   6.206  -3.817  0.00  0.00    +0.040 C 
ATOM     24  C   UNL     1      10.073   7.711  -3.764  0.00  0.00    -0.060 C 
ATOM     25  N   UNL     1      10.423   8.318  -5.055  0.00  0.00    +0.381 N 
ATOM     26  C   UNL     1       9.600   7.763  -6.139  0.00  0.00    -0.078 C 
ATOM     27  C   UNL     1       9.867   6.260  -6.260  0.00  0.00    -0.014 C 
ATOM     28  C   UNL     1      10.905   5.855  -5.205  0.00  0.00    +0.001 C 
ATOM     29  C   UNL     1      12.186   6.664  -5.443  0.00  0.00    -0.014 C 
ATOM     30  C   UNL     1      11.854   8.156  -5.345  0.00  0.00    -0.078 C 
ATOM     31  H   UNL     1      10.211   9.396  -4.988  0.00  0.00    -0.082 HD
ENDBRANCH  21  23
ENDBRANCH  20  21
ENDBRANCH   3  20
TORSDOF 7
