REMARK  Name = ZINC20412438
REMARK  8 active torsions:
REMARK  status: ('A' for Active; 'I' for Inactive)
REMARK    1  A    between atoms: C_1  and  O_2
REMARK    2  A    between atoms: O_2  and  C_3
REMARK    3  A    between atoms: C_6  and  C_10
REMARK    4  A    between atoms: N_12  and  C_13
REMARK    5  A    between atoms: C_13  and  N_15
REMARK    6  A    between atoms: C_21  and  C_25
REMARK    7  A    between atoms: C_25  and  O_27
REMARK    8  A    between atoms: O_27  and  C_28
REMARK                            x       y       z     vdW  Elec       q    Type
REMARK                         _______ _______ _______ _____ _____    ______ ____
ROOT
ATOM      1  C   UNL     1       3.253  -4.490   5.370  0.00  0.00    +0.143 C 
ATOM      2  S   UNL     1       3.964  -3.554   6.615  0.00  0.00    -0.018 S 
ENDROOT
BRANCH   1   3
ATOM      3  N   UNL     1       3.312  -5.836   5.421  0.00  0.00    -0.276 N 
ATOM      4  C   UNL     1       3.947  -6.460   6.479  0.00  0.00    +0.165 A 
ATOM      5  N   UNL     1       4.541  -5.920   7.520  0.00  0.00    -0.225 NA
ATOM      6  C   UNL     1       5.123  -6.651   8.483  0.00  0.00    +0.080 A 
ATOM      7  C   UNL     1       5.790  -6.188   9.645  0.00  0.00    +0.030 A 
ATOM      8  C   UNL     1       6.332  -7.056  10.533  0.00  0.00    +0.017 A 
ATOM      9  C   UNL     1       6.257  -8.443  10.340  0.00  0.00    +0.060 A 
ATOM     10  C   UNL     1       5.606  -8.936   9.203  0.00  0.00    +0.032 A 
ATOM     11  C   UNL     1       5.060  -8.056   8.310  0.00  0.00    +0.042 A 
ATOM     12  S   UNL     1       4.164  -8.208   6.784  0.00  0.00    -0.052 S 
ATOM     13  H   UNL     1       2.909  -6.366   4.716  0.00  0.00    +0.156 HD
BRANCH   9  14
ATOM     14  C   UNL     1       6.855  -9.368  11.319  0.00  0.00    +0.339 C 
ATOM     15  O   UNL     1       6.785 -10.569  11.142  0.00  0.00    -0.245 OA
BRANCH  14  16
ATOM     16  O   UNL     1       7.480  -8.883  12.410  0.00  0.00    -0.464 OA
ATOM     17  C   UNL     1       8.037  -9.837  13.317  0.00  0.00    +0.280 C 
ENDBRANCH  14  16
ENDBRANCH   9  14
ENDBRANCH   1   3
BRANCH   1  20
ATOM     18  C   UNL     1       2.575  -2.536   4.288  0.00  0.00    +0.250 C 
ATOM     19  O   UNL     1       3.080  -1.872   5.172  0.00  0.00    -0.270 OA
ATOM     20  N   UNL     1       2.634  -3.882   4.339  0.00  0.00    -0.264 N 
ATOM     21  H   UNL     1       2.231  -4.412   3.634  0.00  0.00    +0.157 HD
BRANCH  18  25
ATOM     22  C   UNL     1       0.625  -0.618   1.040  0.00  0.00    +0.134 A 
ATOM     23  C   UNL     1       1.202   0.144   2.050  0.00  0.00    +0.047 A 
ATOM     24  C   UNL     1       1.835  -0.475   3.105  0.00  0.00    +0.017 A 
ATOM     25  C   UNL     1       1.897  -1.870   3.160  0.00  0.00    +0.038 A 
ATOM     26  C   UNL     1       1.316  -2.632   2.143  0.00  0.00    +0.032 A 
ATOM     27  C   UNL     1       0.680  -2.006   1.093  0.00  0.00    +0.060 A 
ATOM     28 BR   UNL     1      -0.114  -3.036  -0.280  0.00  0.00    -0.046 Br
BRANCH  22  30
ATOM     29  C   UNL     1      -0.017   1.425   0.010  0.00  0.00    +0.277 C 
ATOM     30  O   UNL     1       0.002  -0.004   0.002  0.00  0.00    -0.494 OA
ENDBRANCH  22  30
ENDBRANCH  18  25
ENDBRANCH   1  20
TORSDOF 6
