REMARK  Name = ZINC36584568
REMARK  11 active torsions:
REMARK  status: ('A' for Active; 'I' for Inactive)
REMARK    1  A    between atoms: C_1  and  C_2
REMARK    2  A    between atoms: C_2  and  C_37
REMARK    3  A    between atoms: C_4  and  N_10
REMARK    4  A    between atoms: C_6  and  C_8
REMARK    5  A    between atoms: C_6  and  C_9
REMARK    6  A    between atoms: C_11  and  C_13
REMARK    7  A    between atoms: C_13  and  C_15
REMARK    8  A    between atoms: C_13  and  N_21
REMARK    9  A    between atoms: C_22  and  C_24
REMARK   10  A    between atoms: C_24  and  C_25
REMARK   11  A    between atoms: C_24  and  C_31
REMARK                            x       y       z     vdW  Elec       q    Type
REMARK                         _______ _______ _______ _____ _____    ______ ____
ROOT
ATOM      1  C   UNL     1      -5.261   0.045   2.800  0.00  0.00    +0.189 C 
ENDROOT
BRANCH   1   2
ATOM      2  C   UNL     1      -5.306   0.473   1.357  0.00  0.00    -0.018 A 
ATOM      3  C   UNL     1      -5.963   1.637   1.001  0.00  0.00    +0.006 A 
ATOM      4  C   UNL     1      -6.005   2.030  -0.323  0.00  0.00    +0.000 A 
ATOM      5  C   UNL     1      -5.389   1.260  -1.292  0.00  0.00    +0.000 A 
ATOM      6  C   UNL     1      -4.731   0.098  -0.937  0.00  0.00    +0.000 A 
ATOM      7  C   UNL     1      -4.686  -0.293   0.388  0.00  0.00    +0.006 A 
ENDBRANCH   1   2
BRANCH   1   9
ATOM      8  N   UNL     1      -2.913   0.754   3.122  0.00  0.00    -0.311 N 
ATOM      9  C   UNL     1      -4.197   0.829   3.525  0.00  0.00    +0.238 C 
ATOM     10  O   UNL     1      -4.497   1.528   4.469  0.00  0.00    -0.273 OA
ATOM     11  H   UNL     1      -2.674   0.195   2.367  0.00  0.00    +0.149 HD
BRANCH   8  15
ATOM     12  C   UNL     1      -0.014   4.004   3.774  0.00  0.00    -0.010 C 
ATOM     13  C   UNL     1       0.401   2.540   3.596  0.00  0.00    -0.072 C 
ATOM     14  C   UNL     1      -0.706   1.774   2.879  0.00  0.00    +0.009 C 
ATOM     15  C   UNL     1      -1.877   1.518   3.827  0.00  0.00    +0.070 C 
ATOM     16  C   UNL     1      -1.362   0.697   5.010  0.00  0.00    +0.009 C 
ATOM     17  C   UNL     1      -0.260   1.454   5.743  0.00  0.00    -0.072 C 
ATOM     18  N   UNL     1       0.787   1.942   4.862  0.00  0.00    +0.386 N 
ATOM     19  C   UNL     1       0.389   0.471   6.744  0.00  0.00    -0.010 C 
ATOM     20  C   UNL     1      -0.872   2.593   6.565  0.00  0.00    -0.010 C 
ATOM     21  C   UNL     1       1.642   2.529   2.673  0.00  0.00    -0.010 C 
ATOM     22  H   UNL     1       1.429   1.168   4.668  0.00  0.00    -0.084 HD
ATOM     23  H   UNL     1       1.350   2.624   5.380  0.00  0.00    -0.084 HD
ENDBRANCH   8  15
ENDBRANCH   1   9
BRANCH   1  24
ATOM     24  N   UNL     1      -6.562   0.295   3.425  0.00  0.00    -0.300 N 
ATOM     25  C   UNL     1      -7.548  -0.619   3.319  0.00  0.00    +0.226 C 
ATOM     26  O   UNL     1      -7.357  -1.648   2.706  0.00  0.00    -0.275 OA
ATOM     27  H   UNL     1      -6.715   1.118   3.915  0.00  0.00    +0.150 HD
BRANCH  25  28
ATOM     28  C   UNL     1      -8.886  -0.362   3.962  0.00  0.00    +0.135 C 
BRANCH  28  29
ATOM     29  C   UNL     1      -9.489   0.892   3.382  0.00  0.00    -0.031 A 
ATOM     30  C   UNL     1      -9.586   1.043   2.012  0.00  0.00    +0.005 A 
ATOM     31  C   UNL     1     -10.139   2.193   1.480  0.00  0.00    +0.000 A 
ATOM     32  C   UNL     1     -10.595   3.193   2.320  0.00  0.00    +0.000 A 
ATOM     33  C   UNL     1     -10.498   3.042   3.691  0.00  0.00    +0.000 A 
ATOM     34  C   UNL     1      -9.949   1.890   4.222  0.00  0.00    +0.005 A 
ENDBRANCH  28  29
BRANCH  28  35
ATOM     35  C   UNL     1      -9.803  -1.528   3.697  0.00  0.00    -0.031 A 
ATOM     36  C   UNL     1     -10.004  -1.969   2.402  0.00  0.00    +0.005 A 
ATOM     37  C   UNL     1     -10.845  -3.039   2.159  0.00  0.00    +0.000 A 
ATOM     38  C   UNL     1     -11.485  -3.668   3.211  0.00  0.00    +0.000 A 
ATOM     39  C   UNL     1     -11.283  -3.228   4.506  0.00  0.00    +0.000 A 
ATOM     40  C   UNL     1     -10.438  -2.161   4.749  0.00  0.00    +0.005 A 
ENDBRANCH  28  35
ENDBRANCH  25  28
ENDBRANCH   1  24
TORSDOF 7
