REMARK  Name = ZINC02865615
REMARK  11 active torsions:
REMARK  status: ('A' for Active; 'I' for Inactive)
REMARK    1  A    between atoms: C_1  and  C_2
REMARK    2  A    between atoms: C_4  and  N_9
REMARK    3  A    between atoms: C_6  and  C_8
REMARK    4  A    between atoms: N_9  and  S_10
REMARK    5  A    between atoms: S_10  and  C_13
REMARK    6  A    between atoms: C_16  and  N_19
REMARK    7  A    between atoms: C_20  and  C_22
REMARK    8  A    between atoms: C_22  and  S_23
REMARK    9  A    between atoms: S_23  and  C_24
REMARK   10  A    between atoms: C_27  and  C_30
REMARK   11  A    between atoms: N_28  and  N_29
REMARK                            x       y       z     vdW  Elec       q    Type
REMARK                         _______ _______ _______ _____ _____    ______ ____
ROOT
ATOM      1  N   UNL     1      -2.933  -1.799   5.139  0.00  0.00    -0.285 N 
ATOM      2  C   UNL     1      -2.528  -3.083   5.195  0.00  0.00    +0.227 C 
ATOM      3  O   UNL     1      -2.022  -3.602   4.222  0.00  0.00    -0.275 OA
ATOM      4  H   UNL     1      -3.268  -1.361   5.937  0.00  0.00    +0.155 HD
ENDROOT
BRANCH   1   8
ATOM      5  C   UNL     1      -2.752   0.288   1.538  0.00  0.00    +0.109 A 
ATOM      6  C   UNL     1      -2.541   0.953   2.732  0.00  0.00    +0.030 A 
ATOM      7  C   UNL     1      -2.605   0.265   3.928  0.00  0.00    +0.025 A 
ATOM      8  C   UNL     1      -2.872  -1.098   3.929  0.00  0.00    +0.034 A 
ATOM      9  C   UNL     1      -3.079  -1.764   2.728  0.00  0.00    +0.025 A 
ATOM     10  C   UNL     1      -3.018  -1.069   1.536  0.00  0.00    +0.030 A 
BRANCH   5  11
ATOM     11  S   UNL     1      -2.676   1.171   0.015  0.00  0.00    +0.073 S 
ATOM     12  O   UNL     1      -2.364   0.218  -0.992  0.00  0.00    -0.150 OA
ATOM     13  O   UNL     1      -1.873   2.320   0.252  0.00  0.00    -0.150 OA
BRANCH  11  14
ATOM     14  N   UNL     1      -4.204   1.720  -0.310  0.00  0.00    -0.199 N 
ATOM     15  H   UNL     1      -4.684   1.388  -1.085  0.00  0.00    +0.175 HD
BRANCH  14  19
ATOM     16  C   UNL     1      -8.012   4.606   0.873  0.00  0.00    +0.066 C 
ATOM     17  C   UNL     1      -6.628   4.062   1.117  0.00  0.00    +0.044 A 
ATOM     18  C   UNL     1      -6.083   3.128   0.258  0.00  0.00    +0.068 A 
ATOM     19  C   UNL     1      -4.797   2.653   0.525  0.00  0.00    +0.141 A 
ATOM     20  N   UNL     1      -4.149   3.116   1.590  0.00  0.00    -0.216 NA
ATOM     21  C   UNL     1      -4.708   4.007   2.383  0.00  0.00    +0.128 A 
ATOM     22  N   UNL     1      -5.919   4.474   2.158  0.00  0.00    -0.237 NA
ATOM     23  C   UNL     1      -3.940   4.506   3.580  0.00  0.00    +0.088 C 
ENDBRANCH  14  19
ENDBRANCH  11  14
ENDBRANCH   5  11
ENDBRANCH   1   8
BRANCH   2  24
ATOM     24  C   UNL     1      -2.704  -3.874   6.465  0.00  0.00    +0.173 C 
BRANCH  24  25
ATOM     25  S   UNL     1      -2.067  -5.551   6.225  0.00  0.00    -0.075 S 
BRANCH  25  26
ATOM     26  C   UNL     1      -2.390  -6.233   7.817  0.00  0.00    +0.209 A 
ATOM     27  N   UNL     1      -2.945  -5.614   8.833  0.00  0.00    -0.121 NA
ATOM     28  N   UNL     1      -3.028  -6.411   9.838  0.00  0.00    -0.132 NA
ATOM     29  C   UNL     1      -2.534  -7.576   9.527  0.00  0.00    +0.154 A 
ATOM     30  N   UNL     1      -2.116  -7.506   8.226  0.00  0.00    -0.228 N 
BRANCH  29  31
ATOM     31  C   UNL     1      -2.447  -8.779  10.430  0.00  0.00    +0.059 C 
ATOM     32  C   UNL     1      -3.853  -9.182  10.880  0.00  0.00    +0.011 C 
ATOM     33  C   UNL     1      -3.764 -10.404  11.796  0.00  0.00    +0.001 C 
ATOM     34  C   UNL     1      -2.915 -10.061  13.022  0.00  0.00    +0.000 C 
ATOM     35  C   UNL     1      -1.510  -9.658  12.572  0.00  0.00    +0.001 C 
ATOM     36  C   UNL     1      -1.598  -8.436  11.655  0.00  0.00    +0.011 C 
ENDBRANCH  29  31
BRANCH  30  37
ATOM     37  N   UNL     1      -1.541  -8.503   7.491  0.00  0.00    -0.295 N 
ATOM     38  H   UNL     1      -0.536  -8.490   7.588  0.00  0.00    +0.163 HD
ATOM     39  H   UNL     1      -1.917  -9.404   7.745  0.00  0.00    +0.163 HD
ENDBRANCH  30  37
ENDBRANCH  25  26
ENDBRANCH  24  25
ENDBRANCH   2  24
TORSDOF 9
