REMARK  Name = ZINC06445466
REMARK  9 active torsions:
REMARK  status: ('A' for Active; 'I' for Inactive)
REMARK    1  A    between atoms: C_5  and  C_11
REMARK    2  A    between atoms: C_11  and  C_13
REMARK    3  A    between atoms: C_11  and  N_21
REMARK    4  A    between atoms: N_15  and  C_16
REMARK    5  A    between atoms: N_21  and  C_22
REMARK    6  A    between atoms: C_22  and  C_23
REMARK    7  A    between atoms: C_28  and  C_30
REMARK    8  A    between atoms: C_31  and  N_38
REMARK    9  A    between atoms: C_32  and  C_35
REMARK                            x       y       z     vdW  Elec       q    Type
REMARK                         _______ _______ _______ _____ _____    ______ ____
ROOT
ATOM      1  N   UNL     1       5.968  -2.082  -3.040  0.00  0.00    -0.274 N 
ATOM      2  C   UNL     1       7.294  -2.325  -3.030  0.00  0.00    +0.258 C 
ATOM      3  O   UNL     1       8.083  -1.398  -3.046  0.00  0.00    -0.269 OA
ENDROOT
BRANCH   2   4
ATOM      4  C   UNL     1       7.785  -3.704  -2.999  0.00  0.00    +0.115 A 
ATOM      5  C   UNL     1       8.822  -4.291  -3.727  0.00  0.00    +0.076 A 
ATOM      6  C   UNL     1       8.993  -5.641  -3.420  0.00  0.00    +0.155 A 
ATOM      7  N   UNL     1       8.209  -6.202  -2.527  0.00  0.00    -0.203 NA
ATOM      8  S   UNL     1       7.220  -5.082  -2.023  0.00  0.00    +0.019 S 
BRANCH   6   9
ATOM      9  C   UNL     1      10.042  -6.430  -4.091  0.00  0.00    +0.262 C 
ATOM     10  O   UNL     1      10.764  -5.905  -4.917  0.00  0.00    -0.269 OA
ATOM     11  N   UNL     1      10.201  -7.734  -3.789  0.00  0.00    -0.324 N 
ATOM     12  H   UNL     1       9.626  -8.153  -3.130  0.00  0.00    +0.145 HD
ATOM     13  H   UNL     1      10.891  -8.253  -4.231  0.00  0.00    +0.145 HD
ENDBRANCH   6   9
BRANCH   5  14
ATOM     14  N   UNL     1       9.596  -3.607  -4.655  0.00  0.00    -0.355 N 
ATOM     15  H   UNL     1      10.303  -4.069  -5.131  0.00  0.00    +0.142 HD
ATOM     16  H   UNL     1       9.429  -2.667  -4.827  0.00  0.00    +0.142 HD
ENDBRANCH   5  14
ENDBRANCH   2   4
BRANCH   1  17
ATOM     17  C   UNL     1       5.473  -0.731  -3.314  0.00  0.00    +0.193 C 
BRANCH  17  22
ATOM     18  C   UNL     1       5.951   3.817   0.770  0.00  0.00    +0.020 A 
ATOM     19  C   UNL     1       6.170   3.211  -0.434  0.00  0.00    +0.011 A 
ATOM     20  C   UNL     1       5.629   1.929  -0.641  0.00  0.00    +0.001 A 
ATOM     21  C   UNL     1       5.818   1.241  -1.851  0.00  0.00    +0.016 A 
ATOM     22  C   UNL     1       5.274   0.004  -2.014  0.00  0.00    -0.018 A 
ATOM     23  C   UNL     1       4.539  -0.594  -0.991  0.00  0.00    +0.008 A 
ATOM     24  C   UNL     1       4.341   0.041   0.196  0.00  0.00    +0.028 A 
ATOM     25  C   UNL     1       4.883   1.322   0.400  0.00  0.00    +0.071 A 
ATOM     26  N   UNL     1       4.705   1.970   1.555  0.00  0.00    -0.255 NA
ATOM     27  C   UNL     1       5.208   3.165   1.751  0.00  0.00    +0.111 A 
ENDBRANCH  17  22
BRANCH  17  28
ATOM     28  C   UNL     1       4.161  -0.816  -4.049  0.00  0.00    +0.238 C 
ATOM     29  O   UNL     1       3.408  -1.744  -3.841  0.00  0.00    -0.273 OA
ATOM     30  N   UNL     1       3.823   0.139  -4.938  0.00  0.00    -0.311 N 
ATOM     31  H   UNL     1       4.425   0.881  -5.104  0.00  0.00    +0.149 HD
BRANCH  30  32
ATOM     32  C   UNL     1       2.547   0.056  -5.653  0.00  0.00    +0.073 C 
ATOM     33  C   UNL     1       2.716  -0.776  -6.941  0.00  0.00    +0.022 C 
ATOM     34  C   UNL     1       1.808  -0.065  -7.975  0.00  0.00    +0.002 C 
ATOM     35  C   UNL     1       2.009   1.432  -7.633  0.00  0.00    +0.002 C 
ATOM     36  C   UNL     1       2.097   1.460  -6.093  0.00  0.00    +0.022 C 
ENDBRANCH  30  32
ENDBRANCH  17  28
ENDBRANCH   1  17
BRANCH   1  37
ATOM     37  C   UNL     1       5.022  -3.170  -2.777  0.00  0.00    +0.183 C 
BRANCH  37  38
ATOM     38  C   UNL     1       4.779  -3.942  -4.048  0.00  0.00    +0.122 A 
ATOM     39  C   UNL     1       5.534  -4.955  -4.510  0.00  0.00    +0.046 A 
ATOM     40  C   UNL     1       4.947  -5.383  -5.723  0.00  0.00    +0.041 A 
ATOM     41  C   UNL     1       3.868  -4.606  -5.930  0.00  0.00    +0.195 A 
ATOM     42  O   UNL     1       3.768  -3.739  -4.909  0.00  0.00    -0.466 OA
ENDBRANCH  37  38
ENDBRANCH   1  37
TORSDOF 9
