REMARK  Name = ZINC04925197
REMARK  6 active torsions:
REMARK  status: ('A' for Active; 'I' for Inactive)
REMARK    1  A    between atoms: C_3  and  N_26
REMARK    2  A    between atoms: C_6  and  N_7
REMARK    3  A    between atoms: N_7  and  C_8
REMARK    4  A    between atoms: C_8  and  N_10
REMARK    5  A    between atoms: N_10  and  C_11
REMARK    6  A    between atoms: C_11  and  C_12
REMARK                            x       y       z     vdW  Elec       q    Type
REMARK                         _______ _______ _______ _____ _____    ______ ____
ROOT
ATOM      1  N   UNL     1      -0.470   1.901   1.249  0.00  0.00    -0.322 N 
ATOM      2  H   UNL     1      -1.384   2.204   1.128  0.00  0.00    +0.148 HD
ENDROOT
BRANCH   1   3
ATOM      3  C   UNL     1      -0.027   1.574   2.479  0.00  0.00    +0.135 C 
ATOM      4  S   UNL     1       1.585   1.040   2.693  0.00  0.00    -0.019 S 
BRANCH   3   5
ATOM      5  N   UNL     1      -0.853   1.667   3.540  0.00  0.00    -0.297 N 
ATOM      6  H   UNL     1      -1.746   2.028   3.429  0.00  0.00    +0.154 HD
BRANCH   5  12
ATOM      7  C   UNL     1      -1.252   0.466   5.597  0.00  0.00    +0.025 A 
ATOM      8  C   UNL     1      -0.821   0.044   6.839  0.00  0.00    +0.034 A 
ATOM      9  C   UNL     1       0.433   0.407   7.297  0.00  0.00    +0.126 A 
ATOM     10  C   UNL     1       1.261   1.186   6.510  0.00  0.00    +0.034 A 
ATOM     11  C   UNL     1       0.838   1.606   5.264  0.00  0.00    +0.025 A 
ATOM     12  C   UNL     1      -0.421   1.244   4.802  0.00  0.00    +0.033 A 
BRANCH   9  13
ATOM     13  N   UNL     1       0.889  -0.041   8.632  0.00  0.00    +0.056 N 
ATOM     14  O   UNL     1       1.994   0.277   9.036  0.00  0.00    -0.126 OA
ATOM     15  O   UNL     1       0.161  -0.727   9.326  0.00  0.00    -0.126 OA
ENDBRANCH   9  13
ENDBRANCH   5  12
ENDBRANCH   3   5
ENDBRANCH   1   3
BRANCH   1  16
ATOM     16  C   UNL     1       0.427   1.800   0.096  0.00  0.00    +0.138 C 
BRANCH  16  17
ATOM     17  C   UNL     1      -0.308   2.220  -1.151  0.00  0.00    -0.030 A 
ATOM     18  C   UNL     1      -0.993   1.272  -1.899  0.00  0.00    +0.007 A 
ATOM     19  C   UNL     1      -1.675   1.637  -3.039  0.00  0.00    +0.026 A 
ATOM     20  C   UNL     1      -1.671   2.965  -3.453  0.00  0.00    +0.047 A 
ATOM     21  C   UNL     1      -0.969   3.922  -2.694  0.00  0.00    +0.003 A 
ATOM     22  C   UNL     1      -0.289   3.530  -1.539  0.00  0.00    +0.015 A 
ATOM     23  C   UNL     1      -1.157   5.194  -3.385  0.00  0.00    -0.019 A 
ATOM     24  C   UNL     1      -1.924   4.955  -4.466  0.00  0.00    +0.020 A 
ATOM     25  N   UNL     1      -2.239   3.626  -4.520  0.00  0.00    -0.358 N 
ATOM     26  H   UNL     1      -2.782   3.210  -5.208  0.00  0.00    +0.166 HD
ATOM     27  C   UNL     1      -2.348   6.025  -5.446  0.00  0.00    +0.053 C 
ATOM     28  C   UNL     1      -2.138   7.395  -4.792  0.00  0.00    +0.006 C 
ATOM     29  C   UNL     1      -0.720   7.475  -4.217  0.00  0.00    +0.005 C 
ATOM     30  C   UNL     1      -0.613   6.546  -3.002  0.00  0.00    +0.037 C 
ENDBRANCH  16  17
ENDBRANCH   1  16
TORSDOF 6
