REMARK  Name = ZINC39675470
REMARK  14 active torsions:
REMARK  status: ('A' for Active; 'I' for Inactive)
REMARK    1  A    between atoms: C_1  and  C_2
REMARK    2  A    between atoms: C_2  and  C_4
REMARK    3  A    between atoms: C_2  and  N_14
REMARK    4  A    between atoms: C_4  and  C_5
REMARK    5  A    between atoms: C_5  and  C_6
REMARK    6  A    between atoms: C_9  and  O_12
REMARK    7  A    between atoms: O_12  and  C_13
REMARK    8  A    between atoms: C_15  and  C_17
REMARK    9  A    between atoms: C_28  and  C_30
REMARK   10  A    between atoms: C_30  and  C_32
REMARK   11  A    between atoms: C_30  and  O_35
REMARK   12  A    between atoms: C_32  and  C_33
REMARK   13  A    between atoms: C_32  and  C_34
REMARK   14  A    between atoms: O_35  and  C_36
REMARK                            x       y       z     vdW  Elec       q    Type
REMARK                         _______ _______ _______ _____ _____    ______ ____
ROOT
ATOM      1  C   UNL     1      -3.481  -1.142  -1.235  0.00  0.00    +0.100 C 
ATOM      2  C   UNL     1      -4.348  -0.262  -0.308  0.00  0.00    +0.121 C 
ATOM      3  N   UNL     1      -5.017   0.697  -1.219  0.00  0.00    -0.297 N 
ATOM      4  C   UNL     1      -5.364  -0.111  -2.413  0.00  0.00    +0.115 C 
ATOM      5  C   UNL     1      -4.153  -1.044  -2.615  0.00  0.00    -0.004 C 
ATOM      6  C   UNL     1      -4.619  -2.422  -3.075  0.00  0.00    -0.010 C 
ATOM      7  C   UNL     1      -5.231  -2.308  -4.474  0.00  0.00    -0.082 C 
ATOM      8  N   UNL     1      -4.231  -1.771  -5.405  0.00  0.00    +0.379 N 
ATOM      9  C   UNL     1      -3.858  -0.408  -5.008  0.00  0.00    -0.082 C 
ATOM     10  C   UNL     1      -3.188  -0.442  -3.631  0.00  0.00    -0.010 C 
ATOM     11  C   UNL     1      -5.256   2.006  -1.010  0.00  0.00    +0.257 C 
ATOM     12  O   UNL     1      -5.820   2.663  -1.859  0.00  0.00    -0.272 OA
ATOM     13  H   UNL     1      -3.412  -2.359  -5.394  0.00  0.00    -0.086 HD
ATOM     14  H   UNL     1      -4.617  -1.754  -6.338  0.00  0.00    -0.086 HD
ENDROOT
BRANCH   1  16
ATOM     15  N   UNL     1      -1.041  -1.453  -1.502  0.00  0.00    -0.312 N 
ATOM     16  C   UNL     1      -2.072  -0.609  -1.299  0.00  0.00    +0.218 C 
ATOM     17  O   UNL     1      -1.867   0.579  -1.167  0.00  0.00    -0.275 OA
ATOM     18  H   UNL     1      -1.206  -2.403  -1.607  0.00  0.00    +0.149 HD
BRANCH  15  20
ATOM     19  C   UNL     1       0.893  -0.819  -0.146  0.00  0.00    +0.028 C 
ATOM     20  C   UNL     1       0.328  -0.935  -1.563  0.00  0.00    +0.070 C 
BRANCH  20  21
ATOM     21  C   UNL     1       1.198  -1.890  -2.383  0.00  0.00    +0.026 C 
BRANCH  21  22
ATOM     22  C   UNL     1       0.707  -1.911  -3.832  0.00  0.00    +0.037 C 
BRANCH  22  23
ATOM     23  C   UNL     1       1.565  -2.852  -4.639  0.00  0.00    -0.047 A 
ATOM     24  C   UNL     1       2.702  -2.381  -5.268  0.00  0.00    +0.007 A 
ATOM     25  C   UNL     1       3.489  -3.241  -6.009  0.00  0.00    +0.046 A 
ATOM     26  C   UNL     1       3.138  -4.579  -6.121  0.00  0.00    +0.120 A 
ATOM     27  C   UNL     1       1.996  -5.049  -5.488  0.00  0.00    +0.046 A 
ATOM     28  C   UNL     1       1.215  -4.186  -4.744  0.00  0.00    +0.007 A 
BRANCH  26  29
ATOM     29  O   UNL     1       3.910  -5.427  -6.849  0.00  0.00    -0.495 OA
ATOM     30  C   UNL     1       3.487  -6.790  -6.921  0.00  0.00    +0.277 C 
ENDBRANCH  26  29
ENDBRANCH  22  23
ENDBRANCH  21  22
ENDBRANCH  20  21
ENDBRANCH  15  20
ENDBRANCH   1  16
BRANCH  11  31
ATOM     31  C   UNL     1      -4.824   2.655   0.280  0.00  0.00    +0.261 C 
BRANCH  31  32
ATOM     32  C   UNL     1      -5.606   2.045   1.445  0.00  0.00    +0.033 C 
ATOM     33  C   UNL     1      -5.167   2.703   2.754  0.00  0.00    +0.011 C 
ATOM     34  C   UNL     1      -7.103   2.280   1.233  0.00  0.00    +0.011 C 
ENDBRANCH  31  32
BRANCH  31  35
ATOM     35  O   UNL     1      -5.081   4.059   0.217  0.00  0.00    -0.479 OA
BRANCH  35  36
ATOM     36  C   UNL     1      -4.213   4.875   0.870  0.00  0.00    +0.122 A 
ATOM     37  C   UNL     1      -3.088   4.344   1.484  0.00  0.00    +0.045 A 
ATOM     38  C   UNL     1      -2.207   5.176   2.147  0.00  0.00    +0.004 A 
ATOM     39  C   UNL     1      -2.445   6.537   2.199  0.00  0.00    +0.000 A 
ATOM     40  C   UNL     1      -3.566   7.069   1.588  0.00  0.00    +0.004 A 
ATOM     41  C   UNL     1      -4.447   6.242   0.919  0.00  0.00    +0.045 A 
ENDBRANCH  35  36
ENDBRANCH  31  35
ENDBRANCH  11  31
TORSDOF 10
