REMARK  Name = ZINC17113598
REMARK  5 active torsions:
REMARK  status: ('A' for Active; 'I' for Inactive)
REMARK    1  A    between atoms: C_1  and  C_2
REMARK    2  A    between atoms: C_2  and  C_3
REMARK    3  A    between atoms: C_2  and  S_4
REMARK    4  A    between atoms: S_4  and  C_5
REMARK    5  A    between atoms: C_12  and  C_22
REMARK                            x       y       z     vdW  Elec       q    Type
REMARK                         _______ _______ _______ _____ _____    ______ ____
ROOT
ATOM      1  C   UNL     1      -0.136  -0.087   2.816  0.00  0.00    +0.172 A 
ATOM      2  N   UNL     1       0.244  -0.378   4.092  0.00  0.00    -0.322 N 
ATOM      3  C   UNL     1      -0.537   0.016   5.147  0.00  0.00    +0.111 A 
ATOM      4  C   UNL     1      -1.689   0.697   4.905  0.00  0.00    +0.069 A 
ATOM      5  C   UNL     1      -2.044   0.983   3.569  0.00  0.00    +0.280 A 
ATOM      6  N   UNL     1      -1.245   0.579   2.569  0.00  0.00    -0.185 NA
ATOM      7  O   UNL     1      -3.071   1.600   3.324  0.00  0.00    -0.265 OA
ATOM      8  C   UNL     1      -2.576   1.137   6.032  0.00  0.00    +0.092 C 
ATOM      9  C   UNL     1      -1.841   1.116   7.348  0.00  0.00    +0.024 C 
ATOM     10  C   UNL     1      -2.387   1.842   8.421  0.00  0.00    +0.162 C 
ATOM     11  C   UNL     1      -1.709   1.879   9.763  0.00  0.00    +0.080 C 
ATOM     12  C   UNL     1      -0.200   1.698   9.565  0.00  0.00    +0.014 C 
ATOM     13  C   UNL     1       0.036   0.387   8.812  0.00  0.00    +0.051 C 
ATOM     14  C   UNL     1      -0.693   0.421   7.492  0.00  0.00    +0.017 C 
ATOM     15  N   UNL     1      -0.160  -0.271   6.438  0.00  0.00    -0.304 N 
ATOM     16  O   UNL     1      -3.427   2.450   8.262  0.00  0.00    -0.292 OA
ATOM     17  H   UNL     1       0.491  -0.971   6.603  0.00  0.00    +0.153 HD
ATOM     18  H   UNL     1       1.067  -0.864   4.253  0.00  0.00    +0.169 HD
ENDROOT
BRANCH   8  19
ATOM     19  C   UNL     1      -3.763   0.211   6.115  0.00  0.00    -0.035 A 
ATOM     20  C   UNL     1      -3.571  -1.138   6.347  0.00  0.00    +0.005 A 
ATOM     21  C   UNL     1      -4.659  -1.987   6.424  0.00  0.00    +0.015 A 
ATOM     22  C   UNL     1      -5.939  -1.487   6.270  0.00  0.00    +0.018 A 
ATOM     23  C   UNL     1      -6.130  -0.136   6.038  0.00  0.00    +0.015 A 
ATOM     24  C   UNL     1      -5.042   0.713   5.966  0.00  0.00    +0.005 A 
ATOM     25 BR   UNL     1      -7.428  -2.648   6.375  0.00  0.00    -0.050 Br
ENDBRANCH   8  19
BRANCH   1  26
ATOM     26  S   UNL     1       0.879  -0.605   1.472  0.00  0.00    -0.085 S 
BRANCH  26  28
ATOM     27  C   UNL     1      -0.019   1.526   0.010  0.00  0.00    +0.019 C 
ATOM     28  C   UNL     1       0.002  -0.004   0.002  0.00  0.00    +0.048 C 
ATOM     29  C   UNL     1       0.718  -0.497  -1.257  0.00  0.00    +0.019 C 
ENDBRANCH  26  28
ENDBRANCH   1  26
TORSDOF 3
