REMARK  Name = ZINC39972179
REMARK  13 active torsions:
REMARK  status: ('A' for Active; 'I' for Inactive)
REMARK    1  A    between atoms: C_1  and  O_2
REMARK    2  A    between atoms: O_2  and  C_3
REMARK    3  A    between atoms: C_6  and  C_9
REMARK    4  A    between atoms: C_12  and  N_18
REMARK    5  A    between atoms: C_13  and  C_14
REMARK    6  A    between atoms: C_14  and  O_16
REMARK    7  A    between atoms: O_16  and  C_17
REMARK    8  A    between atoms: C_19  and  C_21
REMARK    9  A    between atoms: C_21  and  N_22
REMARK   10  A    between atoms: N_25  and  C_28
REMARK   11  A    between atoms: C_28  and  C_29
REMARK   12  A    between atoms: C_32  and  S_35
REMARK   13  A    between atoms: S_35  and  C_36
REMARK                            x       y       z     vdW  Elec       q    Type
REMARK                         _______ _______ _______ _____ _____    ______ ____
ROOT
ATOM      1  N   UNL     1       4.974  -5.079  -5.474  0.00  0.00    -0.278 N 
ATOM      2  C   UNL     1       5.390  -5.479  -6.692  0.00  0.00    +0.232 C 
ATOM      3  O   UNL     1       4.933  -4.961  -7.689  0.00  0.00    -0.274 OA
ATOM      4  H   UNL     1       5.339  -5.493  -4.676  0.00  0.00    +0.155 HD
ENDROOT
BRANCH   1   8
ATOM      5  C   UNL     1       2.495  -2.494  -4.366  0.00  0.00    +0.005 A 
ATOM      6  C   UNL     1       2.215  -2.155  -5.651  0.00  0.00    +0.056 A 
ATOM      7  S   UNL     1       3.266  -3.235  -6.598  0.00  0.00    -0.080 S 
ATOM      8  C   UNL     1       4.023  -4.077  -5.361  0.00  0.00    +0.086 A 
ATOM      9  C   UNL     1       3.487  -3.541  -4.200  0.00  0.00    +0.095 A 
BRANCH   5  13
ATOM     10  C   UNL     1       0.606  -0.607  -1.056  0.00  0.00    +0.120 A 
ATOM     11  C   UNL     1       1.173   0.164  -2.062  0.00  0.00    +0.046 A 
ATOM     12  C   UNL     1       1.786  -0.445  -3.136  0.00  0.00    +0.012 A 
ATOM     13  C   UNL     1       1.837  -1.837  -3.212  0.00  0.00    -0.016 A 
ATOM     14  C   UNL     1       1.266  -2.608  -2.200  0.00  0.00    +0.012 A 
ATOM     15  C   UNL     1       0.659  -1.992  -1.125  0.00  0.00    +0.046 A 
BRANCH  10  17
ATOM     16  C   UNL     1      -0.017   1.425   0.010  0.00  0.00    +0.277 C 
ATOM     17  O   UNL     1       0.002  -0.004   0.002  0.00  0.00    -0.495 OA
ENDBRANCH  10  17
ENDBRANCH   5  13
BRANCH   9  18
ATOM     18  C   UNL     1       3.897  -4.010  -2.876  0.00  0.00    +0.342 C 
ATOM     19  O   UNL     1       3.305  -4.931  -2.347  0.00  0.00    -0.245 OA
BRANCH  18  20
ATOM     20  O   UNL     1       4.931  -3.420  -2.242  0.00  0.00    -0.464 OA
ATOM     21  C   UNL     1       5.277  -3.929  -0.952  0.00  0.00    +0.280 C 
ENDBRANCH  18  20
ENDBRANCH   9  18
ENDBRANCH   1   8
BRANCH   2  22
ATOM     22  C   UNL     1       6.424  -6.568  -6.815  0.00  0.00    +0.180 C 
BRANCH  22  23
ATOM     23  N   UNL     1       6.705  -6.818  -8.235  0.00  0.00    -0.298 NA
ATOM     24  C   UNL     1       5.529  -7.381  -8.913  0.00  0.00    +0.066 C 
ATOM     25  C   UNL     1       5.844  -7.571 -10.399  0.00  0.00    -0.063 C 
ATOM     26  N   UNL     1       6.993  -8.473 -10.545  0.00  0.00    +0.384 N 
ATOM     27  C   UNL     1       8.166  -7.886  -9.883  0.00  0.00    -0.063 C 
ATOM     28  C   UNL     1       7.871  -7.700  -8.393  0.00  0.00    +0.066 C 
ATOM     29  H   UNL     1       6.778  -9.363 -10.121  0.00  0.00    -0.081 HD
BRANCH  26  30
ATOM     30  C   UNL     1       7.283  -8.669 -11.972  0.00  0.00    -0.043 C 
BRANCH  30  31
ATOM     31  C   UNL     1       8.382  -9.689 -12.125  0.00  0.00    -0.064 A 
ATOM     32  C   UNL     1       9.704  -9.282 -12.143  0.00  0.00    +0.003 A 
ATOM     33  C   UNL     1      10.713 -10.214 -12.284  0.00  0.00    +0.015 A 
ATOM     34  C   UNL     1      10.399 -11.562 -12.408  0.00  0.00    +0.008 A 
ATOM     35  C   UNL     1       9.070 -11.968 -12.388  0.00  0.00    +0.015 A 
ATOM     36  C   UNL     1       8.066 -11.031 -12.242  0.00  0.00    +0.003 A 
BRANCH  34  37
ATOM     37  S   UNL     1      11.684 -12.755 -12.588  0.00  0.00    -0.129 S 
ATOM     38  C   UNL     1      10.801 -14.335 -12.709  0.00  0.00    +0.090 C 
ENDBRANCH  34  37
ENDBRANCH  30  31
ENDBRANCH  26  30
ENDBRANCH  22  23
ENDBRANCH   2  22
TORSDOF 10
