REMARK  Name = ZINC35734075
REMARK  7 active torsions:
REMARK  status: ('A' for Active; 'I' for Inactive)
REMARK    1  A    between atoms: C_1  and  C_2
REMARK    2  A    between atoms: C_2  and  C_4
REMARK    3  A    between atoms: C_2  and  N_7
REMARK    4  A    between atoms: N_7  and  S_8
REMARK    5  A    between atoms: S_8  and  C_11
REMARK    6  A    between atoms: C_19  and  N_21
REMARK    7  A    between atoms: N_21  and  N_22
REMARK                            x       y       z     vdW  Elec       q    Type
REMARK                         _______ _______ _______ _____ _____    ______ ____
ROOT
ATOM      1  C   UNL     1      -0.951   0.603  -3.133  0.00  0.00    +0.106 A 
ATOM      2  C   UNL     1      -2.212   0.957  -2.661  0.00  0.00    +0.030 A 
ATOM      3  C   UNL     1      -2.829   2.092  -3.090  0.00  0.00    +0.030 A 
ATOM      4  C   UNL     1      -2.188   2.925  -4.023  0.00  0.00    +0.073 A 
ATOM      5  C   UNL     1      -0.905   2.563  -4.501  0.00  0.00    +0.002 A 
ATOM      6  C   UNL     1      -0.296   1.388  -4.033  0.00  0.00    +0.038 A 
ATOM      7  C   UNL     1      -0.261   3.398  -5.437  0.00  0.00    +0.013 A 
ATOM      8  C   UNL     1      -0.905   4.527  -5.846  0.00  0.00    +0.045 A 
ATOM      9  C   UNL     1      -2.175   4.830  -5.335  0.00  0.00    +0.133 A 
ATOM     10  N   UNL     1      -2.772   4.046  -4.461  0.00  0.00    -0.231 NA
ENDROOT
BRANCH   1  11
ATOM     11  S   UNL     1      -0.188  -0.875  -2.551  0.00  0.00    +0.059 S 
ATOM     12  O   UNL     1       0.751  -1.265  -3.545  0.00  0.00    -0.153 OA
ATOM     13  O   UNL     1      -1.236  -1.730  -2.117  0.00  0.00    -0.153 OA
BRANCH  11  14
ATOM     14  N   UNL     1       0.688  -0.476  -1.203  0.00  0.00    -0.187 NA
ATOM     15  H   UNL     1       1.655  -0.556  -1.212  0.00  0.00    +0.148 HD
BRANCH  14  17
ATOM     16  C   UNL     1      -0.019   1.526   0.010  0.00  0.00    +0.026 C 
ATOM     17  C   UNL     1       0.002  -0.004   0.002  0.00  0.00    +0.077 C 
BRANCH  17  18
ATOM     18  C   UNL     1       0.742  -0.511   1.242  0.00  0.00    +0.007 C 
ATOM     19  C   UNL     1       0.038  -1.559   2.105  0.00  0.00    +0.005 C 
ATOM     20  C   UNL     1       0.178  -0.122   2.610  0.00  0.00    +0.005 C 
ENDBRANCH  17  18
ENDBRANCH  14  17
ENDBRANCH  11  14
ENDBRANCH   1  11
BRANCH   9  21
ATOM     21  N   UNL     1      -2.819   5.982  -5.761  0.00  0.00    -0.268 N 
ATOM     22  H   UNL     1      -2.390   6.568  -6.405  0.00  0.00    +0.167 HD
BRANCH  21  23
ATOM     23  N   UNL     1      -4.057   6.293  -5.274  0.00  0.00    -0.255 NA
ATOM     24  H   UNL     1      -4.048   6.340  -4.266  0.00  0.00    +0.140 HD
ATOM     25  H   UNL     1      -4.396   7.155  -5.673  0.00  0.00    +0.140 HD
ENDBRANCH  21  23
ENDBRANCH   9  21
TORSDOF 6
