REMARK  Name = ZINC39984442
REMARK  8 active torsions:
REMARK  status: ('A' for Active; 'I' for Inactive)
REMARK    1  A    between atoms: C_1  and  O_2
REMARK    2  A    between atoms: O_2  and  C_3
REMARK    3  A    between atoms: C_8  and  C_16
REMARK    4  A    between atoms: C_13  and  O_14
REMARK    5  A    between atoms: O_14  and  C_15
REMARK    6  A    between atoms: N_18  and  C_19
REMARK    7  A    between atoms: C_19  and  C_20
REMARK    8  A    between atoms: C_20  and  N_22
REMARK                            x       y       z     vdW  Elec       q    Type
REMARK                         _______ _______ _______ _____ _____    ______ ____
ROOT
ATOM      1  C   UNL     1      -2.243  -3.306  -4.165  0.00  0.00    +0.259 C 
ATOM      2  O   UNL     1      -3.389  -2.946  -3.966  0.00  0.00    -0.269 OA
ATOM      3  N   UNL     1      -1.980  -4.218  -5.121  0.00  0.00    -0.302 N 
ATOM      4  H   UNL     1      -1.067  -4.506  -5.279  0.00  0.00    +0.150 HD
ENDROOT
BRANCH   1   8
ATOM      5  C   UNL     1       0.652  -0.501  -1.200  0.00  0.00    +0.192 C 
ATOM      6  C   UNL     1       0.036  -1.864  -1.510  0.00  0.00    +0.080 C 
ATOM      7  C   UNL     1      -1.303  -1.718  -2.258  0.00  0.00    +0.073 C 
ATOM      8  C   UNL     1      -1.153  -2.750  -3.365  0.00  0.00    +0.104 C 
ATOM      9  N   UNL     1       0.112  -3.057  -3.484  0.00  0.00    -0.251 NA
ATOM     10  C   UNL     1       0.913  -2.533  -2.563  0.00  0.00    +0.048 C 
ATOM     11  C   UNL     1       2.277  -2.454  -2.527  0.00  0.00    +0.027 C 
ATOM     12  C   UNL     1       2.858  -1.613  -1.552  0.00  0.00    +0.045 C 
ATOM     13  C   UNL     1       2.121  -0.686  -0.908  0.00  0.00    +0.127 C 
BRANCH   5  15
ATOM     14  C   UNL     1      -0.023   1.499  -0.063  0.00  0.00    +0.195 C 
ATOM     15  O   UNL     1       0.004   0.070  -0.061  0.00  0.00    -0.371 OA
ENDBRANCH   5  15
BRANCH  13  16
ATOM     16  O   UNL     1       2.709   0.093   0.024  0.00  0.00    -0.497 OA
ATOM     17  C   UNL     1       4.102  -0.121   0.264  0.00  0.00    +0.276 C 
ENDBRANCH  13  16
ENDBRANCH   1   8
BRANCH   3  18
ATOM     18  C   UNL     1      -3.072  -4.776  -5.923  0.00  0.00    +0.202 C 
BRANCH  18  19
ATOM     19  C   UNL     1      -2.514  -5.766  -6.913  0.00  0.00    +0.256 C 
ATOM     20  O   UNL     1      -1.319  -5.984  -6.947  0.00  0.00    -0.272 OA
BRANCH  19  21
ATOM     21  N   UNL     1      -3.329  -6.399  -7.750  0.00  0.00    -0.155 NA
ATOM     22  C   UNL     1      -2.828  -7.193  -8.694  0.00  0.00    +0.164 A 
ATOM     23  N   UNL     1      -1.533  -7.556  -8.874  0.00  0.00    -0.335 N 
ATOM     24  H   UNL     1      -0.847  -7.227  -8.273  0.00  0.00    +0.168 HD
ATOM     25  C   UNL     1      -1.194  -8.397  -9.918  0.00  0.00    +0.055 A 
ATOM     26  C   UNL     1       0.066  -8.892 -10.282  0.00  0.00    +0.027 A 
ATOM     27  C   UNL     1       0.203  -9.727 -11.367  0.00  0.00    +0.002 A 
ATOM     28  C   UNL     1      -0.892 -10.102 -12.126  0.00  0.00    +0.001 A 
ATOM     29  C   UNL     1      -2.147  -9.628 -11.787  0.00  0.00    +0.017 A 
ATOM     30  C   UNL     1      -2.286  -8.793 -10.703  0.00  0.00    +0.039 A 
ATOM     31  S   UNL     1      -3.657  -7.979  -9.927  0.00  0.00    -0.052 S 
ENDBRANCH  19  21
ENDBRANCH  18  19
ENDBRANCH   3  18
TORSDOF 6
