REMARK  Name = ZINC37525355
REMARK  10 active torsions:
REMARK  status: ('A' for Active; 'I' for Inactive)
REMARK    1  A    between atoms: C_1  and  C_2
REMARK    2  A    between atoms: C_2  and  C_4
REMARK    3  A    between atoms: C_2  and  N_10
REMARK    4  A    between atoms: C_11  and  C_13
REMARK    5  A    between atoms: C_18  and  N_19
REMARK    6  A    between atoms: C_22  and  N_25
REMARK    7  A    between atoms: N_28  and  C_29
REMARK    8  A    between atoms: C_29  and  C_30
REMARK    9  A    between atoms: C_29  and  C_31
REMARK   10  A    between atoms: C_29  and  C_32
REMARK                            x       y       z     vdW  Elec       q    Type
REMARK                         _______ _______ _______ _____ _____    ______ ____
ROOT
ATOM      1  C   UNL     1       0.777  -1.713   5.902  0.00  0.00    +0.058 A 
ATOM      2  C   UNL     1       2.156  -1.925   5.824  0.00  0.00    +0.015 A 
ATOM      3  C   UNL     1       2.804  -1.797   4.615  0.00  0.00    +0.001 A 
ATOM      4  C   UNL     1       2.095  -1.457   3.474  0.00  0.00    +0.002 A 
ATOM      5  C   UNL     1       0.734  -1.243   3.534  0.00  0.00    +0.024 A 
ATOM      6  C   UNL     1       0.061  -1.375   4.743  0.00  0.00    +0.042 A 
ENDROOT
BRANCH   6   7
ATOM      7  N   UNL     1      -1.310  -1.166   4.806  0.00  0.00    -0.329 N 
ATOM      8  C   UNL     1      -2.245  -2.294   4.690  0.00  0.00    +0.107 C 
ATOM      9  C   UNL     1      -3.253  -1.986   3.579  0.00  0.00    +0.041 C 
ATOM     10  C   UNL     1      -3.924  -0.640   3.862  0.00  0.00    +0.077 C 
ATOM     11  C   UNL     1      -2.867   0.466   3.874  0.00  0.00    +0.041 C 
ATOM     12  C   UNL     1      -1.854   0.186   4.995  0.00  0.00    +0.107 C 
BRANCH  10  13
ATOM     13  N   UNL     1      -4.913  -0.358   2.818  0.00  0.00    -0.296 N 
ATOM     14  C   UNL     1      -5.954   0.457   3.079  0.00  0.00    +0.300 C 
ATOM     15  O   UNL     1      -6.072   0.959   4.180  0.00  0.00    -0.253 OA
ATOM     16  N   UNL     1      -6.864   0.717   2.119  0.00  0.00    -0.295 N 
ATOM     17  H   UNL     1      -4.819  -0.759   1.940  0.00  0.00    +0.151 HD
ATOM     18  H   UNL     1      -6.769   0.316   1.240  0.00  0.00    +0.151 HD
BRANCH  16  19
ATOM     19  C   UNL     1      -7.995   1.603   2.402  0.00  0.00    +0.028 C 
ATOM     20  C   UNL     1      -7.473   2.985   2.799  0.00  0.00    +0.031 C 
ATOM     21  C   UNL     1      -8.870   1.728   1.153  0.00  0.00    +0.031 C 
ATOM     22  C   UNL     1      -8.824   1.022   3.549  0.00  0.00    +0.031 C 
ENDBRANCH  16  19
ENDBRANCH  10  13
ENDBRANCH   6   7
BRANCH   1  24
ATOM     23  N   UNL     1       0.743  -2.295   8.277  0.00  0.00    -0.305 N 
ATOM     24  C   UNL     1       0.077  -1.849   7.193  0.00  0.00    +0.246 C 
ATOM     25  O   UNL     1      -1.100  -1.558   7.280  0.00  0.00    -0.270 OA
ATOM     26  H   UNL     1       1.682  -2.526   8.207  0.00  0.00    +0.150 HD
BRANCH  23  28
ATOM     27  C   UNL     1      -0.658  -3.786   9.616  0.00  0.00    +0.033 C 
ATOM     28  C   UNL     1       0.048  -2.430   9.559  0.00  0.00    +0.100 C 
BRANCH  28  29
ATOM     29  C   UNL     1       1.046  -2.336  10.684  0.00  0.00    -0.027 A 
ATOM     30  C   UNL     1       2.283  -2.940  10.562  0.00  0.00    +0.005 A 
ATOM     31  C   UNL     1       3.199  -2.853  11.594  0.00  0.00    +0.000 A 
ATOM     32  C   UNL     1       2.878  -2.162  12.748  0.00  0.00    +0.000 A 
ATOM     33  C   UNL     1       1.641  -1.557  12.868  0.00  0.00    +0.000 A 
ATOM     34  C   UNL     1       0.727  -1.640  11.835  0.00  0.00    +0.005 A 
ENDBRANCH  28  29
ENDBRANCH  23  28
ENDBRANCH   1  24
TORSDOF 6
