REMARK  Name = ZINC45795450
REMARK  10 active torsions:
REMARK  status: ('A' for Active; 'I' for Inactive)
REMARK    1  A    between atoms: C_1  and  C_2
REMARK    2  A    between atoms: C_3  and  C_17
REMARK    3  A    between atoms: C_5  and  C_7
REMARK    4  A    between atoms: C_10  and  C_13
REMARK    5  A    between atoms: C_17  and  O_19
REMARK    6  A    between atoms: O_19  and  C_20
REMARK    7  A    between atoms: C_20  and  C_22
REMARK    8  A    between atoms: C_20  and  C_23
REMARK    9  A    between atoms: N_25  and  C_26
REMARK   10  A    between atoms: C_27  and  C_31
REMARK                            x       y       z     vdW  Elec       q    Type
REMARK                         _______ _______ _______ _____ _____    ______ ____
ROOT
ATOM      1  C   UNL     1      -0.007  -0.259  -2.569  0.00  0.00    +0.348 C 
ATOM      2  O   UNL     1      -0.025   0.934  -2.806  0.00  0.00    -0.244 OA
ENDROOT
BRANCH   1   5
ATOM      3  C   UNL     1      -0.018   1.503   0.010  0.00  0.00    +0.067 C 
ATOM      4  C   UNL     1       0.002  -0.004   0.002  0.00  0.00    +0.060 A 
ATOM      5  C   UNL     1       0.006  -0.731  -1.183  0.00  0.00    +0.119 A 
ATOM      6  S   UNL     1       0.032  -2.399  -0.546  0.00  0.00    -0.060 S 
ATOM      7  C   UNL     1       0.035  -2.022   1.094  0.00  0.00    +0.109 A 
ATOM      8  N   UNL     1       0.022  -0.699   1.108  0.00  0.00    -0.243 NA
BRANCH   7   9
ATOM      9  C   UNL     1       0.052  -2.948   2.245  0.00  0.00    +0.007 A 
ATOM     10  C   UNL     1       0.046  -2.447   3.548  0.00  0.00    +0.011 A 
ATOM     11  C   UNL     1       0.062  -3.318   4.619  0.00  0.00    +0.013 A 
ATOM     12  C   UNL     1       0.085  -4.684   4.402  0.00  0.00    +0.055 A 
ATOM     13  C   UNL     1       0.092  -5.187   3.114  0.00  0.00    +0.013 A 
ATOM     14  C   UNL     1       0.070  -4.328   2.034  0.00  0.00    +0.011 A 
BRANCH  12  15
ATOM     15  C   UNL     1       0.102  -5.629   5.576  0.00  0.00    +0.417 C 
ATOM     16  F   UNL     1      -1.211  -5.944   5.942  0.00  0.00    -0.166 F 
ATOM     17  F   UNL     1       0.781  -6.800   5.222  0.00  0.00    -0.166 F 
ATOM     18  F   UNL     1       0.753  -5.021   6.655  0.00  0.00    -0.166 F 
ENDBRANCH  12  15
ENDBRANCH   7   9
ENDBRANCH   1   5
BRANCH   1  19
ATOM     19  O   UNL     1      -0.000  -1.148  -3.584  0.00  0.00    -0.448 OA
BRANCH  19  20
ATOM     20  C   UNL     1      -0.014  -0.617  -4.911  0.00  0.00    +0.259 C 
ATOM     21  C   UNL     1      -1.461  -0.448  -5.378  0.00  0.00    +0.062 C 
BRANCH  20  22
ATOM     22  C   UNL     1       0.705  -1.564  -5.838  0.00  0.00    +0.258 C 
ATOM     23  O   UNL     1       1.102  -2.632  -5.424  0.00  0.00    -0.271 OA
ATOM     24  N   UNL     1       0.906  -1.223  -7.126  0.00  0.00    -0.276 N 
ATOM     25  H   UNL     1       0.588  -0.368  -7.457  0.00  0.00    +0.155 HD
BRANCH  24  26
ATOM     26  C   UNL     1       1.567  -2.093  -7.979  0.00  0.00    +0.084 A 
ATOM     27  C   UNL     1       1.866  -1.910  -9.321  0.00  0.00    +0.065 A 
ATOM     28  C   UNL     1       2.570  -2.987  -9.979  0.00  0.00    +0.022 A 
ATOM     29  C   UNL     1       2.859  -4.054  -9.212  0.00  0.00    +0.048 A 
ATOM     30  S   UNL     1       2.196  -3.607  -7.622  0.00  0.00    -0.081 S 
BRANCH  27  31
ATOM     31  C   UNL     1       1.487  -0.687 -10.035  0.00  0.00    +0.244 C 
ATOM     32  O   UNL     1       0.894   0.201  -9.450  0.00  0.00    -0.270 OA
ATOM     33  N   UNL     1       1.795  -0.545 -11.340  0.00  0.00    -0.325 N 
ATOM     34  H   UNL     1       2.267  -1.253 -11.806  0.00  0.00    +0.145 HD
ATOM     35  H   UNL     1       1.544   0.264 -11.812  0.00  0.00    +0.145 HD
ENDBRANCH  27  31
ENDBRANCH  24  26
ENDBRANCH  20  22
ENDBRANCH  19  20
ENDBRANCH   1  19
TORSDOF 8
