REMARK  Name = ZINC02188801
REMARK  11 active torsions:
REMARK  status: ('A' for Active; 'I' for Inactive)
REMARK    1  A    between atoms: C_1  and  C_2
REMARK    2  A    between atoms: C_2  and  C_39
REMARK    3  A    between atoms: C_6  and  C_26
REMARK    4  A    between atoms: C_8  and  C_24
REMARK    5  A    between atoms: C_9  and  N_23
REMARK    6  A    between atoms: N_10  and  C_11
REMARK    7  A    between atoms: C_12  and  C_21
REMARK    8  A    between atoms: C_29  and  O_34
REMARK    9  A    between atoms: C_30  and  O_32
REMARK   10  A    between atoms: O_32  and  C_33
REMARK   11  A    between atoms: O_34  and  C_35
REMARK                            x       y       z     vdW  Elec       q    Type
REMARK                         _______ _______ _______ _____ _____    ______ ____
ROOT
ATOM      1  C   UNL     1      -0.229   1.216  -0.245  0.00  0.00    +0.011 C 
ATOM      2  C   UNL     1      -0.881   1.658   1.067  0.00  0.00    -0.023 C 
ATOM      3  C   UNL     1      -0.881   3.186   1.152  0.00  0.00    +0.058 C 
ATOM      4  C   UNL     1      -1.568   3.623   2.422  0.00  0.00    +0.025 C 
ATOM      5  C   UNL     1      -2.560   2.886   2.965  0.00  0.00    +0.025 C 
ATOM      6  C   UNL     1      -3.243   3.322   4.237  0.00  0.00    +0.097 C 
ATOM      7  C   UNL     1      -2.997   4.776   4.513  0.00  0.00    +0.077 C 
ATOM      8  C   UNL     1      -1.984   5.445   3.906  0.00  0.00    +0.107 C 
ATOM      9  N   UNL     1      -1.163   4.792   3.013  0.00  0.00    -0.253 N 
ATOM     10  C   UNL     1      -2.984   1.687   2.364  0.00  0.00    +0.162 C 
ATOM     11  O   UNL     1      -3.894   1.058   2.867  0.00  0.00    -0.292 OA
ATOM     12  C   UNL     1      -2.331   1.165   1.113  0.00  0.00    +0.086 C 
ATOM     13  C   UNL     1      -0.102   1.077   2.249  0.00  0.00    +0.011 C 
ENDROOT
BRANCH   9  14
ATOM     14  C   UNL     1       0.084   5.322   2.708  0.00  0.00    +0.095 A 
ATOM     15  C   UNL     1       0.413   6.238   1.723  0.00  0.00    +0.084 A 
ATOM     16  C   UNL     1       1.806   6.644   1.613  0.00  0.00    -0.018 A 
ATOM     17  C   UNL     1       2.643   6.053   2.494  0.00  0.00    -0.004 A 
ATOM     18  S   UNL     1       1.607   4.992   3.463  0.00  0.00    -0.076 S 
ATOM     19  C   UNL     1       4.123   6.239   2.616  0.00  0.00    +0.043 C 
ATOM     20  C   UNL     1       4.446   7.739   2.632  0.00  0.00    +0.005 C 
ATOM     21  C   UNL     1       4.654   8.204   1.194  0.00  0.00    +0.001 C 
ATOM     22  C   UNL     1       3.752   7.411   0.250  0.00  0.00    +0.005 C 
ATOM     23  C   UNL     1       2.284   7.659   0.582  0.00  0.00    +0.037 C 
BRANCH  15  24
ATOM     24  C   UNL     1      -0.585   6.771   0.846  0.00  0.00    +0.102 C 
ATOM     25  N   UNL     1      -1.377   7.194   0.149  0.00  0.00    -0.191 NA
ENDBRANCH  15  24
ENDBRANCH   9  14
BRANCH   6  26
ATOM     26  C   UNL     1      -2.712   2.505   5.387  0.00  0.00    -0.031 A 
ATOM     27  C   UNL     1      -1.364   2.537   5.691  0.00  0.00    +0.008 A 
ATOM     28  C   UNL     1      -0.874   1.794   6.749  0.00  0.00    +0.050 A 
ATOM     29  C   UNL     1      -1.733   1.006   7.500  0.00  0.00    +0.162 A 
ATOM     30  C   UNL     1      -3.089   0.971   7.190  0.00  0.00    +0.162 A 
ATOM     31  C   UNL     1      -3.575   1.722   6.132  0.00  0.00    +0.054 A 
BRANCH  30  32
ATOM     32  O   UNL     1      -3.935   0.199   7.923  0.00  0.00    -0.491 OA
ATOM     33  C   UNL     1      -5.314   0.211   7.547  0.00  0.00    +0.277 C 
ENDBRANCH  30  32
BRANCH  29  34
ATOM     34  O   UNL     1      -1.251   0.270   8.537  0.00  0.00    -0.491 OA
ATOM     35  C   UNL     1       0.152   0.356   8.797  0.00  0.00    +0.277 C 
ENDBRANCH  29  34
ENDBRANCH   6  26
BRANCH   8  36
ATOM     36  N   UNL     1      -1.776   6.775   4.183  0.00  0.00    -0.345 N 
ATOM     37  H   UNL     1      -2.403   7.257   4.745  0.00  0.00    +0.144 HD
ATOM     38  H   UNL     1      -1.002   7.231   3.818  0.00  0.00    +0.144 HD
ENDBRANCH   8  36
BRANCH   7  39
ATOM     39  C   UNL     1      -3.847   5.470   5.433  0.00  0.00    +0.099 C 
ATOM     40  N   UNL     1      -4.521   6.021   6.163  0.00  0.00    -0.191 NA
ENDBRANCH   7  39
TORSDOF 7
