REMARK  Name = ZINC50122289
REMARK  2 active torsions:
REMARK  status: ('A' for Active; 'I' for Inactive)
REMARK    1  A    between atoms: C_2  and  C_13
REMARK    2  A    between atoms: N_15  and  C_18
REMARK                            x       y       z     vdW  Elec       q    Type
REMARK                         _______ _______ _______ _____ _____    ______ ____
ROOT
ATOM      1  C   UNL     1      -0.017   1.380   0.010  0.00  0.00    +0.055 A 
ATOM      2  C   UNL     1       1.175   2.083   0.002  0.00  0.00    -0.013 A 
ATOM      3  C   UNL     1       2.381   1.407  -0.014  0.00  0.00    +0.030 A 
ATOM      4  C   UNL     1       2.404   0.023  -0.022  0.00  0.00    +0.087 A 
ATOM      5  C   UNL     1       1.212  -0.683  -0.013  0.00  0.00    +0.180 A 
ATOM      6  C   UNL     1       0.002  -0.004   0.002  0.00  0.00    +0.164 A 
ATOM      7  O   UNL     1      -1.167  -0.709   0.010  0.00  0.00    -0.488 OA
ATOM      8  C   UNL     1      -1.468  -1.433  -1.184  0.00  0.00    +0.232 C 
ATOM      9  C   UNL     1      -0.780  -2.789  -1.181  0.00  0.00    +0.082 C 
ATOM     10  C   UNL     1       0.736  -2.670  -1.212  0.00  0.00    +0.232 C 
ATOM     11  O   UNL     1       1.220  -2.048  -0.020  0.00  0.00    -0.487 OA
ATOM     12 CL   UNL     1       3.919  -0.824  -0.042  0.00  0.00    -0.080 Cl
ENDROOT
BRANCH   2  13
ATOM     13  C   UNL     1       1.159   3.590   0.011  0.00  0.00    +0.172 C 
ATOM     14  C   UNL     1       1.435   4.133  -1.378  0.00  0.00    +0.101 C 
ATOM     15  N   UNL     1       2.595   4.864  -1.239  0.00  0.00    -0.278 N 
ATOM     16  C   UNL     1       3.029   4.815   0.056  0.00  0.00    +0.160 C 
ATOM     17  N   UNL     1       2.267   4.114   0.824  0.00  0.00    -0.366 N 
ATOM     18  N   UNL     1       0.739   3.951  -2.452  0.00  0.00    -0.388 N 
ATOM     19  H   UNL     1      -0.066   3.411  -2.422  0.00  0.00    +0.157 HD
ATOM     20  H   UNL     1       1.021   4.355  -3.287  0.00  0.00    +0.157 HD
ATOM     21  H   UNL     1       2.400   3.958   1.772  0.00  0.00    +0.161 HD
BRANCH  15  22
ATOM     22  C   UNL     1       3.266   5.589  -2.321  0.00  0.00    +0.081 C 
ATOM     23  C   UNL     1       4.647   6.177  -2.028  0.00  0.00    +0.025 C 
ATOM     24  C   UNL     1       3.435   7.101  -2.160  0.00  0.00    +0.025 C 
ENDBRANCH  15  22
ENDBRANCH   2  13
TORSDOF 2
