REMARK  Name = ZINC40381431
REMARK  4 active torsions:
REMARK  status: ('A' for Active; 'I' for Inactive)
REMARK    1  A    between atoms: C_3  and  N_12
REMARK    2  A    between atoms: C_6  and  S_7
REMARK    3  A    between atoms: S_7  and  N_10
REMARK    4  A    between atoms: C_13  and  C_15
REMARK                            x       y       z     vdW  Elec       q    Type
REMARK                         _______ _______ _______ _____ _____    ______ ____
ROOT
ATOM      1  C   UNL     1       0.075   1.243   0.634  0.00  0.00    +0.030 A 
ATOM      2  C   UNL     1       1.261   1.951   0.616  0.00  0.00    +0.028 A 
ATOM      3  C   UNL     1       2.381   1.412  -0.002  0.00  0.00    +0.069 A 
ATOM      4  C   UNL     1       2.304   0.160  -0.602  0.00  0.00    +0.146 A 
ATOM      5  C   UNL     1       1.114  -0.543  -0.581  0.00  0.00    +0.068 A 
ATOM      6  C   UNL     1       0.001  -0.001   0.037  0.00  0.00    +0.108 A 
ATOM      7  F   UNL     1       3.391  -0.368  -1.205  0.00  0.00    -0.203 F 
ENDROOT
BRANCH   3   8
ATOM      8  N   UNL     1       3.584   2.128  -0.021  0.00  0.00    -0.283 N 
ATOM      9  C   UNL     1       3.567   3.472  -0.116  0.00  0.00    +0.221 C 
ATOM     10  O   UNL     1       2.511   4.068  -0.103  0.00  0.00    -0.275 OA
ATOM     11  H   UNL     1       4.430   1.656   0.033  0.00  0.00    +0.155 HD
BRANCH   9  12
ATOM     12  C   UNL     1       4.861   4.235  -0.238  0.00  0.00    +0.083 C 
ATOM     13  C   UNL     1       5.591   3.863  -1.552  0.00  0.00    +0.021 C 
ATOM     14  C   UNL     1       5.662   5.215  -2.331  0.00  0.00    +0.013 C 
ATOM     15  C   UNL     1       4.279   5.846  -1.931  0.00  0.00    +0.016 C 
ATOM     16  C   UNL     1       4.585   5.765  -0.386  0.00  0.00    +0.024 C 
ATOM     17  C   UNL     1       5.980   6.401  -0.363  0.00  0.00    -0.027 C 
ATOM     18  C   UNL     1       6.619   6.076  -1.497  0.00  0.00    -0.027 C 
ENDBRANCH   9  12
ENDBRANCH   3   8
BRANCH   6  19
ATOM     19  S   UNL     1      -1.515  -0.900   0.062  0.00  0.00    +0.056 S 
ATOM     20  O   UNL     1      -1.176  -2.272  -0.088  0.00  0.00    -0.153 OA
ATOM     21  O   UNL     1      -2.256  -0.416   1.174  0.00  0.00    -0.153 OA
BRANCH  19  22
ATOM     22  N   UNL     1      -2.361  -0.470  -1.295  0.00  0.00    -0.204 NA
ATOM     23  H   UNL     1      -1.986   0.172  -1.918  0.00  0.00    +0.144 HD
ATOM     24  H   UNL     1      -3.233  -0.860  -1.466  0.00  0.00    +0.144 HD
ENDBRANCH  19  22
ENDBRANCH   6  19
TORSDOF 4
