REMARK  Name = ZINC12660463
REMARK  12 active torsions:
REMARK  status: ('A' for Active; 'I' for Inactive)
REMARK    1  A    between atoms: C_1  and  C_2
REMARK    2  A    between atoms: C_5  and  C_8
REMARK    3  A    between atoms: C_8  and  C_10
REMARK    4  A    between atoms: C_8  and  O_43
REMARK    5  A    between atoms: C_10  and  N_11
REMARK    6  A    between atoms: C_12  and  C_14
REMARK    7  A    between atoms: C_14  and  C_15
REMARK    8  A    between atoms: C_15  and  C_16
REMARK    9  A    between atoms: C_16  and  O_18
REMARK   10  A    between atoms: O_18  and  C_19
REMARK   11  A    between atoms: C_25  and  C_42
REMARK   12  A    between atoms: C_40  and  C_41
REMARK                            x       y       z     vdW  Elec       q    Type
REMARK                         _______ _______ _______ _____ _____    ______ ____
ROOT
ATOM      1  O   UNL     1      -0.418   1.373   7.363  0.00  0.00    -0.461 OA
ENDROOT
BRANCH   1   2
ATOM      2  C   UNL     1      -1.147   1.875   8.511  0.00  0.00    +0.183 C 
ATOM      3  C   UNL     1      -0.585   3.233   8.966  0.00  0.00    +0.045 C 
ATOM      4  C   UNL     1      -0.320   3.115  10.479  0.00  0.00    +0.008 C 
ATOM      5  C   UNL     1      -0.121   1.597  10.738  0.00  0.00    +0.002 C 
ATOM      6  C   UNL     1      -1.027   0.925   9.706  0.00  0.00    +0.008 C 
ATOM      7  C   UNL     1      -0.628  -0.476   9.312  0.00  0.00    +0.011 C 
ATOM      8  C   UNL     1       0.875  -0.646   9.113  0.00  0.00    +0.005 C 
ATOM      9  C   UNL     1       1.581  -0.221  10.404  0.00  0.00    +0.002 C 
ATOM     10  C   UNL     1       1.362   1.280  10.582  0.00  0.00    -0.003 C 
ATOM     11  C   UNL     1       1.975   2.052   9.417  0.00  0.00    +0.008 C 
ATOM     12  C   UNL     1       3.488   1.810   9.378  0.00  0.00    +0.032 C 
ATOM     13  C   UNL     1       3.740   0.315   9.319  0.00  0.00    -0.060 C 
ATOM     14  C   UNL     1       4.545  -0.142   8.361  0.00  0.00    +0.046 C 
ATOM     15  C   UNL     1       4.817  -1.581   8.264  0.00  0.00    +0.156 C 
ATOM     16  O   UNL     1       5.159  -2.101   7.224  0.00  0.00    -0.293 OA
ATOM     17  C   UNL     1       4.642  -2.378   9.543  0.00  0.00    +0.080 C 
ATOM     18  C   UNL     1       3.256  -2.049  10.097  0.00  0.00    +0.019 C 
ATOM     19  C   UNL     1       3.070  -0.561  10.334  0.00  0.00    -0.007 C 
ATOM     20  C   UNL     1       3.692  -0.251  11.702  0.00  0.00    +0.016 C 
ATOM     21  C   UNL     1      -2.436   0.820  10.335  0.00  0.00    +0.015 C 
ENDBRANCH   1   2
BRANCH   1  22
ATOM     22  C   UNL     1      -0.893   1.698   6.151  0.00  0.00    +0.308 C 
ATOM     23  O   UNL     1      -1.885   2.379   6.053  0.00  0.00    -0.251 OA
BRANCH  22  24
ATOM     24  C   UNL     1      -0.187   1.212   4.911  0.00  0.00    +0.130 C 
BRANCH  24  25
ATOM     25  C   UNL     1      -0.927   1.718   3.671  0.00  0.00    +0.107 C 
BRANCH  25  27
ATOM     26  N   UNL     1      -0.698   1.558   1.213  0.00  0.00    -0.313 N 
ATOM     27  C   UNL     1      -0.222   1.232   2.431  0.00  0.00    +0.214 C 
ATOM     28  O   UNL     1       0.774   0.548   2.529  0.00  0.00    -0.276 OA
ATOM     29  H   UNL     1      -1.495   2.106   1.135  0.00  0.00    +0.149 HD
BRANCH  26  30
ATOM     30  C   UNL     1      -0.013   1.086   0.008  0.00  0.00    +0.140 C 
BRANCH  30  31
ATOM     31  C   UNL     1      -0.753   1.593  -1.232  0.00  0.00    +0.163 C 
BRANCH  31  36
ATOM     32  C   UNL     1       1.757  -0.534  -5.927  0.00  0.00    +0.065 C 
ATOM     33  C   UNL     1       1.078   0.007  -4.695  0.00  0.00    +0.038 A 
ATOM     34  C   UNL     1      -0.081  -0.590  -4.236  0.00  0.00    +0.023 A 
ATOM     35  C   UNL     1      -0.697  -0.084  -3.101  0.00  0.00    +0.009 A 
ATOM     36  C   UNL     1      -0.121   1.007  -2.468  0.00  0.00    +0.000 A 
ATOM     37  C   UNL     1       1.036   1.554  -2.989  0.00  0.00    +0.117 A 
ATOM     38  N   UNL     1       1.598   1.044  -4.067  0.00  0.00    -0.260 NA
ENDBRANCH  31  36
BRANCH  31  39
ATOM     39  O   UNL     1      -0.672   3.018  -1.285  0.00  0.00    -0.386 OA
ATOM     40  H   UNL     1       0.232   3.360  -1.333  0.00  0.00    +0.210 HD
ENDBRANCH  31  39
ENDBRANCH  30  31
ENDBRANCH  26  30
ENDBRANCH  25  27
ENDBRANCH  24  25
ENDBRANCH  22  24
ENDBRANCH   1  22
TORSDOF 9
