REMARK  Name = ZINC38636922
REMARK  13 active torsions:
REMARK  status: ('A' for Active; 'I' for Inactive)
REMARK    1  A    between atoms: C_1  and  C_2
REMARK    2  A    between atoms: C_2  and  C_3
REMARK    3  A    between atoms: C_2  and  C_4
REMARK    4  A    between atoms: C_2  and  C_5
REMARK    5  A    between atoms: C_8  and  N_11
REMARK    6  A    between atoms: N_14  and  C_15
REMARK    7  A    between atoms: C_15  and  C_16
REMARK    8  A    between atoms: C_16  and  C_18
REMARK    9  A    between atoms: C_16  and  N_27
REMARK   10  A    between atoms: C_21  and  N_24
REMARK   11  A    between atoms: N_24  and  C_25
REMARK   12  A    between atoms: N_24  and  C_26
REMARK   13  A    between atoms: N_30  and  C_33
REMARK                            x       y       z     vdW  Elec       q    Type
REMARK                         _______ _______ _______ _____ _____    ______ ____
ROOT
ATOM      1  C   UNL     1       6.947  -2.174  -7.354  0.00  0.00    +0.104 C 
ENDROOT
BRANCH   1   2
ATOM      2  N   UNL     1       6.938  -3.638  -7.239  0.00  0.00    -0.297 NA
ATOM      3  C   UNL     1       7.759  -4.254  -8.290  0.00  0.00    +0.066 C 
ATOM      4  C   UNL     1       7.772  -5.772  -8.100  0.00  0.00    -0.064 C 
ATOM      5  N   UNL     1       6.397  -6.286  -8.165  0.00  0.00    +0.379 N 
ATOM      6  C   UNL     1       5.595  -5.680  -7.094  0.00  0.00    -0.064 C 
ATOM      7  C   UNL     1       5.564  -4.161  -7.276  0.00  0.00    +0.066 C 
ATOM      8  C   UNL     1       6.412  -7.745  -8.000  0.00  0.00    -0.096 C 
ATOM      9  H   UNL     1       5.994  -6.053  -9.060  0.00  0.00    -0.082 HD
ENDBRANCH   1   2
BRANCH   1  10
ATOM     10  C   UNL     1       8.366  -1.673  -7.288  0.00  0.00    -0.029 A 
ATOM     11  C   UNL     1       9.261  -2.250  -6.405  0.00  0.00    +0.007 A 
ATOM     12  C   UNL     1      10.563  -1.794  -6.341  0.00  0.00    +0.023 A 
ATOM     13  C   UNL     1      10.974  -0.754  -7.166  0.00  0.00    +0.029 A 
ATOM     14  C   UNL     1      10.073  -0.177  -8.051  0.00  0.00    +0.023 A 
ATOM     15  C   UNL     1       8.774  -0.642  -8.114  0.00  0.00    +0.007 A 
BRANCH  13  16
ATOM     16  N   UNL     1      12.290  -0.290  -7.104  0.00  0.00    -0.336 N 
ATOM     17  C   UNL     1      13.238  -0.900  -6.169  0.00  0.00    +0.129 C 
ATOM     18  C   UNL     1      12.721   0.806  -7.974  0.00  0.00    +0.129 C 
ENDBRANCH  13  16
ENDBRANCH   1  10
BRANCH   1  19
ATOM     19  C   UNL     1       6.138  -1.567  -6.206  0.00  0.00    +0.129 C 
BRANCH  19  23
ATOM     20  N   UNL     1       5.438   1.986  -5.568  0.00  0.00    -0.269 N 
ATOM     21  C   UNL     1       5.498   0.648  -5.417  0.00  0.00    +0.304 C 
ATOM     22  O   UNL     1       5.035   0.127  -4.421  0.00  0.00    -0.253 OA
ATOM     23  N   UNL     1       6.072  -0.113  -6.370  0.00  0.00    -0.297 N 
ATOM     24  H   UNL     1       5.741   2.395  -6.393  0.00  0.00    +0.156 HD
ATOM     25  H   UNL     1       6.442   0.303  -7.165  0.00  0.00    +0.150 HD
BRANCH  20  29
ATOM     26  C   UNL     1       3.953   4.365  -2.487  0.00  0.00    -0.042 A 
ATOM     27  C   UNL     1       4.662   3.216  -2.190  0.00  0.00    +0.006 A 
ATOM     28  C   UNL     1       5.155   2.425  -3.209  0.00  0.00    +0.023 A 
ATOM     29  C   UNL     1       4.939   2.785  -4.533  0.00  0.00    +0.035 A 
ATOM     30  C   UNL     1       4.226   3.940  -4.827  0.00  0.00    +0.023 A 
ATOM     31  C   UNL     1       3.730   4.724  -3.804  0.00  0.00    +0.006 A 
BRANCH  26  33
ATOM     32  C   UNL     1       1.891   5.310  -1.482  0.00  0.00    +0.015 C 
ATOM     33  C   UNL     1       3.415   5.226  -1.373  0.00  0.00    -0.013 C 
ATOM     34  C   UNL     1       4.012   6.631  -1.480  0.00  0.00    +0.015 C 
ATOM     35  C   UNL     1       3.797   4.612  -0.025  0.00  0.00    +0.015 C 
ENDBRANCH  26  33
ENDBRANCH  20  29
ENDBRANCH  19  23
ENDBRANCH   1  19
TORSDOF 7
