REMARK  Name = ZINC20744650
REMARK  9 active torsions:
REMARK  status: ('A' for Active; 'I' for Inactive)
REMARK    1  A    between atoms: C_1  and  C_2
REMARK    2  A    between atoms: C_2  and  C_3
REMARK    3  A    between atoms: C_3  and  C_5
REMARK    4  A    between atoms: C_3  and  C_6
REMARK    5  A    between atoms: C_6  and  C_8
REMARK    6  A    between atoms: C_6  and  N_12
REMARK    7  A    between atoms: C_8  and  O_10
REMARK    8  A    between atoms: O_10  and  C_11
REMARK    9  A    between atoms: C_24  and  C_26
REMARK                            x       y       z     vdW  Elec       q    Type
REMARK                         _______ _______ _______ _____ _____    ______ ____
ROOT
ATOM      1  N   UNL     1       0.723  -3.748   1.860  0.00  0.00    -0.286 N 
ATOM      2  C   UNL     1       1.429  -2.707   2.342  0.00  0.00    +0.304 C 
ATOM      3  O   UNL     1       1.486  -1.667   1.714  0.00  0.00    -0.253 OA
ATOM      4  N   UNL     1       2.072  -2.817   3.522  0.00  0.00    -0.273 N 
ATOM      5  C   UNL     1       2.751  -1.659   4.122  0.00  0.00    +0.116 C 
ATOM      6  C   UNL     1       2.060  -1.299   5.444  0.00  0.00    +0.076 C 
ATOM      7  C   UNL     1       1.822  -2.565   6.229  0.00  0.00    +0.066 A 
ATOM      8  C   UNL     1       1.840  -3.806   5.698  0.00  0.00    +0.064 A 
ATOM      9  N   UNL     1       1.580  -4.680   6.707  0.00  0.00    -0.346 N 
ATOM     10  H   UNL     1       1.525  -5.646   6.634  0.00  0.00    +0.167 HD
ATOM     11  C   UNL     1       1.412  -3.947   7.831  0.00  0.00    +0.197 A 
ATOM     12  N   UNL     1       1.560  -2.682   7.534  0.00  0.00    -0.240 NA
ATOM     13  C   UNL     1       2.107  -4.100   4.247  0.00  0.00    +0.159 C 
ATOM     14  H   UNL     1       0.737  -4.600   2.323  0.00  0.00    +0.151 HD
ENDROOT
BRANCH  13  15
ATOM     15  C   UNL     1       3.465  -4.736   4.098  0.00  0.00    +0.017 A 
ATOM     16  C   UNL     1       4.119  -5.237   5.208  0.00  0.00    +0.011 A 
ATOM     17  C   UNL     1       5.365  -5.820   5.075  0.00  0.00    +0.042 A 
ATOM     18  C   UNL     1       5.960  -5.905   3.828  0.00  0.00    +0.161 A 
ATOM     19  C   UNL     1       5.306  -5.404   2.713  0.00  0.00    +0.194 A 
ATOM     20  C   UNL     1       4.054  -4.824   2.849  0.00  0.00    +0.167 A 
ATOM     21  F   UNL     1       3.412  -4.341   1.763  0.00  0.00    -0.202 F 
ATOM     22  F   UNL     1       5.886  -5.486   1.496  0.00  0.00    -0.199 F 
ATOM     23  F   UNL     1       7.178  -6.475   3.697  0.00  0.00    -0.202 F 
ENDBRANCH  13  15
BRANCH   1  24
ATOM     24  C   UNL     1      -0.066  -3.593   0.635  0.00  0.00    +0.186 C 
BRANCH  24  25
ATOM     25  C   UNL     1      -0.244  -4.958  -0.033  0.00  0.00    +0.017 C 
ATOM     26  C   UNL     1      -1.001  -5.894   0.912  0.00  0.00    +0.010 C 
BRANCH  25  28
ATOM     27  C   UNL     1       0.952  -6.863  -1.121  0.00  0.00    +0.004 C 
ATOM     28  C   UNL     1       1.129  -5.555  -0.348  0.00  0.00    +0.002 C 
ENDBRANCH  25  28
ENDBRANCH  24  25
BRANCH  24  29
ATOM     29  C   UNL     1      -1.418  -3.022   0.977  0.00  0.00    +0.328 C 
ATOM     30  O   UNL     1      -1.823  -3.067   2.114  0.00  0.00    -0.249 OA
BRANCH  29  31
ATOM     31  O   UNL     1      -2.172  -2.462   0.018  0.00  0.00    -0.467 OA
ATOM     32  C   UNL     1      -3.442  -1.940   0.413  0.00  0.00    +0.280 C 
ENDBRANCH  29  31
ENDBRANCH  24  29
ENDBRANCH   1  24
TORSDOF 6
