REMARK  Name = ZINC25953209
REMARK  7 active torsions:
REMARK  status: ('A' for Active; 'I' for Inactive)
REMARK    1  A    between atoms: C_1  and  C_2
REMARK    2  A    between atoms: C_4  and  C_8
REMARK    3  A    between atoms: C_5  and  C_7
REMARK    4  A    between atoms: N_10  and  N_11
REMARK    5  A    between atoms: C_12  and  C_14
REMARK    6  A    between atoms: C_16  and  C_25
REMARK    7  A    between atoms: N_18  and  C_19
REMARK                            x       y       z     vdW  Elec       q    Type
REMARK                         _______ _______ _______ _____ _____    ______ ____
ROOT
ATOM      1  C   UNL     1      -0.009   1.496   0.269  0.00  0.00    +0.131 A 
ATOM      2  C   UNL     1       1.079   2.332   0.156  0.00  0.00    +0.066 A 
ATOM      3  C   UNL     1       0.601   3.609  -0.180  0.00  0.00    +0.129 A 
ATOM      4  N   UNL     1      -0.715   3.554  -0.267  0.00  0.00    -0.163 NA
ATOM      5  N   UNL     1      -1.127   2.243   0.003  0.00  0.00    -0.227 N 
ENDROOT
BRANCH   5   6
ATOM      6  C   UNL     1      -2.447   1.779   0.004  0.00  0.00    +0.066 A 
ATOM      7  C   UNL     1      -2.762   0.576  -0.615  0.00  0.00    +0.028 A 
ATOM      8  C   UNL     1      -4.065   0.118  -0.608  0.00  0.00    +0.002 A 
ATOM      9  C   UNL     1      -5.057   0.861   0.006  0.00  0.00    +0.000 A 
ATOM     10  C   UNL     1      -4.747   2.062   0.618  0.00  0.00    +0.002 A 
ATOM     11  C   UNL     1      -3.446   2.523   0.619  0.00  0.00    +0.028 A 
ENDBRANCH   5   6
BRANCH   3  12
ATOM     12  C   UNL     1       1.431   4.813  -0.399  0.00  0.00    +0.155 A 
ATOM     13  C   UNL     1       0.973   6.049  -0.730  0.00  0.00    +0.051 A 
ATOM     14  C   UNL     1       2.102   6.887  -0.834  0.00  0.00    +0.042 A 
ATOM     15  C   UNL     1       3.183   6.126  -0.574  0.00  0.00    +0.196 A 
ATOM     16  O   UNL     1       2.774   4.874  -0.311  0.00  0.00    -0.461 OA
ENDBRANCH   3  12
BRANCH   1  18
ATOM     17  N   UNL     1       1.203  -0.574   0.727  0.00  0.00    -0.229 N 
ATOM     18  C   UNL     1       0.022   0.064   0.608  0.00  0.00    +0.279 C 
ATOM     19  O   UNL     1      -1.018  -0.543   0.780  0.00  0.00    -0.267 OA
ATOM     20  H   UNL     1       2.144  -0.008   0.658  0.00  0.00    +0.173 HD
BRANCH  17  23
ATOM     21  C   UNL     1       2.413  -2.598   1.056  0.00  0.00    +0.263 C 
ATOM     22  O   UNL     1       3.453  -1.972   0.981  0.00  0.00    -0.269 OA
ATOM     23  N   UNL     1       1.232  -1.959   0.937  0.00  0.00    -0.230 N 
ATOM     24  H   UNL     1       0.292  -2.525   1.005  0.00  0.00    +0.173 HD
BRANCH  21  28
ATOM     25  C   UNL     1       1.004  -7.449   1.766  0.00  0.00    +0.086 C 
ATOM     26  C   UNL     1       1.805  -6.185   1.589  0.00  0.00    +0.103 A 
ATOM     27  C   UNL     1       1.292  -4.959   1.400  0.00  0.00    +0.057 A 
ATOM     28  C   UNL     1       2.445  -4.054   1.278  0.00  0.00    +0.079 A 
ATOM     29  C   UNL     1       3.548  -4.844   1.418  0.00  0.00    +0.114 A 
ATOM     30  O   UNL     1       3.144  -6.104   1.602  0.00  0.00    -0.464 OA
ATOM     31  C   UNL     1       4.979  -4.374   1.373  0.00  0.00    +0.087 C 
ENDBRANCH  21  28
ENDBRANCH  17  23
ENDBRANCH   1  18
TORSDOF 5
