REMARK  Name = ZINC09335516
REMARK  7 active torsions:
REMARK  status: ('A' for Active; 'I' for Inactive)
REMARK    1  A    between atoms: C_4  and  N_9
REMARK    2  A    between atoms: C_5  and  C_7
REMARK    3  A    between atoms: N_9  and  S_10
REMARK    4  A    between atoms: S_10  and  C_13
REMARK    5  A    between atoms: C_17  and  N_19
REMARK    6  A    between atoms: N_19  and  S_20
REMARK    7  A    between atoms: S_20  and  C_23
REMARK                            x       y       z     vdW  Elec       q    Type
REMARK                         _______ _______ _______ _____ _____    ______ ____
ROOT
ATOM      1  C   UNL     1       2.764   4.308  -1.308  0.00  0.00    +0.110 A 
ATOM      2  C   UNL     1       3.967   3.929  -0.741  0.00  0.00    +0.029 A 
ATOM      3  C   UNL     1       4.060   2.744  -0.037  0.00  0.00    +0.004 A 
ATOM      4  C   UNL     1       2.949   1.935   0.108  0.00  0.00    +0.024 A 
ATOM      5  C   UNL     1       1.740   2.311  -0.464  0.00  0.00    +0.050 A 
ATOM      6  C   UNL     1       1.651   3.503  -1.171  0.00  0.00    +0.053 A 
ENDROOT
BRANCH   1   7
ATOM      7  S   UNL     1       2.651   5.820  -2.205  0.00  0.00    +0.072 S 
ATOM      8  O   UNL     1       3.965   6.126  -2.653  0.00  0.00    -0.150 OA
ATOM      9  O   UNL     1       1.555   5.682  -3.099  0.00  0.00    -0.150 OA
BRANCH   7  10
ATOM     10  N   UNL     1       2.232   7.002  -1.123  0.00  0.00    -0.215 N 
ATOM     11  H   UNL     1       1.410   7.501  -1.244  0.00  0.00    +0.174 HD
BRANCH  10  15
ATOM     12  C   UNL     1       4.715   7.828   2.119  0.00  0.00    +0.001 A 
ATOM     13  C   UNL     1       5.255   7.408   0.914  0.00  0.00    +0.002 A 
ATOM     14  C   UNL     1       4.436   7.128  -0.160  0.00  0.00    +0.025 A 
ATOM     15  C   UNL     1       3.059   7.278  -0.042  0.00  0.00    +0.062 A 
ATOM     16  C   UNL     1       2.509   7.703   1.177  0.00  0.00    +0.085 A 
ATOM     17  C   UNL     1       3.353   7.977   2.257  0.00  0.00    +0.017 A 
BRANCH  16  18
ATOM     18  C   UNL     1       1.051   7.860   1.318  0.00  0.00    +0.388 C 
ATOM     19  O   UNL     1       0.321   7.620   0.376  0.00  0.00    -0.241 OA
ATOM     20  O   UNL     1       0.527   8.268   2.490  0.00  0.00    -0.241 OA
ENDBRANCH  16  18
ENDBRANCH  10  15
ENDBRANCH   7  10
ENDBRANCH   1   7
BRANCH   5  21
ATOM     21  N   UNL     1       0.616   1.494  -0.323  0.00  0.00    -0.216 N 
ATOM     22  H   UNL     1      -0.240   1.883  -0.086  0.00  0.00    +0.174 HD
BRANCH  21  23
ATOM     23  S   UNL     1       0.743  -0.139  -0.568  0.00  0.00    +0.072 S 
ATOM     24  O   UNL     1       1.840  -0.584   0.219  0.00  0.00    -0.150 OA
ATOM     25  O   UNL     1      -0.565  -0.675  -0.424  0.00  0.00    -0.150 OA
BRANCH  23  26
ATOM     26  C   UNL     1       1.202  -0.379  -2.252  0.00  0.00    +0.109 A 
ATOM     27  C   UNL     1       0.231  -0.413  -3.235  0.00  0.00    +0.031 A 
ATOM     28  C   UNL     1       0.590  -0.596  -4.557  0.00  0.00    +0.040 A 
ATOM     29  C   UNL     1       1.923  -0.756  -4.896  0.00  0.00    +0.124 A 
ATOM     30  C   UNL     1       2.895  -0.728  -3.910  0.00  0.00    +0.040 A 
ATOM     31  C   UNL     1       2.534  -0.539  -2.589  0.00  0.00    +0.031 A 
ATOM     32  F   UNL     1       2.275  -0.940  -6.187  0.00  0.00    -0.205 F 
ENDBRANCH  23  26
ENDBRANCH  21  23
ENDBRANCH   5  21
TORSDOF 7
