REMARK  Name = ZINC33599952
REMARK  4 active torsions:
REMARK  status: ('A' for Active; 'I' for Inactive)
REMARK    1  A    between atoms: C_1  and  C_2
REMARK    2  A    between atoms: C_12  and  C_27
REMARK    3  A    between atoms: C_14  and  C_15
REMARK    4  A    between atoms: C_15  and  C_16
REMARK                            x       y       z     vdW  Elec       q    Type
REMARK                         _______ _______ _______ _____ _____    ______ ____
ROOT
ATOM      1  C   UNL     1      -6.265  12.230   1.032  0.00  0.00    +0.044 C 
ATOM      2  C   UNL     1      -5.711  10.834   0.900  0.00  0.00    -0.049 A 
ATOM      3  C   UNL     1      -6.566   9.742   0.854  0.00  0.00    +0.005 A 
ATOM      4  C   UNL     1      -6.089   8.464   0.733  0.00  0.00    +0.029 A 
ATOM      5  C   UNL     1      -4.698   8.216   0.651  0.00  0.00    +0.080 A 
ATOM      6  C   UNL     1      -3.858   9.352   0.701  0.00  0.00    +0.041 A 
ATOM      7  C   UNL     1      -4.346  10.629   0.822  0.00  0.00    +0.020 A 
ATOM      8  S   UNL     1      -2.239   8.630   0.580  0.00  0.00    -0.052 S 
ATOM      9  C   UNL     1      -2.762   6.925   0.463  0.00  0.00    +0.169 A 
ATOM     10  N   UNL     1      -4.069   7.028   0.530  0.00  0.00    -0.224 NA
ATOM     11  N   UNL     1      -1.986   5.786   0.340  0.00  0.00    -0.232 N 
ATOM     12  C   UNL     1      -2.496   4.414   0.256  0.00  0.00    +0.152 C 
ATOM     13  C   UNL     1      -1.291   3.511   0.131  0.00  0.00    +0.077 C 
ATOM     14  C   UNL     1      -0.166   4.356   0.152  0.00  0.00    +0.250 C 
ATOM     15  O   UNL     1       0.996   4.002   0.075  0.00  0.00    -0.282 OA
ATOM     16  C   UNL     1      -0.644   5.759   0.283  0.00  0.00    +0.293 C 
ATOM     17  O   UNL     1       0.074   6.737   0.329  0.00  0.00    -0.266 OA
ENDROOT
BRANCH  12  18
ATOM     18  C   UNL     1      -3.380   4.266  -0.955  0.00  0.00    -0.022 A 
ATOM     19  C   UNL     1      -3.064   4.927  -2.127  0.00  0.00    +0.007 A 
ATOM     20  C   UNL     1      -3.872   4.788  -3.240  0.00  0.00    +0.015 A 
ATOM     21  C   UNL     1      -5.003   3.994  -3.177  0.00  0.00    +0.018 A 
ATOM     22  C   UNL     1      -5.322   3.336  -2.003  0.00  0.00    +0.015 A 
ATOM     23  C   UNL     1      -4.510   3.472  -0.892  0.00  0.00    +0.007 A 
ATOM     24 BR   UNL     1      -6.112   3.807  -4.697  0.00  0.00    -0.050 Br
ENDBRANCH  12  18
BRANCH  13  25
ATOM     25  C   UNL     1      -1.293   2.139   0.020  0.00  0.00    +0.195 C 
ATOM     26  O   UNL     1      -2.446   1.451   0.168  0.00  0.00    -0.287 OA
BRANCH  25  27
ATOM     27  C   UNL     1      -0.035   1.419  -0.262  0.00  0.00    +0.025 A 
ATOM     28  C   UNL     1       0.798   1.810  -1.318  0.00  0.00    +0.031 A 
ATOM     29  C   UNL     1       1.962   1.105  -1.547  0.00  0.00    +0.111 A 
ATOM     30  N   UNL     1       2.292   0.077  -0.790  0.00  0.00    -0.263 NA
ATOM     31  C   UNL     1       1.538  -0.325   0.214  0.00  0.00    +0.111 A 
ATOM     32  C   UNL     1       0.356   0.321   0.516  0.00  0.00    +0.031 A 
ENDBRANCH  25  27
ENDBRANCH  13  25
TORSDOF 3
