REMARK  Name = ZINC49035037
REMARK  10 active torsions:
REMARK  status: ('A' for Active; 'I' for Inactive)
REMARK    1  A    between atoms: C_1  and  C_2
REMARK    2  A    between atoms: C_2  and  O_3
REMARK    3  A    between atoms: O_3  and  C_4
REMARK    4  A    between atoms: C_4  and  C_6
REMARK    5  A    between atoms: N_8  and  C_32
REMARK    6  A    between atoms: C_11  and  N_17
REMARK    7  A    between atoms: C_12  and  N_16
REMARK    8  A    between atoms: N_24  and  O_25
REMARK    9  A    between atoms: O_25  and  C_26
REMARK   10  A    between atoms: C_27  and  C_31
REMARK                            x       y       z     vdW  Elec       q    Type
REMARK                         _______ _______ _______ _____ _____    ______ ____
ROOT
ATOM      1  C   UNL     1       2.587  -1.266  -2.575  0.00  0.00    +0.055 C 
ATOM      2  C   UNL     1       2.547  -2.609  -2.579  0.00  0.00    +0.086 C 
ATOM      3  N   UNL     1       3.003  -3.327  -3.645  0.00  0.00    -0.303 N 
ATOM      4  C   UNL     1       3.850  -2.725  -4.582  0.00  0.00    +0.039 A 
ATOM      5  C   UNL     1       4.603  -3.517  -5.441  0.00  0.00    +0.048 A 
ATOM      6  C   UNL     1       5.446  -2.925  -6.368  0.00  0.00    +0.053 A 
ATOM      7  C   UNL     1       5.535  -1.534  -6.434  0.00  0.00    +0.046 A 
ATOM      8  C   UNL     1       4.781  -0.750  -5.576  0.00  0.00    +0.030 A 
ATOM      9  C   UNL     1       3.937  -1.342  -4.652  0.00  0.00    -0.020 A 
ATOM     10  C   UNL     1       3.113  -0.475  -3.736  0.00  0.00    +0.080 C 
ENDROOT
BRANCH   6  11
ATOM     11  N   UNL     1       6.206  -3.720  -7.234  0.00  0.00    -0.324 N 
ATOM     12  C   UNL     1       7.556  -4.182  -6.870  0.00  0.00    +0.110 C 
ATOM     13  C   UNL     1       7.504  -5.705  -6.794  0.00  0.00    +0.061 C 
ATOM     14  C   UNL     1       6.817  -6.293  -8.001  0.00  0.00    -0.007 C 
ATOM     15  C   UNL     1       5.990  -5.596  -8.793  0.00  0.00    +0.004 C 
ATOM     16  C   UNL     1       5.692  -4.134  -8.540  0.00  0.00    +0.143 C 
ATOM     17  C   UNL     1       5.338  -6.156  -9.915  0.00  0.00    +0.089 C 
ATOM     18  N   UNL     1       4.556  -5.363 -10.586  0.00  0.00    -0.089 NA
ATOM     19  C   UNL     1       5.449  -7.554 -10.414  0.00  0.00    +0.048 C 
ATOM     20  C   UNL     1       6.854  -8.106 -10.145  0.00  0.00    +0.083 C 
ATOM     21  S   UNL     1       7.144  -7.999  -8.354  0.00  0.00    -0.128 S 
ATOM     22  C   UNL     1       5.180  -7.579 -11.920  0.00  0.00    +0.015 C 
BRANCH  18  23
ATOM     23  O   UNL     1       4.632  -3.962 -10.391  0.00  0.00    -0.397 OA
ATOM     24  C   UNL     1       3.716  -3.213 -11.193  0.00  0.00    +0.313 C 
ENDBRANCH  18  23
ENDBRANCH   6  11
BRANCH   7  25
ATOM     25  N   UNL     1       6.389  -0.930  -7.368  0.00  0.00    -0.357 N 
ATOM     26  H   UNL     1       6.917  -1.479  -7.968  0.00  0.00    +0.142 HD
ATOM     27  H   UNL     1       6.451   0.037  -7.414  0.00  0.00    +0.142 HD
ENDBRANCH   7  25
BRANCH   3  28
ATOM     28  C   UNL     1       2.606  -4.728  -3.809  0.00  0.00    +0.079 C 
ATOM     29  C   UNL     1       1.525  -5.270  -2.872  0.00  0.00    +0.024 C 
ATOM     30  C   UNL     1       2.981  -5.703  -2.692  0.00  0.00    +0.024 C 
ENDBRANCH   3  28
BRANCH   1  31
ATOM     31  C   UNL     1       2.111  -0.574  -1.440  0.00  0.00    +0.337 C 
ATOM     32  O   UNL     1       1.680  -1.194  -0.486  0.00  0.00    -0.245 OA
BRANCH  31  33
ATOM     33  O   UNL     1       2.135   0.776  -1.414  0.00  0.00    -0.462 OA
BRANCH  33  35
ATOM     34  C   UNL     1       1.745   2.929  -0.387  0.00  0.00    +0.048 C 
ATOM     35  C   UNL     1       1.638   1.410  -0.234  0.00  0.00    +0.229 C 
ENDBRANCH  33  35
ENDBRANCH  31  33
ENDBRANCH   1  31
TORSDOF 7
