REMARK  Name = ZINC51090836
REMARK  3 active torsions:
REMARK  status: ('A' for Active; 'I' for Inactive)
REMARK    1  A    between atoms: C_2  and  C_10
REMARK    2  A    between atoms: C_6  and  N_7
REMARK    3  A    between atoms: N_7  and  N_8
REMARK                            x       y       z     vdW  Elec       q    Type
REMARK                         _______ _______ _______ _____ _____    ______ ____
ROOT
ATOM      1  C   UNL     1      -1.093   3.976   0.860  0.00  0.00    +0.057 A 
ATOM      2  C   UNL     1      -0.045   4.325   0.006  0.00  0.00    +0.043 A 
ATOM      3  C   UNL     1      -0.224   5.415  -0.851  0.00  0.00    +0.053 A 
ATOM      4  C   UNL     1      -1.422   6.104  -0.824  0.00  0.00    +0.132 A 
ATOM      5  N   UNL     1      -2.392   5.746  -0.004  0.00  0.00    -0.220 NA
ATOM      6  C   UNL     1      -2.266   4.721   0.825  0.00  0.00    +0.134 A 
ATOM      7 CL   UNL     1      -1.654   7.459  -1.884  0.00  0.00    -0.062 Cl
ENDROOT
BRANCH   2   8
ATOM      8  C   UNL     1       1.224   3.560   0.009  0.00  0.00    +0.247 C 
ATOM      9  O   UNL     1       1.204   2.349   0.110  0.00  0.00    -0.270 OA
ATOM     10  N   UNL     1       2.401   4.207  -0.101  0.00  0.00    -0.297 N 
ATOM     11  C   UNL     1       3.659   3.459  -0.234  0.00  0.00    +0.108 C 
ATOM     12  C   UNL     1       4.631   3.933   0.851  0.00  0.00    +0.023 C 
ATOM     13  C   UNL     1       4.795   5.453   0.756  0.00  0.00    -0.005 C 
ATOM     14  C   UNL     1       5.783   5.921   1.828  0.00  0.00    +0.004 C 
ATOM     15  C   UNL     1       5.254   5.531   3.210  0.00  0.00    +0.000 C 
ATOM     16  C   UNL     1       3.896   6.195   3.444  0.00  0.00    +0.000 C 
ATOM     17  C   UNL     1       2.909   5.735   2.369  0.00  0.00    +0.005 C 
ATOM     18  C   UNL     1       3.440   6.128   0.982  0.00  0.00    +0.010 C 
ATOM     19  C   UNL     1       2.452   5.676  -0.095  0.00  0.00    +0.112 C 
ENDBRANCH   2   8
BRANCH   6  20
ATOM     20  N   UNL     1      -3.319   4.386   1.668  0.00  0.00    -0.267 N 
ATOM     21  H   UNL     1      -3.233   3.635   2.277  0.00  0.00    +0.167 HD
BRANCH  20  22
ATOM     22  N   UNL     1      -4.475   5.113   1.640  0.00  0.00    -0.255 NA
ATOM     23  H   UNL     1      -5.145   4.753   2.304  0.00  0.00    +0.140 HD
ATOM     24  H   UNL     1      -4.291   6.091   1.805  0.00  0.00    +0.140 HD
ENDBRANCH  20  22
ENDBRANCH   6  20
TORSDOF 3
