REMARK  Name = ZINC39404340
REMARK  10 active torsions:
REMARK  status: ('A' for Active; 'I' for Inactive)
REMARK    1  A    between atoms: C_1  and  C_2
REMARK    2  A    between atoms: C_2  and  O_3
REMARK    3  A    between atoms: O_3  and  C_4
REMARK    4  A    between atoms: C_4  and  C_6
REMARK    5  A    between atoms: C_8  and  N_17
REMARK    6  A    between atoms: C_18  and  C_20
REMARK    7  A    between atoms: C_20  and  S_21
REMARK    8  A    between atoms: S_21  and  C_22
REMARK    9  A    between atoms: N_28  and  N_29
REMARK   10  A    between atoms: C_30  and  C_31
REMARK                            x       y       z     vdW  Elec       q    Type
REMARK                         _______ _______ _______ _____ _____    ______ ____
ROOT
ATOM      1  C   UNL     1      -7.430  -2.102   1.681  0.00  0.00    +0.168 C 
ENDROOT
BRANCH   1   3
ATOM      2  N   UNL     1      -5.060  -1.792   1.044  0.00  0.00    -0.301 N 
ATOM      3  C   UNL     1      -5.953  -2.269   1.933  0.00  0.00    +0.224 C 
ATOM      4  O   UNL     1      -5.569  -2.832   2.936  0.00  0.00    -0.275 OA
ATOM      5  H   UNL     1      -5.367  -1.341   0.242  0.00  0.00    +0.150 HD
BRANCH   2   7
ATOM      6  C   UNL     1      -2.881  -2.427   0.017  0.00  0.00    +0.155 C 
ATOM      7  C   UNL     1      -3.624  -1.955   1.289  0.00  0.00    +0.153 C 
ATOM      8  S   UNL     1      -3.281  -3.407   2.369  0.00  0.00    -0.106 S 
ATOM      9  C   UNL     1      -2.940  -4.600   1.095  0.00  0.00    -0.013 C 
ATOM     10  C   UNL     1      -2.771  -3.930  -0.035  0.00  0.00    -0.044 C 
ATOM     11  C   UNL     1      -2.477  -4.661  -1.343  0.00  0.00    +0.032 C 
ATOM     12  C   UNL     1      -1.962  -6.065  -1.028  0.00  0.00    +0.005 C 
ATOM     13  C   UNL     1      -2.940  -6.767  -0.080  0.00  0.00    +0.005 C 
ATOM     14  C   UNL     1      -2.862  -6.089   1.285  0.00  0.00    +0.042 C 
BRANCH   6  15
ATOM     15  C   UNL     1      -1.496  -1.832   0.006  0.00  0.00    +0.317 C 
ATOM     16  O   UNL     1      -0.528  -2.555  -0.007  0.00  0.00    -0.250 OA
BRANCH  15  17
ATOM     17  O   UNL     1      -1.339  -0.499   0.012  0.00  0.00    -0.464 OA
BRANCH  17  19
ATOM     18  C   UNL     1      -0.019   1.526   0.010  0.00  0.00    +0.048 C 
ATOM     19  C   UNL     1       0.002  -0.004   0.002  0.00  0.00    +0.229 C 
ENDBRANCH  17  19
ENDBRANCH  15  17
ENDBRANCH   6  15
ENDBRANCH   2   7
ENDBRANCH   1   3
BRANCH   1  20
ATOM     20  S   UNL     1      -8.364  -2.843   3.048  0.00  0.00    -0.104 S 
BRANCH  20  21
ATOM     21  C   UNL     1     -10.098  -2.561   2.598  0.00  0.00    +0.274 C 
ATOM     22  N   UNL     1     -10.399  -3.168   1.288  0.00  0.00    -0.281 N 
ATOM     23  C   UNL     1     -10.772  -2.094   0.496  0.00  0.00    +0.231 C 
ATOM     24  N   UNL     1     -10.713  -0.953   1.224  0.00  0.00    -0.116 NA
ATOM     25  N   UNL     1     -10.351  -1.127   2.393  0.00  0.00    -0.150 NA
ATOM     26  N   UNL     1     -11.129  -2.170  -0.769  0.00  0.00    -0.247 N 
ATOM     27  H   UNL     1     -10.346  -4.104   1.038  0.00  0.00    +0.152 HD
ATOM     28  H   UNL     1     -11.377  -1.366  -1.252  0.00  0.00    +0.192 HD
BRANCH  26  29
ATOM     29  N   UNL     1     -11.149  -3.313  -1.365  0.00  0.00    -0.179 NA
ATOM     30  C   UNL     1     -11.504  -3.389  -2.623  0.00  0.00    +0.140 C 
BRANCH  30  31
ATOM     31  C   UNL     1     -11.527  -4.691  -3.303  0.00  0.00    -0.005 A 
ATOM     32  C   UNL     1     -11.176  -5.854  -2.607  0.00  0.00    +0.011 A 
ATOM     33  C   UNL     1     -11.200  -7.072  -3.252  0.00  0.00    +0.020 A 
ATOM     34  C   UNL     1     -11.571  -7.147  -4.585  0.00  0.00    +0.041 A 
ATOM     35  C   UNL     1     -11.920  -6.001  -5.280  0.00  0.00    +0.020 A 
ATOM     36  C   UNL     1     -11.906  -4.776  -4.648  0.00  0.00    +0.011 A 
ATOM     37 CL   UNL     1     -11.598  -8.686  -5.388  0.00  0.00    -0.084 Cl
ENDBRANCH  30  31
ENDBRANCH  26  29
ENDBRANCH  20  21
ENDBRANCH   1  20
TORSDOF 9
