REMARK  Name = ZINC45292978
REMARK  10 active torsions:
REMARK  status: ('A' for Active; 'I' for Inactive)
REMARK    1  A    between atoms: C_1  and  C_2
REMARK    2  A    between atoms: C_4  and  C_33
REMARK    3  A    between atoms: C_6  and  S_8
REMARK    4  A    between atoms: S_8  and  C_9
REMARK    5  A    between atoms: C_9  and  C_10
REMARK    6  A    between atoms: N_12  and  C_13
REMARK    7  A    between atoms: C_17  and  S_19
REMARK    8  A    between atoms: S_19  and  N_22
REMARK    9  A    between atoms: N_22  and  C_23
REMARK   10  A    between atoms: C_27  and  C_29
REMARK                            x       y       z     vdW  Elec       q    Type
REMARK                         _______ _______ _______ _____ _____    ______ ____
ROOT
ATOM      1  C   UNL     1       0.154  -1.961   7.640  0.00  0.00    +0.035 A 
ATOM      2  C   UNL     1       0.275  -3.342   7.735  0.00  0.00    +0.023 A 
ATOM      3  C   UNL     1       0.378  -3.941   8.975  0.00  0.00    +0.004 A 
ATOM      4  C   UNL     1       0.360  -3.168  10.122  0.00  0.00    +0.029 A 
ATOM      5  C   UNL     1       0.240  -1.794  10.031  0.00  0.00    +0.112 A 
ATOM      6  C   UNL     1       0.143  -1.188   8.793  0.00  0.00    +0.052 A 
ENDROOT
BRANCH   1   9
ATOM      7  C   UNL     1       0.618  -0.148   6.172  0.00  0.00    +0.227 C 
ATOM      8  O   UNL     1       1.147   0.445   7.089  0.00  0.00    -0.275 OA
ATOM      9  N   UNL     1       0.050  -1.351   6.386  0.00  0.00    -0.285 N 
ATOM     10  H   UNL     1      -0.431  -1.794   5.669  0.00  0.00    +0.155 HD
BRANCH   7  11
ATOM     11  C   UNL     1       0.596   0.463   4.794  0.00  0.00    +0.173 C 
BRANCH  11  12
ATOM     12  S   UNL     1       1.433   2.071   4.832  0.00  0.00    -0.077 S 
BRANCH  12  18
ATOM     13  C   UNL     1      -0.076   1.438  -0.017  0.00  0.00    +0.066 C 
ATOM     14  C   UNL     1       0.617   2.299   1.008  0.00  0.00    +0.043 A 
ATOM     15  C   UNL     1       1.159   3.522   0.645  0.00  0.00    +0.046 A 
ATOM     16  C   UNL     1       1.788   4.283   1.619  0.00  0.00    +0.043 A 
ATOM     17  N   UNL     1       1.853   3.822   2.856  0.00  0.00    -0.227 NA
ATOM     18  C   UNL     1       1.324   2.647   3.170  0.00  0.00    +0.189 A 
ATOM     19  N   UNL     1       0.711   1.898   2.264  0.00  0.00    -0.227 NA
ATOM     20  C   UNL     1       2.392   5.619   1.270  0.00  0.00    +0.066 C 
ENDBRANCH  12  18
ENDBRANCH  11  12
ENDBRANCH   7  11
ENDBRANCH   1   9
BRANCH   5  21
ATOM     21  S   UNL     1       0.218  -0.814  11.495  0.00  0.00    +0.092 S 
ATOM     22  O   UNL     1      -0.452   0.395  11.164  0.00  0.00    -0.148 OA
ATOM     23  O   UNL     1      -0.220  -1.664  12.546  0.00  0.00    -0.148 OA
BRANCH  21  24
ATOM     24  N   UNL     1       1.786  -0.408  11.836  0.00  0.00    -0.098 NA
BRANCH  24  25
ATOM     25  C   UNL     1       2.077   0.376  12.955  0.00  0.00    +0.075 A 
ATOM     26  C   UNL     1       1.052   0.811  13.786  0.00  0.00    +0.027 A 
ATOM     27  C   UNL     1       1.343   1.585  14.892  0.00  0.00    +0.002 A 
ATOM     28  C   UNL     1       2.654   1.928  15.172  0.00  0.00    +0.012 A 
ATOM     29  C   UNL     1       3.676   1.497  14.347  0.00  0.00    +0.057 A 
ATOM     30  C   UNL     1       3.393   0.717  13.243  0.00  0.00    +0.039 A 
BRANCH  29  31
ATOM     31  C   UNL     1       5.102   1.874  14.656  0.00  0.00    +0.417 C 
ATOM     32  F   UNL     1       5.137   2.655  15.816  0.00  0.00    -0.166 F 
ATOM     33  F   UNL     1       5.859   0.714  14.852  0.00  0.00    -0.166 F 
ATOM     34  F   UNL     1       5.634   2.603  13.587  0.00  0.00    -0.166 F 
ENDBRANCH  29  31
ENDBRANCH  24  25
ENDBRANCH  21  24
ENDBRANCH   5  21
TORSDOF 8
