REMARK  Name = ZINC01797646
REMARK  8 active torsions:
REMARK  status: ('A' for Active; 'I' for Inactive)
REMARK    1  A    between atoms: C_1  and  C_2
REMARK    2  A    between atoms: C_5  and  C_8
REMARK    3  A    between atoms: N_12  and  C_16
REMARK    4  A    between atoms: C_16  and  C_17
REMARK    5  A    between atoms: C_17  and  C_18
REMARK    6  A    between atoms: C_18  and  C_19
REMARK    7  A    between atoms: N_21  and  C_22
REMARK    8  A    between atoms: C_24  and  N_28
REMARK                            x       y       z     vdW  Elec       q    Type
REMARK                         _______ _______ _______ _____ _____    ______ ____
ROOT
ATOM      1  C   UNL     1      -3.857   8.125   0.417  0.00  0.00    +0.115 C 
ENDROOT
BRANCH   1   6
ATOM      2  C   UNL     1      -3.959  12.411   2.914  0.00  0.00    +0.028 C 
ATOM      3  C   UNL     1      -4.040  11.589   1.839  0.00  0.00    +0.077 C 
ATOM      4  C   UNL     1      -3.880  10.121   1.760  0.00  0.00    +0.258 C 
ATOM      5  O   UNL     1      -3.637   9.450   2.746  0.00  0.00    -0.269 OA
ATOM      6  N   UNL     1      -4.009   9.575   0.563  0.00  0.00    -0.255 N 
ATOM      7  C   UNL     1      -4.284  10.321  -0.526  0.00  0.00    +0.121 C 
ATOM      8  S   UNL     1      -4.493   9.803  -2.144  0.00  0.00    -0.027 S 
ATOM      9  S   UNL     1      -4.376  11.980   0.127  0.00  0.00    -0.061 S 
BRANCH   2  14
ATOM     10  C   UNL     1      -3.535  10.198   8.201  0.00  0.00    +0.044 C 
ATOM     11  C   UNL     1      -3.646  10.778   6.815  0.00  0.00    -0.050 A 
ATOM     12  C   UNL     1      -2.880  11.877   6.465  0.00  0.00    +0.004 A 
ATOM     13  C   UNL     1      -2.976  12.414   5.199  0.00  0.00    +0.008 A 
ATOM     14  C   UNL     1      -3.850  11.845   4.266  0.00  0.00    -0.024 A 
ATOM     15  C   UNL     1      -4.624  10.737   4.629  0.00  0.00    +0.008 A 
ATOM     16  C   UNL     1      -4.512  10.209   5.898  0.00  0.00    +0.004 A 
ENDBRANCH   2  14
ENDBRANCH   1   6
BRANCH   1  17
ATOM     17  C   UNL     1      -2.392   7.792   0.129  0.00  0.00    +0.029 C 
BRANCH  17  18
ATOM     18  C   UNL     1      -2.233   6.278  -0.023  0.00  0.00    +0.097 C 
BRANCH  18  19
ATOM     19  C   UNL     1      -0.790   5.950  -0.306  0.00  0.00    +0.217 C 
ATOM     20  O   UNL     1       0.031   6.840  -0.380  0.00  0.00    -0.275 OA
ATOM     21  N   UNL     1      -0.412   4.668  -0.479  0.00  0.00    -0.282 N 
ATOM     22  H   UNL     1      -1.078   3.963  -0.488  0.00  0.00    +0.155 HD
BRANCH  21  23
ATOM     23  C   UNL     1       0.944   4.354  -0.644  0.00  0.00    +0.083 A 
ATOM     24  C   UNL     1       1.786   5.235  -1.307  0.00  0.00    +0.060 A 
ATOM     25  C   UNL     1       3.122   4.923  -1.469  0.00  0.00    +0.128 A 
ATOM     26  C   UNL     1       3.624   3.734  -0.973  0.00  0.00    +0.036 A 
ATOM     27  C   UNL     1       2.790   2.851  -0.312  0.00  0.00    +0.055 A 
ATOM     28  C   UNL     1       1.448   3.154  -0.150  0.00  0.00    +0.200 A 
ATOM     29  O   UNL     1       0.626   2.283   0.495  0.00  0.00    -0.286 OA
BRANCH  25  30
ATOM     30  N   UNL     1       4.020   5.865  -2.176  0.00  0.00    +0.056 N 
ATOM     31  O   UNL     1       5.198   5.591  -2.320  0.00  0.00    -0.126 OA
ATOM     32  O   UNL     1       3.580   6.913  -2.614  0.00  0.00    -0.126 OA
ENDBRANCH  25  30
ENDBRANCH  21  23
ENDBRANCH  18  19
ENDBRANCH  17  18
ENDBRANCH   1  17
TORSDOF 7
