REMARK  Name = ZINC13881913
REMARK  16 active torsions:
REMARK  status: ('A' for Active; 'I' for Inactive)
REMARK    1  A    between atoms: C_1  and  O_2
REMARK    2  A    between atoms: O_2  and  C_3
REMARK    3  A    between atoms: C_5  and  C_13
REMARK    4  A    between atoms: C_7  and  O_11
REMARK    5  A    between atoms: C_8  and  O_9
REMARK    6  A    between atoms: O_9  and  C_10
REMARK    7  A    between atoms: O_11  and  C_12
REMARK    8  A    between atoms: C_21  and  N_39
REMARK    9  A    between atoms: C_22  and  C_37
REMARK   10  A    between atoms: C_23  and  C_25
REMARK   11  A    between atoms: C_27  and  O_35
REMARK   12  A    between atoms: C_28  and  O_33
REMARK   13  A    between atoms: C_29  and  O_31
REMARK   14  A    between atoms: O_31  and  C_32
REMARK   15  A    between atoms: O_33  and  C_34
REMARK   16  A    between atoms: O_35  and  C_36
REMARK                            x       y       z     vdW  Elec       q    Type
REMARK                         _______ _______ _______ _____ _____    ______ ____
ROOT
ATOM      1  C   UNL     1       2.430   1.010   0.177  0.00  0.00    +0.015 C 
ATOM      2  C   UNL     1       3.561   1.708  -0.029  0.00  0.00    -0.004 C 
ATOM      3  C   UNL     1       4.902   1.011  -0.097  0.00  0.00    +0.039 C 
ATOM      4  C   UNL     1       5.900   1.885   0.678  0.00  0.00    +0.009 C 
ATOM      5  C   UNL     1       6.006   3.240  -0.015  0.00  0.00    +0.036 C 
ATOM      6  C   UNL     1       4.655   3.885  -0.183  0.00  0.00    -0.014 C 
ATOM      7  C   UNL     1       3.527   3.174  -0.200  0.00  0.00    +0.133 C 
ATOM      8  O   UNL     1       2.315   3.763  -0.369  0.00  0.00    -0.441 OA
ATOM      9  C   UNL     1       2.158   5.070  -0.097  0.00  0.00    +0.199 C 
ATOM     10  C   UNL     1       3.226   5.905  -0.073  0.00  0.00    +0.098 C 
ATOM     11  C   UNL     1       4.609   5.388  -0.342  0.00  0.00    +0.094 C 
ENDROOT
BRANCH   1  14
ATOM     12  C   UNL     1      -0.623   2.830   1.390  0.00  0.00    +0.166 A 
ATOM     13  C   UNL     1       0.601   2.186   1.385  0.00  0.00    +0.057 A 
ATOM     14  C   UNL     1       1.129   1.701   0.185  0.00  0.00    -0.018 A 
ATOM     15  C   UNL     1       0.420   1.874  -1.007  0.00  0.00    +0.057 A 
ATOM     16  C   UNL     1      -0.801   2.523  -0.996  0.00  0.00    +0.166 A 
ATOM     17  C   UNL     1      -1.324   3.004   0.201  0.00  0.00    +0.204 A 
BRANCH  12  19
ATOM     18  C   UNL     1      -0.364   3.088   3.740  0.00  0.00    +0.277 C 
ATOM     19  O   UNL     1      -1.140   3.297   2.558  0.00  0.00    -0.491 OA
ENDBRANCH  12  19
BRANCH  17  20
ATOM     20  O   UNL     1      -2.525   3.642   0.208  0.00  0.00    -0.488 OA
ATOM     21  C   UNL     1      -3.688   2.833   0.402  0.00  0.00    +0.277 C 
ENDBRANCH  17  20
BRANCH  16  22
ATOM     22  O   UNL     1      -1.492   2.691  -2.155  0.00  0.00    -0.491 OA
ATOM     23  C   UNL     1      -0.850   2.268  -3.360  0.00  0.00    +0.277 C 
ENDBRANCH  16  22
ENDBRANCH   1  14
BRANCH  11  24
ATOM     24  C   UNL     1       4.995   5.751  -1.753  0.00  0.00    -0.028 A 
ATOM     25  C   UNL     1       4.252   5.271  -2.815  0.00  0.00    +0.054 A 
ATOM     26  C   UNL     1       4.600   5.607  -4.115  0.00  0.00    +0.165 A 
ATOM     27  C   UNL     1       5.704   6.418  -4.349  0.00  0.00    +0.204 A 
ATOM     28  C   UNL     1       6.452   6.894  -3.278  0.00  0.00    +0.165 A 
ATOM     29  C   UNL     1       6.094   6.557  -1.981  0.00  0.00    +0.054 A 
BRANCH  28  30
ATOM     30  O   UNL     1       7.534   7.687  -3.502  0.00  0.00    -0.491 OA
ATOM     31  C   UNL     1       8.255   8.139  -2.354  0.00  0.00    +0.277 C 
ENDBRANCH  28  30
BRANCH  27  32
ATOM     32  O   UNL     1       6.052   6.746  -5.623  0.00  0.00    -0.488 OA
ATOM     33  C   UNL     1       6.963   5.871  -6.292  0.00  0.00    +0.277 C 
ENDBRANCH  27  32
BRANCH  26  34
ATOM     34  O   UNL     1       3.865   5.140  -5.159  0.00  0.00    -0.491 OA
ATOM     35  C   UNL     1       2.744   4.312  -4.844  0.00  0.00    +0.277 C 
ENDBRANCH  26  34
ENDBRANCH  11  24
BRANCH   9  36
ATOM     36  N   UNL     1       0.903   5.564   0.161  0.00  0.00    -0.328 N 
ATOM     37  H   UNL     1       0.147   4.960   0.219  0.00  0.00    +0.145 HD
ATOM     38  H   UNL     1       0.774   6.517   0.286  0.00  0.00    +0.145 HD
ENDBRANCH   9  36
BRANCH  10  39
ATOM     39  C   UNL     1       3.035   7.294   0.222  0.00  0.00    +0.101 C 
ATOM     40  N   UNL     1       2.884   8.395   0.455  0.00  0.00    -0.191 NA
ENDBRANCH  10  39
TORSDOF 10
