REMARK  Name = ZINC14270862
REMARK  11 active torsions:
REMARK  status: ('A' for Active; 'I' for Inactive)
REMARK    1  A    between atoms: C_1  and  C_2
REMARK    2  A    between atoms: C_4  and  C_33
REMARK    3  A    between atoms: C_6  and  C_8
REMARK    4  A    between atoms: C_12  and  N_17
REMARK    5  A    between atoms: N_17  and  C_18
REMARK    6  A    between atoms: C_18  and  N_20
REMARK    7  A    between atoms: C_21  and  C_23
REMARK    8  A    between atoms: C_26  and  O_31
REMARK    9  A    between atoms: C_27  and  O_29
REMARK   10  A    between atoms: O_29  and  C_30
REMARK   11  A    between atoms: O_31  and  C_32
REMARK                            x       y       z     vdW  Elec       q    Type
REMARK                         _______ _______ _______ _____ _____    ______ ____
ROOT
ATOM      1  N   UNL     1      -8.098  -0.668   0.036  0.00  0.00    -0.297 N 
ATOM      2  H   UNL     1      -8.583  -1.034  -0.720  0.00  0.00    +0.154 HD
ENDROOT
BRANCH   1   7
ATOM      3  C   UNL     1      -2.514   0.976   0.520  0.00  0.00    +0.228 A 
ATOM      4  N   UNL     1      -3.709   1.474   0.715  0.00  0.00    -0.209 NA
ATOM      5  C   UNL     1      -4.632   0.529   0.399  0.00  0.00    +0.112 A 
ATOM      6  C   UNL     1      -6.029   0.505   0.414  0.00  0.00    +0.054 A 
ATOM      7  C   UNL     1      -6.698  -0.640   0.023  0.00  0.00    +0.035 A 
ATOM      8  C   UNL     1      -5.985  -1.766  -0.384  0.00  0.00    +0.027 A 
ATOM      9  C   UNL     1      -4.606  -1.750  -0.401  0.00  0.00    +0.050 A 
ATOM     10  C   UNL     1      -3.921  -0.609  -0.012  0.00  0.00    +0.156 A 
ATOM     11  O   UNL     1      -2.609  -0.290   0.072  0.00  0.00    -0.435 OA
BRANCH   3  17
ATOM     12  C   UNL     1      -0.097   5.109   1.925  0.00  0.00    +0.044 C 
ATOM     13  C   UNL     1      -0.079   3.686   1.427  0.00  0.00    -0.049 A 
ATOM     14  C   UNL     1       1.129   3.057   1.181  0.00  0.00    +0.006 A 
ATOM     15  C   UNL     1       1.155   1.752   0.724  0.00  0.00    -0.049 A 
ATOM     16  C   UNL     1      -0.025   1.069   0.510  0.00  0.00    +0.016 A 
ATOM     17  C   UNL     1      -1.246   1.699   0.752  0.00  0.00    +0.037 A 
ATOM     18  C   UNL     1      -1.265   3.015   1.218  0.00  0.00    +0.016 A 
ATOM     19  C   UNL     1       2.474   1.074   0.458  0.00  0.00    +0.044 C 
ENDBRANCH   3  17
ENDBRANCH   1   7
BRANCH   1  20
ATOM     20  C   UNL     1      -8.772  -0.188   1.100  0.00  0.00    +0.141 C 
ATOM     21  S   UNL     1      -7.922   0.556   2.387  0.00  0.00    -0.018 S 
BRANCH  20  22
ATOM     22  N   UNL     1     -10.115  -0.292   1.150  0.00  0.00    -0.264 N 
ATOM     23  C   UNL     1     -10.789   0.188   2.214  0.00  0.00    +0.250 C 
ATOM     24  O   UNL     1     -10.185   0.716   3.128  0.00  0.00    -0.270 OA
ATOM     25  H   UNL     1     -10.596  -0.714   0.421  0.00  0.00    +0.157 HD
BRANCH  23  26
ATOM     26  C   UNL     1     -12.258   0.074   2.269  0.00  0.00    +0.041 A 
ATOM     27  C   UNL     1     -12.954  -0.528   1.217  0.00  0.00    +0.017 A 
ATOM     28  C   UNL     1     -14.326  -0.639   1.273  0.00  0.00    +0.050 A 
ATOM     29  C   UNL     1     -15.022  -0.144   2.368  0.00  0.00    +0.162 A 
ATOM     30  C   UNL     1     -14.335   0.462   3.418  0.00  0.00    +0.162 A 
ATOM     31  C   UNL     1     -12.959   0.572   3.371  0.00  0.00    +0.062 A 
BRANCH  30  32
ATOM     32  O   UNL     1     -15.019   0.945   4.489  0.00  0.00    -0.491 OA
ATOM     33  C   UNL     1     -14.251   1.554   5.530  0.00  0.00    +0.277 C 
ENDBRANCH  30  32
BRANCH  29  34
ATOM     34  O   UNL     1     -16.375  -0.252   2.416  0.00  0.00    -0.491 OA
ATOM     35  C   UNL     1     -17.015  -0.884   1.305  0.00  0.00    +0.277 C 
ENDBRANCH  29  34
ENDBRANCH  23  26
ENDBRANCH  20  22
ENDBRANCH   1  20
TORSDOF 7
