REMARK  Name = ZINC08898054
REMARK  7 active torsions:
REMARK  status: ('A' for Active; 'I' for Inactive)
REMARK    1  A    between atoms: C_8  and  C_10
REMARK    2  A    between atoms: N_12  and  C_13
REMARK    3  A    between atoms: C_13  and  N_15
REMARK    4  A    between atoms: N_15  and  C_16
REMARK    5  A    between atoms: C_19  and  N_22
REMARK    6  A    between atoms: C_27  and  C_28
REMARK    7  A    between atoms: C_27  and  N_60
REMARK                            x       y       z     vdW  Elec       q    Type
REMARK                         _______ _______ _______ _____ _____    ______ ____
ROOT
ATOM      1  C   UNL     1       8.681   5.224  -0.104  0.00  0.00    +0.033 A 
ATOM      2  C   UNL     1       9.380   4.027  -0.187  0.00  0.00    +0.025 A 
ATOM      3  C   UNL     1      10.759   4.036  -0.255  0.00  0.00    +0.025 A 
ATOM      4  C   UNL     1      11.448   5.242  -0.230  0.00  0.00    +0.030 A 
ATOM      5  C   UNL     1      10.748   6.439  -0.141  0.00  0.00    +0.025 A 
ATOM      6  C   UNL     1       9.369   6.429  -0.078  0.00  0.00    +0.025 A 
ENDROOT
BRANCH   4   7
ATOM      7  N   UNL     1      12.845   5.252  -0.294  0.00  0.00    -0.333 N 
ATOM      8  C   UNL     1      13.315   6.071  -1.419  0.00  0.00    +0.086 C 
ATOM      9  C   UNL     1      14.845   6.121  -1.407  0.00  0.00    -0.059 C 
ATOM     10  C   UNL     1      14.907   3.934  -0.371  0.00  0.00    -0.059 C 
ATOM     11  C   UNL     1      13.378   3.885  -0.383  0.00  0.00    +0.086 C 
ATOM     12  N   UNL     1      15.367   4.742  -1.520  0.00  0.00    +0.384 N 
ATOM     13  H   UNL     1      15.014   4.321  -2.387  0.00  0.00    -0.081 HD
BRANCH  12  14
ATOM     14  C   UNL     1      16.845   4.764  -1.564  0.00  0.00    -0.040 C 
BRANCH  14  15
ATOM     15  C   UNL     1      17.284   5.401  -2.857  0.00  0.00    -0.029 A 
ATOM     16  C   UNL     1      17.673   4.609  -3.921  0.00  0.00    +0.004 A 
ATOM     17  C   UNL     1      18.070   5.193  -5.109  0.00  0.00    +0.000 A 
ATOM     18  C   UNL     1      18.090   6.571  -5.230  0.00  0.00    +0.003 A 
ATOM     19  C   UNL     1      17.708   7.364  -4.166  0.00  0.00    +0.038 A 
ATOM     20  C   UNL     1      17.304   6.780  -2.977  0.00  0.00    +0.125 A 
ATOM     21  F   UNL     1      16.930   7.555  -1.936  0.00  0.00    -0.205 F 
ENDBRANCH  14  15
ENDBRANCH  12  14
ENDBRANCH   4   7
BRANCH   1  22
ATOM     22  N   UNL     1       7.282   5.214  -0.039  0.00  0.00    -0.297 N 
ATOM     23  H   UNL     1       6.827   4.594   0.552  0.00  0.00    +0.154 HD
BRANCH  22  24
ATOM     24  C   UNL     1       6.566   6.067  -0.800  0.00  0.00    +0.141 C 
ATOM     25  S   UNL     1       7.368   7.234  -1.762  0.00  0.00    -0.018 S 
BRANCH  24  28
ATOM     26  C   UNL     1       4.505   6.853  -1.563  0.00  0.00    +0.285 C 
ATOM     27  O   UNL     1       5.074   7.682  -2.247  0.00  0.00    -0.266 OA
ATOM     28  N   UNL     1       5.220   6.000  -0.802  0.00  0.00    -0.261 N 
ATOM     29  H   UNL     1       4.766   5.339  -0.257  0.00  0.00    +0.157 HD
BRANCH  26  37
ATOM     30  C   UNL     1      -1.525   6.946  -1.900  0.00  0.00    +0.001 A 
ATOM     31  C   UNL     1      -1.400   5.893  -1.003  0.00  0.00    +0.004 A 
ATOM     32  C   UNL     1      -0.158   5.468  -0.585  0.00  0.00    +0.047 A 
ATOM     33  C   UNL     1       0.986   6.093  -1.068  0.00  0.00    +0.136 A 
ATOM     34  C   UNL     1       0.854   7.155  -1.982  0.00  0.00    +0.021 A 
ATOM     35  C   UNL     1      -0.415   7.571  -2.393  0.00  0.00    +0.011 A 
ATOM     36  C   UNL     1       2.217   7.585  -2.290  0.00  0.00    +0.063 A 
ATOM     37  C   UNL     1       3.038   6.781  -1.566  0.00  0.00    +0.191 A 
ATOM     38  O   UNL     1       2.302   5.905  -0.849  0.00  0.00    -0.450 OA
ENDBRANCH  26  37
ENDBRANCH  24  28
ENDBRANCH  22  24
ENDBRANCH   1  22
TORSDOF 7
