REMARK  Name = ZINC04177332
REMARK  5 active torsions:
REMARK  status: ('A' for Active; 'I' for Inactive)
REMARK    1  A    between atoms: N_9  and  S_11
REMARK    2  A    between atoms: S_11  and  C_14
REMARK    3  A    between atoms: C_17  and  C_20
REMARK    4  A    between atoms: N_22  and  C_23
REMARK    5  A    between atoms: C_24  and  C_33
REMARK                            x       y       z     vdW  Elec       q    Type
REMARK                         _______ _______ _______ _____ _____    ______ ____
ROOT
ATOM      1  C   UNL     1       9.593  -4.895   3.294  0.00  0.00    +0.106 A 
ATOM      2  C   UNL     1       9.935  -3.982   2.312  0.00  0.00    +0.029 A 
ATOM      3  C   UNL     1       8.970  -3.169   1.755  0.00  0.00    +0.015 A 
ATOM      4  C   UNL     1       7.645  -3.269   2.184  0.00  0.00    +0.037 A 
ATOM      5  C   UNL     1       7.308  -4.189   3.179  0.00  0.00    +0.015 A 
ATOM      6  C   UNL     1       8.282  -4.999   3.724  0.00  0.00    +0.029 A 
ENDROOT
BRANCH   4   7
ATOM      7  C   UNL     1       6.606  -2.402   1.592  0.00  0.00    +0.249 C 
ATOM      8  O   UNL     1       6.903  -1.598   0.729  0.00  0.00    -0.270 OA
ATOM      9  N   UNL     1       5.327  -2.501   2.008  0.00  0.00    -0.275 N 
ATOM     10  H   UNL     1       5.090  -3.142   2.696  0.00  0.00    +0.156 HD
BRANCH   9  11
ATOM     11  C   UNL     1       4.353  -1.687   1.453  0.00  0.00    +0.085 A 
ATOM     12  C   UNL     1       2.999  -1.642   1.746  0.00  0.00    +0.068 A 
ATOM     13  C   UNL     1       2.179  -0.684   1.016  0.00  0.00    -0.023 A 
ATOM     14  C   UNL     1       2.847   0.061   0.110  0.00  0.00    -0.004 A 
ATOM     15  S   UNL     1       4.530  -0.479   0.225  0.00  0.00    -0.077 S 
ATOM     16  C   UNL     1       2.288   1.105  -0.807  0.00  0.00    +0.043 C 
ATOM     17  C   UNL     1       1.406   2.068  -0.000  0.00  0.00    +0.005 C 
ATOM     18  C   UNL     1      -0.019   1.523   0.010  0.00  0.00    +0.001 C 
ATOM     19  C   UNL     1       0.002  -0.004   0.002  0.00  0.00    +0.005 C 
ATOM     20  C   UNL     1       0.683  -0.535   1.259  0.00  0.00    +0.037 C 
BRANCH  12  21
ATOM     21  C   UNL     1       2.412  -2.527   2.756  0.00  0.00    +0.244 C 
ATOM     22  O   UNL     1       1.983  -3.620   2.433  0.00  0.00    -0.270 OA
ATOM     23  N   UNL     1       2.346  -2.132   4.043  0.00  0.00    -0.325 N 
ATOM     24  H   UNL     1       2.688  -1.261   4.301  0.00  0.00    +0.145 HD
ATOM     25  H   UNL     1       1.958  -2.718   4.712  0.00  0.00    +0.145 HD
ENDBRANCH  12  21
ENDBRANCH   9  11
ENDBRANCH   4   7
BRANCH   1  26
ATOM     26  S   UNL     1      10.832  -5.930   4.000  0.00  0.00    +0.061 S 
ATOM     27  O   UNL     1      10.164  -7.076   4.508  0.00  0.00    -0.153 OA
ATOM     28  O   UNL     1      11.879  -6.020   3.043  0.00  0.00    -0.153 OA
BRANCH  26  37
ATOM     29  C   UNL     1      10.473  -1.522   8.634  0.00  0.00    +0.000 A 
ATOM     30  C   UNL     1       9.877  -2.659   9.147  0.00  0.00    +0.000 A 
ATOM     31  C   UNL     1      10.019  -3.862   8.487  0.00  0.00    +0.005 A 
ATOM     32  C   UNL     1      10.754  -3.940   7.312  0.00  0.00    -0.028 A 
ATOM     33  C   UNL     1      11.342  -2.807   6.796  0.00  0.00    -0.042 A 
ATOM     34  C   UNL     1      11.202  -1.597   7.465  0.00  0.00    +0.004 A 
ATOM     35  C   UNL     1      12.140  -2.809   5.519  0.00  0.00    +0.052 C 
ATOM     36  C   UNL     1      12.612  -4.226   5.174  0.00  0.00    +0.114 C 
ATOM     37  N   UNL     1      11.454  -5.126   5.307  0.00  0.00    -0.172 NA
ATOM     38  C   UNL     1      10.877  -5.287   6.646  0.00  0.00    +0.144 C 
ENDBRANCH  26  37
ENDBRANCH   1  26
TORSDOF 5
