REMARK  Name = ZINC38984178
REMARK  8 active torsions:
REMARK  status: ('A' for Active; 'I' for Inactive)
REMARK    1  A    between atoms: C_1  and  C_2
REMARK    2  A    between atoms: C_5  and  C_33
REMARK    3  A    between atoms: C_6  and  S_8
REMARK    4  A    between atoms: S_8  and  N_11
REMARK    5  A    between atoms: C_13  and  N_23
REMARK    6  A    between atoms: N_23  and  C_24
REMARK    7  A    between atoms: C_27  and  C_30
REMARK    8  A    between atoms: C_30  and  O_32
REMARK                            x       y       z     vdW  Elec       q    Type
REMARK                         _______ _______ _______ _____ _____    ______ ____
ROOT
ATOM      1  N   UNL     1      -1.237  -3.946   2.338  0.00  0.00    -0.110 NA
ATOM      2  C   UNL     1      -1.504  -4.474   3.496  0.00  0.00    +0.192 C 
ATOM      3  C   UNL     1      -2.834  -5.148   3.744  0.00  0.00    +0.237 C 
ATOM      4  N   UNL     1      -3.074  -5.726   5.075  0.00  0.00    -0.359 N 
ATOM      5  C   UNL     1      -2.133  -5.632   5.973  0.00  0.00    +0.063 A 
ATOM      6  C   UNL     1      -2.322  -6.194   7.319  0.00  0.00    +0.027 A 
ATOM      7  C   UNL     1      -1.325  -6.077   8.222  0.00  0.00    +0.002 A 
ATOM      8  C   UNL     1      -0.116  -5.434   7.908  0.00  0.00    +0.002 A 
ATOM      9  C   UNL     1       0.131  -4.894   6.695  0.00  0.00    +0.030 A 
ATOM     10  C   UNL     1      -0.847  -4.958   5.669  0.00  0.00    +0.089 A 
ATOM     11  N   UNL     1      -0.599  -4.434   4.487  0.00  0.00    -0.226 NA
ATOM     12  H   UNL     1      -3.913  -6.168   5.281  0.00  0.00    +0.162 HD
ENDROOT
BRANCH   1  13
ATOM     13  S   UNL     1       0.227  -3.217   2.078  0.00  0.00    +0.101 S 
ATOM     14  O   UNL     1       1.208  -4.242   2.143  0.00  0.00    -0.146 OA
ATOM     15  O   UNL     1       0.265  -2.071   2.917  0.00  0.00    -0.146 OA
BRANCH  13  21
ATOM     16  C   UNL     1       0.342   0.678  -1.406  0.00  0.00    +0.044 C 
ATOM     17  C   UNL     1       0.281  -0.803  -1.134  0.00  0.00    -0.049 A 
ATOM     18  C   UNL     1       0.224  -1.697  -2.187  0.00  0.00    +0.004 A 
ATOM     19  C   UNL     1       0.167  -3.055  -1.937  0.00  0.00    +0.005 A 
ATOM     20  C   UNL     1       0.168  -3.520  -0.635  0.00  0.00    -0.024 A 
ATOM     21  C   UNL     1       0.226  -2.625   0.418  0.00  0.00    +0.116 A 
ATOM     22  C   UNL     1       0.287  -1.267   0.168  0.00  0.00    +0.032 A 
ATOM     23  C   UNL     1       0.106  -5.000  -0.362  0.00  0.00    +0.046 C 
ENDBRANCH  13  21
ENDBRANCH   1  13
BRANCH   3  24
ATOM     24  N   UNL     1      -2.983  -6.220   2.758  0.00  0.00    -0.318 N 
ATOM     25  H   UNL     1      -2.235  -6.805   2.560  0.00  0.00    +0.148 HD
BRANCH  24  26
ATOM     26  C   UNL     1      -4.197  -6.401   2.105  0.00  0.00    +0.029 A 
ATOM     27  C   UNL     1      -4.295  -7.317   1.061  0.00  0.00    +0.024 A 
ATOM     28  C   UNL     1      -5.491  -7.498   0.415  0.00  0.00    +0.017 A 
ATOM     29  C   UNL     1      -6.613  -6.760   0.806  0.00  0.00    +0.059 A 
ATOM     30  C   UNL     1      -6.511  -5.840   1.854  0.00  0.00    +0.017 A 
ATOM     31  C   UNL     1      -5.314  -5.668   2.499  0.00  0.00    +0.024 A 
BRANCH  29  32
ATOM     32  C   UNL     1      -7.900  -6.951   0.113  0.00  0.00    +0.337 C 
ATOM     33  O   UNL     1      -7.987  -7.751  -0.798  0.00  0.00    -0.245 OA
BRANCH  32  34
ATOM     34  O   UNL     1      -8.980  -6.240   0.491  0.00  0.00    -0.477 OA
ATOM     35  H   UNL     1      -9.778  -6.434  -0.021  0.00  0.00    +0.295 HD
ENDBRANCH  32  34
ENDBRANCH  29  32
ENDBRANCH  24  26
ENDBRANCH   3  24
TORSDOF 6
