REMARK  Name = ZINC66107044
REMARK  10 active torsions:
REMARK  status: ('A' for Active; 'I' for Inactive)
REMARK    1  A    between atoms: C_3  and  C_26
REMARK    2  A    between atoms: C_5  and  N_7
REMARK    3  A    between atoms: N_7  and  C_8
REMARK    4  A    between atoms: C_8  and  C_9
REMARK    5  A    between atoms: N_11  and  C_12
REMARK    6  A    between atoms: C_16  and  O_18
REMARK    7  A    between atoms: O_18  and  C_19
REMARK    8  A    between atoms: C_19  and  C_20
REMARK    9  A    between atoms: N_28  and  C_29
REMARK   10  A    between atoms: C_33  and  C_35
REMARK                            x       y       z     vdW  Elec       q    Type
REMARK                         _______ _______ _______ _____ _____    ______ ____
ROOT
ATOM      1  C   UNL     1      -0.014   1.557   0.051  0.00  0.00    +0.003 A 
ATOM      2  C   UNL     1       1.164   2.276   0.030  0.00  0.00    +0.013 A 
ATOM      3  C   UNL     1       2.386   1.616   0.169  0.00  0.00    +0.039 A 
ATOM      4  C   UNL     1       2.411   0.230   0.331  0.00  0.00    +0.036 A 
ATOM      5  C   UNL     1       1.222  -0.482   0.352  0.00  0.00    +0.028 A 
ATOM      6  C   UNL     1       0.010   0.185   0.212  0.00  0.00    +0.023 A 
ENDROOT
BRANCH   3   7
ATOM      7  C   UNL     1       3.650   2.383   0.145  0.00  0.00    +0.248 C 
ATOM      8  O   UNL     1       4.713   1.806   0.267  0.00  0.00    -0.270 OA
ATOM      9  N   UNL     1       3.623   3.721  -0.012  0.00  0.00    -0.281 N 
ATOM     10  H   UNL     1       2.774   4.190  -0.035  0.00  0.00    +0.155 HD
BRANCH   9  11
ATOM     11  C   UNL     1       4.819   4.434  -0.142  0.00  0.00    +0.034 A 
ATOM     12  C   UNL     1       4.923   5.719   0.375  0.00  0.00    +0.023 A 
ATOM     13  C   UNL     1       6.106   6.420   0.246  0.00  0.00    +0.002 A 
ATOM     14  C   UNL     1       7.186   5.844  -0.398  0.00  0.00    +0.012 A 
ATOM     15  C   UNL     1       7.086   4.565  -0.914  0.00  0.00    +0.057 A 
ATOM     16  C   UNL     1       5.907   3.856  -0.782  0.00  0.00    +0.035 A 
BRANCH  15  17
ATOM     17  C   UNL     1       8.265   3.942  -1.615  0.00  0.00    +0.417 C 
ATOM     18  F   UNL     1       9.336   4.842  -1.617  0.00  0.00    -0.166 F 
ATOM     19  F   UNL     1       8.641   2.772  -0.945  0.00  0.00    -0.166 F 
ATOM     20  F   UNL     1       7.914   3.632  -2.933  0.00  0.00    -0.166 F 
ENDBRANCH  15  17
ENDBRANCH   9  11
ENDBRANCH   3   7
BRANCH   5  21
ATOM     21  N   UNL     1       1.242  -1.869   0.513  0.00  0.00    -0.335 N 
ATOM     22  H   UNL     1       2.087  -2.334   0.610  0.00  0.00    +0.147 HD
BRANCH  21  23
ATOM     23  C   UNL     1      -0.015  -2.622   0.535  0.00  0.00    +0.198 C 
BRANCH  23  24
ATOM     24  C   UNL     1       0.280  -4.088   0.720  0.00  0.00    +0.234 C 
ATOM     25  O   UNL     1       1.428  -4.467   0.823  0.00  0.00    -0.274 OA
ATOM     26  N   UNL     1      -0.730  -4.978   0.771  0.00  0.00    -0.284 N 
ATOM     27  H   UNL     1      -1.650  -4.669   0.756  0.00  0.00    +0.155 HD
BRANCH  26  28
ATOM     28  C   UNL     1      -0.454  -6.348   0.845  0.00  0.00    +0.037 A 
ATOM     29  C   UNL     1      -1.274  -7.260   0.193  0.00  0.00    +0.023 A 
ATOM     30  C   UNL     1      -1.001  -8.611   0.267  0.00  0.00    +0.005 A 
ATOM     31  C   UNL     1       0.089  -9.061   0.989  0.00  0.00    +0.046 A 
ATOM     32  C   UNL     1       0.911  -8.154   1.643  0.00  0.00    +0.122 A 
ATOM     33  C   UNL     1       0.644  -6.796   1.566  0.00  0.00    +0.069 A 
BRANCH  32  34
ATOM     34  O   UNL     1       1.982  -8.598   2.353  0.00  0.00    -0.489 OA
BRANCH  34  35
ATOM     35  C   UNL     1       2.201 -10.009   2.384  0.00  0.00    +0.260 C 
BRANCH  35  36
ATOM     36  C   UNL     1       3.442 -10.315   3.225  0.00  0.00    +0.156 C 
ATOM     37  C   UNL     1       3.645 -11.846   3.346  0.00  0.00    +0.037 C 
ATOM     38  C   UNL     1       5.173 -11.920   3.616  0.00  0.00    +0.031 C 
ATOM     39  C   UNL     1       5.710 -10.737   2.783  0.00  0.00    +0.160 C 
ATOM     40  O   UNL     1       4.622  -9.829   2.567  0.00  0.00    -0.373 OA
ENDBRANCH  35  36
ENDBRANCH  34  35
ENDBRANCH  32  34
ENDBRANCH  26  28
ENDBRANCH  23  24
ENDBRANCH  21  23
ENDBRANCH   5  21
TORSDOF 10
