REMARK  Name = ZINC40036116
REMARK  8 active torsions:
REMARK  status: ('A' for Active; 'I' for Inactive)
REMARK    1  A    between atoms: C_1  and  C_2
REMARK    2  A    between atoms: C_2  and  C_3
REMARK    3  A    between atoms: C_3  and  C_4
REMARK    4  A    between atoms: C_4  and  C_37
REMARK    5  A    between atoms: N_16  and  C_31
REMARK    6  A    between atoms: N_19  and  N_20
REMARK    7  A    between atoms: C_21  and  C_22
REMARK    8  A    between atoms: C_25  and  N_28
REMARK                            x       y       z     vdW  Elec       q    Type
REMARK                         _______ _______ _______ _____ _____    ______ ____
ROOT
ATOM      1  C   UNL     1       1.140  -1.241  -0.721  0.00  0.00    +0.004 C 
ATOM      2  C   UNL     1       1.470  -1.280  -2.211  0.00  0.00    +0.047 C 
ATOM      3  C   UNL     1       2.950  -1.457  -2.420  0.00  0.00    -0.037 A 
ATOM      4  C   UNL     1       3.586  -0.837  -3.476  0.00  0.00    +0.004 A 
ATOM      5  C   UNL     1       4.946  -1.009  -3.663  0.00  0.00    +0.000 A 
ATOM      6  C   UNL     1       5.678  -1.802  -2.797  0.00  0.00    +0.001 A 
ATOM      7  C   UNL     1       5.053  -2.428  -1.736  0.00  0.00    +0.010 A 
ATOM      8  C   UNL     1       3.686  -2.255  -1.543  0.00  0.00    +0.004 A 
ATOM      9  C   UNL     1       2.990  -2.904  -0.408  0.00  0.00    +0.084 A 
ATOM     10  C   UNL     1       1.753  -2.415  -0.013  0.00  0.00    +0.050 A 
ATOM     11  C   UNL     1       1.092  -3.036   1.055  0.00  0.00    +0.264 A 
ATOM     12  O   UNL     1       0.002  -2.636   1.430  0.00  0.00    -0.267 OA
ATOM     13  N   UNL     1       1.687  -4.086   1.661  0.00  0.00    -0.248 N 
ATOM     14  C   UNL     1       2.908  -4.523   1.237  0.00  0.00    +0.223 A 
ATOM     15  N   UNL     1       3.533  -3.945   0.232  0.00  0.00    -0.214 NA
ATOM     16  N   UNL     1       3.496  -5.587   1.869  0.00  0.00    -0.206 N 
ATOM     17  C   UNL     1      -0.379  -1.281  -0.542  0.00  0.00    +0.017 C 
ATOM     18  H   UNL     1       3.034  -6.037   2.594  0.00  0.00    +0.177 HD
ENDROOT
BRANCH  13  19
ATOM     19  C   UNL     1       1.049  -4.729   2.729  0.00  0.00    +0.053 A 
ATOM     20  C   UNL     1       1.267  -4.297   4.031  0.00  0.00    +0.026 A 
ATOM     21  C   UNL     1       0.636  -4.933   5.083  0.00  0.00    +0.002 A 
ATOM     22  C   UNL     1      -0.212  -5.998   4.840  0.00  0.00    +0.000 A 
ATOM     23  C   UNL     1      -0.430  -6.431   3.545  0.00  0.00    +0.002 A 
ATOM     24  C   UNL     1       0.193  -5.795   2.489  0.00  0.00    +0.026 A 
ENDBRANCH  13  19
BRANCH  16  25
ATOM     25  N   UNL     1       4.766  -6.025   1.470  0.00  0.00    -0.188 NA
ATOM     26  C   UNL     1       5.323  -7.033   2.069  0.00  0.00    +0.138 C 
BRANCH  26  27
ATOM     27  C   UNL     1       6.659  -7.494   1.649  0.00  0.00    -0.005 A 
ATOM     28  C   UNL     1       7.330  -6.845   0.610  0.00  0.00    +0.012 A 
ATOM     29  C   UNL     1       8.580  -7.281   0.222  0.00  0.00    +0.033 A 
ATOM     30  C   UNL     1       9.168  -8.360   0.859  0.00  0.00    +0.126 A 
ATOM     31  C   UNL     1       8.509  -9.007   1.889  0.00  0.00    +0.033 A 
ATOM     32  C   UNL     1       7.261  -8.578   2.291  0.00  0.00    +0.012 A 
BRANCH  30  33
ATOM     33  N   UNL     1      10.509  -8.823   0.437  0.00  0.00    +0.056 N 
ATOM     34  O   UNL     1      11.088  -8.259  -0.463  0.00  0.00    -0.126 OA
ATOM     35  O   UNL     1      11.026  -9.764   0.991  0.00  0.00    -0.126 OA
ENDBRANCH  30  33
ENDBRANCH  26  27
ENDBRANCH  16  25
BRANCH   1  36
ATOM     36  C   UNL     1       1.685   0.054  -0.117  0.00  0.00    +0.011 C 
BRANCH  36  38
ATOM     37  C   UNL     1       1.878   1.406   1.975  0.00  0.00    +0.004 C 
ATOM     38  C   UNL     1       1.332   0.111   1.371  0.00  0.00    -0.003 C 
ENDBRANCH  36  38
ENDBRANCH   1  36
TORSDOF 6
