REMARK  Name = ZINC35351268
REMARK  5 active torsions:
REMARK  status: ('A' for Active; 'I' for Inactive)
REMARK    1  A    between atoms: C_4  and  C_7
REMARK    2  A    between atoms: C_12  and  C_19
REMARK    3  A    between atoms: N_21  and  C_22
REMARK    4  A    between atoms: C_26  and  S_28
REMARK    5  A    between atoms: S_28  and  N_31
REMARK                            x       y       z     vdW  Elec       q    Type
REMARK                         _______ _______ _______ _____ _____    ______ ____
ROOT
ATOM      1  C   UNL     1       7.947  -3.090  -3.887  0.00  0.00    +0.248 C 
ATOM      2  O   UNL     1       7.669  -2.435  -4.872  0.00  0.00    -0.270 OA
ATOM      3  N   UNL     1       9.003  -3.927  -3.910  0.00  0.00    -0.281 N 
ATOM      4  H   UNL     1       9.265  -4.399  -3.104  0.00  0.00    +0.155 HD
ENDROOT
BRANCH   1   9
ATOM      5  C   UNL     1       3.722  -0.693  -0.034  0.00  0.00    +0.211 C 
ATOM      6  C   UNL     1       4.085  -1.052  -1.476  0.00  0.00    +0.085 C 
ATOM      7  C   UNL     1       5.267  -1.986  -1.498  0.00  0.00    -0.029 A 
ATOM      8  C   UNL     1       6.033  -2.101  -2.639  0.00  0.00    +0.017 A 
ATOM      9  C   UNL     1       7.126  -2.969  -2.662  0.00  0.00    +0.037 A 
ATOM     10  C   UNL     1       7.446  -3.722  -1.531  0.00  0.00    +0.014 A 
ATOM     11  C   UNL     1       6.682  -3.608  -0.389  0.00  0.00    +0.016 A 
ATOM     12  C   UNL     1       5.592  -2.740  -0.369  0.00  0.00    +0.062 A 
ATOM     13  C   UNL     1       4.765  -2.600   0.855  0.00  0.00    +0.340 C 
ATOM     14  O   UNL     1       5.104  -3.096   1.910  0.00  0.00    -0.245 OA
ATOM     15  O   UNL     1       3.612  -1.892   0.743  0.00  0.00    -0.453 OA
BRANCH   5  19
ATOM     16  C   UNL     1      -0.008   1.387   0.016  0.00  0.00    +0.000 A 
ATOM     17  C   UNL     1       1.178   2.096  -0.000  0.00  0.00    +0.000 A 
ATOM     18  C   UNL     1       2.385   1.423  -0.017  0.00  0.00    +0.007 A 
ATOM     19  C   UNL     1       2.406   0.041  -0.016  0.00  0.00    -0.007 A 
ATOM     20  C   UNL     1       1.220  -0.668   0.002  0.00  0.00    +0.007 A 
ATOM     21  C   UNL     1       0.013   0.005   0.017  0.00  0.00    +0.000 A 
ENDBRANCH   5  19
ENDBRANCH   1   9
BRANCH   3  22
ATOM     22  C   UNL     1       9.720  -4.115  -5.096  0.00  0.00    +0.036 A 
ATOM     23  C   UNL     1      10.252  -5.362  -5.397  0.00  0.00    +0.023 A 
ATOM     24  C   UNL     1      10.960  -5.545  -6.568  0.00  0.00    +0.004 A 
ATOM     25  C   UNL     1      11.140  -4.487  -7.441  0.00  0.00    +0.029 A 
ATOM     26  C   UNL     1      10.611  -3.244  -7.144  0.00  0.00    +0.114 A 
ATOM     27  C   UNL     1       9.897  -3.057  -5.977  0.00  0.00    +0.052 A 
BRANCH  26  28
ATOM     28  S   UNL     1      10.844  -1.900  -8.260  0.00  0.00    +0.100 S 
ATOM     29  O   UNL     1      10.719  -0.710  -7.493  0.00  0.00    -0.146 OA
ATOM     30  O   UNL     1      12.007  -2.199  -9.019  0.00  0.00    -0.146 OA
BRANCH  28  31
ATOM     31  N   UNL     1       9.570  -1.916  -9.318  0.00  0.00    -0.118 NA
ATOM     32  C   UNL     1       9.494  -1.025 -10.252  0.00  0.00    +0.117 C 
ATOM     33  N   UNL     1      10.405  -0.026 -10.467  0.00  0.00    -0.331 N 
ATOM     34  C   UNL     1      10.269   0.465 -11.848  0.00  0.00    +0.103 C 
ATOM     35  C   UNL     1       8.776   0.258 -12.186  0.00  0.00    +0.026 C 
ATOM     36  C   UNL     1       8.387  -0.929 -11.279  0.00  0.00    +0.074 C 
ATOM     37  H   UNL     1      11.041   0.306  -9.813  0.00  0.00    +0.147 HD
ENDBRANCH  28  31
ENDBRANCH  26  28
ENDBRANCH   3  22
TORSDOF 5
