REMARK  Name = ZINC51993352
REMARK  6 active torsions:
REMARK  status: ('A' for Active; 'I' for Inactive)
REMARK    1  A    between atoms: C_1  and  C_2
REMARK    2  A    between atoms: C_3  and  N_21
REMARK    3  A    between atoms: C_7  and  S_8
REMARK    4  A    between atoms: S_8  and  N_11
REMARK    5  A    between atoms: N_11  and  C_12
REMARK    6  A    between atoms: C_18  and  O_20
REMARK                            x       y       z     vdW  Elec       q    Type
REMARK                         _______ _______ _______ _____ _____    ______ ____
ROOT
ATOM      1  S   UNL     1      -0.239   0.183   3.071  0.00  0.00    +0.059 S 
ATOM      2  O   UNL     1      -1.245   1.131   3.404  0.00  0.00    -0.153 OA
ATOM      3  O   UNL     1       0.049  -0.942   3.890  0.00  0.00    -0.153 OA
ENDROOT
BRANCH   1  10
ATOM      4  C   UNL     1       1.428  -1.841   1.565  0.00  0.00    +0.047 C 
ATOM      5  C   UNL     1       0.177  -1.370   0.867  0.00  0.00    -0.004 A 
ATOM      6  C   UNL     1      -0.148  -1.870  -0.387  0.00  0.00    +0.029 A 
ATOM      7  C   UNL     1      -1.302  -1.434  -1.027  0.00  0.00    +0.023 A 
ATOM      8  C   UNL     1      -2.120  -0.505  -0.414  0.00  0.00    +0.004 A 
ATOM      9  C   UNL     1      -1.793  -0.010   0.835  0.00  0.00    +0.029 A 
ATOM     10  C   UNL     1      -0.648  -0.446   1.477  0.00  0.00    +0.110 A 
BRANCH   6  11
ATOM     11  N   UNL     1       0.682  -2.808  -1.004  0.00  0.00    -0.358 N 
ATOM     12  H   UNL     1       1.487  -3.112  -0.557  0.00  0.00    +0.142 HD
ATOM     13  H   UNL     1       0.453  -3.156  -1.881  0.00  0.00    +0.142 HD
ENDBRANCH   6  11
ENDBRANCH   1  10
BRANCH   1  14
ATOM     14  N   UNL     1       1.176   1.030   2.915  0.00  0.00    -0.184 NA
ATOM     15  H   UNL     1       1.978   0.721   3.365  0.00  0.00    +0.148 HD
BRANCH  14  16
ATOM     16  C   UNL     1       1.216   2.244   2.097  0.00  0.00    +0.105 C 
ATOM     17  C   UNL     1       2.106   2.007   0.875  0.00  0.00    +0.023 C 
ATOM     18  C   UNL     1       2.149   3.276   0.021  0.00  0.00    +0.002 C 
ATOM     19  C   UNL     1       2.716   4.430   0.850  0.00  0.00    +0.003 C 
ATOM     20  C   UNL     1       1.826   4.667   2.071  0.00  0.00    +0.033 C 
ATOM     21  C   UNL     1       1.784   3.398   2.925  0.00  0.00    +0.133 C 
BRANCH  21  22
ATOM     22  O   UNL     1       0.952   3.620   4.066  0.00  0.00    -0.390 OA
ATOM     23  H   UNL     1       1.253   4.339   4.638  0.00  0.00    +0.210 HD
ENDBRANCH  21  22
ENDBRANCH  14  16
ENDBRANCH   1  14
TORSDOF 5
