REMARK  Name = ZINC47378519
REMARK  5 active torsions:
REMARK  status: ('A' for Active; 'I' for Inactive)
REMARK    1  A    between atoms: C_1  and  C_2
REMARK    2  A    between atoms: C_2  and  C_3
REMARK    3  A    between atoms: C_3  and  C_4
REMARK    4  A    between atoms: C_16  and  C_19
REMARK    5  A    between atoms: C_23  and  C_28
REMARK                            x       y       z     vdW  Elec       q    Type
REMARK                         _______ _______ _______ _____ _____    ______ ____
ROOT
ATOM      1  C   UNL     1      -1.419  -2.041   0.005  0.00  0.00    +0.104 A 
ATOM      2  N   UNL     1      -1.403  -2.891   1.011  0.00  0.00    -0.145 NA
ATOM      3  N   UNL     1      -1.386  -4.131   0.768  0.00  0.00    -0.126 NA
ATOM      4  C   UNL     1      -1.384  -4.599  -0.464  0.00  0.00    +0.189 A 
ATOM      5  S   UNL     1      -1.415  -3.179  -1.373  0.00  0.00    -0.035 S 
ATOM      6  N   UNL     1      -1.366  -5.920  -0.901  0.00  0.00    -0.247 N 
ATOM      7  C   UNL     1      -1.349  -6.926  -0.004  0.00  0.00    +0.308 C 
ATOM      8  O   UNL     1      -1.255  -6.681   1.183  0.00  0.00    -0.252 OA
ATOM      9  N   UNL     1      -1.435  -8.204  -0.424  0.00  0.00    -0.285 N 
ATOM     10  C   UNL     1      -1.431  -8.523  -1.858  0.00  0.00    +0.109 C 
ATOM     11  C   UNL     1      -2.659  -9.382  -2.175  0.00  0.00    +0.020 C 
ATOM     12  C   UNL     1      -2.670 -10.608  -1.258  0.00  0.00    +0.016 C 
ATOM     13  C   UNL     1      -2.760 -10.155   0.201  0.00  0.00    +0.093 C 
ATOM     14  C   UNL     1      -1.528  -9.305   0.545  0.00  0.00    +0.122 C 
ATOM     15  H   UNL     1      -1.367  -6.117  -1.851  0.00  0.00    +0.158 HD
ENDROOT
BRANCH  13  16
ATOM     16  C   UNL     1      -2.804 -11.363   1.101  0.00  0.00    +0.223 C 
ATOM     17  O   UNL     1      -2.766 -12.477   0.623  0.00  0.00    -0.275 OA
ATOM     18  N   UNL     1      -2.885 -11.206   2.437  0.00  0.00    -0.270 N 
ATOM     19  C   UNL     1      -2.925 -12.323   3.269  0.00  0.00    +0.128 A 
ATOM     20  C   UNL     1      -3.014 -12.153   4.646  0.00  0.00    -0.010 A 
ATOM     21  C   UNL     1      -3.053 -13.271   5.461  0.00  0.00    +0.008 A 
ATOM     22  C   UNL     1      -3.001 -14.525   4.867  0.00  0.00    +0.020 A 
ATOM     23  C   UNL     1      -2.913 -14.620   3.493  0.00  0.00    +0.113 A 
ATOM     24  N   UNL     1      -2.883 -13.536   2.741  0.00  0.00    -0.240 NA
ATOM     25  C   UNL     1      -3.067 -10.771   5.244  0.00  0.00    +0.047 C 
ATOM     26  H   UNL     1      -2.915 -10.315   2.819  0.00  0.00    +0.156 HD
ENDBRANCH  13  16
BRANCH   1  27
ATOM     27  C   UNL     1      -1.442  -0.534   0.013  0.00  0.00    +0.064 C 
BRANCH  27  29
ATOM     28  C   UNL     1      -0.030   1.528   0.012  0.00  0.00    +0.004 C 
ATOM     29  C   UNL     1      -0.007  -0.002   0.003  0.00  0.00    +0.003 C 
ENDBRANCH  27  29
ENDBRANCH   1  27
TORSDOF 3
