REMARK  Name = ZINC53106302
REMARK  5 active torsions:
REMARK  status: ('A' for Active; 'I' for Inactive)
REMARK    1  A    between atoms: C_1  and  C_2
REMARK    2  A    between atoms: C_7  and  C_9
REMARK    3  A    between atoms: C_7  and  N_11
REMARK    4  A    between atoms: C_9  and  O_10
REMARK    5  A    between atoms: C_12  and  C_14
REMARK                            x       y       z     vdW  Elec       q    Type
REMARK                         _______ _______ _______ _____ _____    ______ ____
ROOT
ATOM      1  N   UNL     1       1.248  -2.797  -0.185  0.00  0.00    -0.307 N 
ATOM      2  C   UNL     1       1.236  -4.118  -0.452  0.00  0.00    +0.218 C 
ATOM      3  O   UNL     1       0.800  -4.898   0.368  0.00  0.00    -0.275 OA
ATOM      4  H   UNL     1       1.526  -2.167  -0.868  0.00  0.00    +0.149 HD
ENDROOT
BRANCH   2   5
ATOM      5  C   UNL     1       1.764  -4.625  -1.769  0.00  0.00    +0.092 C 
ATOM      6  C   UNL     1       1.637  -6.150  -1.816  0.00  0.00    +0.016 C 
ATOM      7  C   UNL     1       2.143  -6.664  -3.167  0.00  0.00    +0.020 C 
ATOM      8  C   UNL     1       3.622  -6.296  -3.327  0.00  0.00    +0.109 C 
ATOM      9  N   UNL     1       3.772  -4.847  -3.138  0.00  0.00    -0.285 N 
ATOM     10  C   UNL     1       3.238  -4.234  -1.914  0.00  0.00    +0.122 C 
ATOM     11  C   UNL     1       4.387  -4.093  -4.070  0.00  0.00    +0.300 C 
ATOM     12  O   UNL     1       4.425  -2.884  -3.947  0.00  0.00    -0.253 OA
ATOM     13  N   UNL     1       4.962  -4.679  -5.139  0.00  0.00    -0.313 N 
ATOM     14  H   UNL     1       4.870  -5.635  -5.276  0.00  0.00    +0.146 HD
ATOM     15  H   UNL     1       5.466  -4.145  -5.772  0.00  0.00    +0.146 HD
ENDBRANCH   2   5
BRANCH   1  21
ATOM     16  C   UNL     1       4.076  -3.208   3.025  0.00  0.00    +0.007 C 
ATOM     17  C   UNL     1       3.189  -2.571   1.953  0.00  0.00    -0.012 C 
ATOM     18  C   UNL     1       3.338  -1.049   2.006  0.00  0.00    +0.003 C 
ATOM     19  C   UNL     1       2.451  -0.412   0.935  0.00  0.00    +0.002 C 
ATOM     20  C   UNL     1       0.990  -0.791   1.190  0.00  0.00    +0.028 C 
ATOM     21  C   UNL     1       0.842  -2.313   1.137  0.00  0.00    +0.058 C 
ATOM     22  C   UNL     1       1.729  -2.950   2.208  0.00  0.00    +0.031 C 
BRANCH  21  23
ATOM     23  C   UNL     1      -0.618  -2.692   1.392  0.00  0.00    +0.181 C 
BRANCH  23  24
ATOM     24  O   UNL     1      -1.437  -2.164   0.346  0.00  0.00    -0.393 OA
ATOM     25  H   UNL     1      -2.378  -2.366   0.443  0.00  0.00    +0.209 HD
ENDBRANCH  23  24
ENDBRANCH  21  23
ENDBRANCH   1  21
TORSDOF 4
