REMARK  Name = ZINC66097164
REMARK  12 active torsions:
REMARK  status: ('A' for Active; 'I' for Inactive)
REMARK    1  A    between atoms: C_1  and  C_2
REMARK    2  A    between atoms: C_2  and  N_3
REMARK    3  A    between atoms: N_3  and  C_4
REMARK    4  A    between atoms: C_10  and  C_12
REMARK    5  A    between atoms: C_15  and  N_18
REMARK    6  A    between atoms: C_19  and  C_21
REMARK    7  A    between atoms: C_21  and  N_22
REMARK    8  A    between atoms: N_22  and  C_23
REMARK    9  A    between atoms: C_27  and  C_29
REMARK   10  A    between atoms: N_31  and  C_32
REMARK   11  A    between atoms: C_32  and  C_34
REMARK   12  A    between atoms: C_32  and  C_35
REMARK                            x       y       z     vdW  Elec       q    Type
REMARK                         _______ _______ _______ _____ _____    ______ ____
ROOT
ATOM      1  N   UNL     1       5.186   0.679  -3.495  0.00  0.00    -0.284 N 
ATOM      2  C   UNL     1       6.483   0.313  -3.524  0.00  0.00    +0.234 C 
ATOM      3  O   UNL     1       6.945  -0.355  -2.624  0.00  0.00    -0.274 OA
ATOM      4  H   UNL     1       4.798   1.148  -4.250  0.00  0.00    +0.155 HD
ENDROOT
BRANCH   1   8
ATOM      5  C   UNL     1       2.845  -0.207  -0.166  0.00  0.00    +0.037 A 
ATOM      6  C   UNL     1       4.199   0.100  -0.008  0.00  0.00    +0.015 A 
ATOM      7  C   UNL     1       4.970   0.392  -1.111  0.00  0.00    +0.024 A 
ATOM      8  C   UNL     1       4.402   0.382  -2.381  0.00  0.00    +0.033 A 
ATOM      9  C   UNL     1       3.054   0.077  -2.541  0.00  0.00    +0.024 A 
ATOM     10  C   UNL     1       2.279  -0.221  -1.444  0.00  0.00    +0.015 A 
BRANCH   5  12
ATOM     11  N   UNL     1       2.319   0.016   2.213  0.00  0.00    -0.268 N 
ATOM     12  C   UNL     1       2.016  -0.521   1.014  0.00  0.00    +0.251 C 
ATOM     13  O   UNL     1       1.059  -1.264   0.904  0.00  0.00    -0.270 OA
BRANCH  11  14
ATOM     14  C   UNL     1       1.595  -0.359   3.349  0.00  0.00    +0.037 A 
ATOM     15  C   UNL     1       1.782   0.318   4.548  0.00  0.00    +0.023 A 
ATOM     16  C   UNL     1       1.065  -0.054   5.668  0.00  0.00    +0.002 A 
ATOM     17  C   UNL     1       0.162  -1.099   5.598  0.00  0.00    +0.000 A 
ATOM     18  C   UNL     1      -0.026  -1.775   4.406  0.00  0.00    +0.002 A 
ATOM     19  C   UNL     1       0.683  -1.404   3.280  0.00  0.00    +0.023 A 
ENDBRANCH  11  14
BRANCH  11  21
ATOM     20  C   UNL     1       4.569   0.371   3.102  0.00  0.00    +0.025 C 
ATOM     21  C   UNL     1       3.406   0.991   2.325  0.00  0.00    +0.110 C 
ENDBRANCH  11  21
ENDBRANCH   5  12
ENDBRANCH   1   8
BRANCH   2  22
ATOM     22  C   UNL     1       7.360   0.735  -4.675  0.00  0.00    +0.198 C 
BRANCH  22  23
ATOM     23  N   UNL     1       8.715   0.216  -4.473  0.00  0.00    -0.335 N 
ATOM     24  H   UNL     1       8.919  -0.311  -3.684  0.00  0.00    +0.147 HD
BRANCH  23  25
ATOM     25  C   UNL     1       9.711   0.480  -5.415  0.00  0.00    +0.028 A 
ATOM     26  C   UNL     1       9.419   1.239  -6.542  0.00  0.00    +0.023 A 
ATOM     27  C   UNL     1      10.402   1.503  -7.477  0.00  0.00    +0.003 A 
ATOM     28  C   UNL     1      11.681   1.014  -7.299  0.00  0.00    +0.013 A 
ATOM     29  C   UNL     1      11.984   0.250  -6.171  0.00  0.00    +0.038 A 
ATOM     30  C   UNL     1      10.994  -0.012  -5.224  0.00  0.00    +0.036 A 
BRANCH  29  31
ATOM     31  C   UNL     1      13.353  -0.275  -5.977  0.00  0.00    +0.245 C 
ATOM     32  O   UNL     1      13.615  -0.940  -4.994  0.00  0.00    -0.270 OA
ATOM     33  N   UNL     1      14.309  -0.017  -6.891  0.00  0.00    -0.305 N 
ATOM     34  H   UNL     1      14.100   0.514  -7.675  0.00  0.00    +0.150 HD
BRANCH  33  35
ATOM     35  C   UNL     1      15.665  -0.537  -6.699  0.00  0.00    +0.100 C 
ATOM     36  C   UNL     1      16.459   0.423  -5.811  0.00  0.00    +0.033 C 
BRANCH  35  37
ATOM     37  C   UNL     1      16.348  -0.666  -8.037  0.00  0.00    -0.027 A 
ATOM     38  C   UNL     1      16.178   0.315  -8.996  0.00  0.00    +0.005 A 
ATOM     39  C   UNL     1      16.804   0.197 -10.223  0.00  0.00    +0.000 A 
ATOM     40  C   UNL     1      17.600  -0.902 -10.490  0.00  0.00    +0.000 A 
ATOM     41  C   UNL     1      17.770  -1.882  -9.530  0.00  0.00    +0.000 A 
ATOM     42  C   UNL     1      17.148  -1.762  -8.302  0.00  0.00    +0.005 A 
ENDBRANCH  35  37
ENDBRANCH  33  35
ENDBRANCH  29  31
ENDBRANCH  23  25
ENDBRANCH  22  23
ENDBRANCH   2  22
TORSDOF 10
