REMARK  Name = ZINC13689030
REMARK  5 active torsions:
REMARK  status: ('A' for Active; 'I' for Inactive)
REMARK    1  A    between atoms: C_6  and  S_7
REMARK    2  A    between atoms: S_7  and  N_10
REMARK    3  A    between atoms: C_14  and  C_17
REMARK    4  A    between atoms: C_17  and  C_18
REMARK    5  A    between atoms: N_20  and  C_21
REMARK                            x       y       z     vdW  Elec       q    Type
REMARK                         _______ _______ _______ _____ _____    ______ ____
ROOT
ATOM      1  N   UNL     1      -1.958  -1.136  -1.559  0.00  0.00    -0.103 NA
ATOM      2  C   UNL     1      -3.054  -1.794  -1.846  0.00  0.00    +0.192 A 
ATOM      3  N   UNL     1      -3.590  -2.105  -3.077  0.00  0.00    -0.336 N 
ATOM      4  H   UNL     1      -3.146  -1.831  -3.894  0.00  0.00    +0.168 HD
ATOM      5  C   UNL     1      -4.758  -2.808  -3.119  0.00  0.00    +0.033 A 
ATOM      6  C   UNL     1      -5.359  -3.179  -1.988  0.00  0.00    +0.070 A 
ATOM      7  S   UNL     1      -4.251  -2.534  -0.745  0.00  0.00    -0.057 S 
ENDROOT
BRANCH   1   8
ATOM      8  S   UNL     1      -1.524  -0.898   0.021  0.00  0.00    +0.101 S 
ATOM      9  O   UNL     1      -1.223  -2.179   0.557  0.00  0.00    -0.146 OA
ATOM     10  O   UNL     1      -2.511  -0.047   0.590  0.00  0.00    -0.146 OA
BRANCH   8  16
ATOM     11  C   UNL     1      -0.043   1.395   0.030  0.00  0.00    +0.030 A 
ATOM     12  C   UNL     1       1.139   2.110   0.026  0.00  0.00    +0.022 A 
ATOM     13  C   UNL     1       2.351   1.443   0.009  0.00  0.00    +0.041 A 
ATOM     14  C   UNL     1       2.378   0.060  -0.004  0.00  0.00    +0.022 A 
ATOM     15  C   UNL     1       1.194  -0.654  -0.001  0.00  0.00    +0.030 A 
ATOM     16  C   UNL     1      -0.016   0.013   0.016  0.00  0.00    +0.113 A 
ATOM     17 CL   UNL     1       3.837   2.340   0.004  0.00  0.00    -0.084 Cl
ENDBRANCH   8  16
ENDBRANCH   1   8
BRANCH   5  18
ATOM     18  C   UNL     1      -5.372  -3.166  -4.448  0.00  0.00    +0.149 C 
BRANCH  18  19
ATOM     19  C   UNL     1      -6.213  -2.016  -4.939  0.00  0.00    +0.223 C 
ATOM     20  O   UNL     1      -6.305  -1.005  -4.274  0.00  0.00    -0.275 OA
ATOM     21  N   UNL     1      -6.863  -2.110  -6.115  0.00  0.00    -0.285 N 
ATOM     22  H   UNL     1      -6.737  -2.890  -6.678  0.00  0.00    +0.155 HD
BRANCH  21  23
ATOM     23  C   UNL     1      -7.721  -1.082  -6.526  0.00  0.00    +0.034 A 
ATOM     24  C   UNL     1      -7.413   0.243  -6.223  0.00  0.00    +0.027 A 
ATOM     25  C   UNL     1      -8.247   1.265  -6.620  0.00  0.00    +0.049 A 
ATOM     26  C   UNL     1      -9.408   0.981  -7.328  0.00  0.00    +0.139 A 
ATOM     27  C   UNL     1      -9.724  -0.354  -7.636  0.00  0.00    +0.019 A 
ATOM     28  C   UNL     1      -8.869  -1.385  -7.235  0.00  0.00    +0.035 A 
ATOM     29  C   UNL     1     -10.952  -0.640  -8.384  0.00  0.00    +0.018 A 
ATOM     30  C   UNL     1     -11.738   0.404  -8.750  0.00  0.00    +0.092 A 
ATOM     31  C   UNL     1     -11.359   1.721  -8.407  0.00  0.00    +0.337 A 
ATOM     32  O   UNL     1     -12.073   2.649  -8.741  0.00  0.00    -0.245 OA
ATOM     33  O   UNL     1     -10.234   1.975  -7.722  0.00  0.00    -0.422 OA
ENDBRANCH  21  23
ENDBRANCH  18  19
ENDBRANCH   5  18
TORSDOF 5
