REMARK  Name = ZINC12229327
REMARK  8 active torsions:
REMARK  status: ('A' for Active; 'I' for Inactive)
REMARK    1  A    between atoms: C_1  and  C_2
REMARK    2  A    between atoms: C_4  and  C_8
REMARK    3  A    between atoms: N_5  and  C_7
REMARK    4  A    between atoms: N_10  and  C_11
REMARK    5  A    between atoms: C_12  and  C_22
REMARK    6  A    between atoms: C_19  and  C_20
REMARK    7  A    between atoms: C_19  and  C_21
REMARK    8  A    between atoms: C_19  and  N_48
REMARK                            x       y       z     vdW  Elec       q    Type
REMARK                         _______ _______ _______ _____ _____    ______ ____
ROOT
ATOM      1  C   UNL     1       0.004  -0.006   0.059  0.00  0.00    +0.085 A 
ATOM      2  C   UNL     1       1.104  -0.854   0.057  0.00  0.00    +0.068 A 
ATOM      3  C   UNL     1       0.848  -2.281   0.074  0.00  0.00    -0.027 A 
ATOM      4  C   UNL     1      -0.458  -2.634   0.089  0.00  0.00    -0.021 A 
ATOM      5  S   UNL     1      -1.339  -1.101   0.090  0.00  0.00    -0.079 S 
ATOM      6  C   UNL     1      -1.001  -4.029   0.106  0.00  0.00    -0.035 C 
ATOM      7  C   UNL     1       1.295  -4.671   0.535  0.00  0.00    -0.073 C 
ATOM      8  C   UNL     1       1.930  -3.355   0.078  0.00  0.00    +0.018 C 
ATOM      9  N   UNL     1       0.096  -4.948  -0.283  0.00  0.00    +0.384 N 
ATOM     10  H   UNL     1       0.324  -4.796  -1.272  0.00  0.00    -0.081 HD
ENDROOT
BRANCH   2  11
ATOM     11  C   UNL     1       2.472  -0.326   0.038  0.00  0.00    +0.244 C 
ATOM     12  O   UNL     1       3.050  -0.096   1.085  0.00  0.00    -0.270 OA
ATOM     13  N   UNL     1       3.089  -0.095  -1.137  0.00  0.00    -0.325 N 
ATOM     14  H   UNL     1       2.629  -0.278  -1.971  0.00  0.00    +0.145 HD
ATOM     15  H   UNL     1       3.994   0.254  -1.149  0.00  0.00    +0.145 HD
ENDBRANCH   2  11
BRANCH   1  18
ATOM     16  C   UNL     1      -1.192   2.037   0.046  0.00  0.00    +0.267 C 
ATOM     17  O   UNL     1      -2.235   1.417  -0.041  0.00  0.00    -0.268 OA
ATOM     18  N   UNL     1      -0.015   1.379   0.046  0.00  0.00    -0.274 N 
ATOM     19  H   UNL     1       0.818   1.876   0.034  0.00  0.00    +0.156 HD
BRANCH  16  23
ATOM     20  C   UNL     1       0.135   6.923   0.328  0.00  0.00    +0.067 C 
ATOM     21  C   UNL     1      -0.653   5.640   0.274  0.00  0.00    +0.061 A 
ATOM     22  C   UNL     1      -0.121   4.353   0.159  0.00  0.00    +0.057 A 
ATOM     23  C   UNL     1      -1.214   3.504   0.150  0.00  0.00    +0.124 A 
ATOM     24  N   UNL     1      -2.318   4.302   0.251  0.00  0.00    -0.262 N 
ATOM     25  N   UNL     1      -1.956   5.532   0.327  0.00  0.00    -0.176 NA
ATOM     26  C   UNL     1      -3.704   3.827   0.274  0.00  0.00    +0.173 C 
ENDBRANCH  16  23
ENDBRANCH   1  18
BRANCH   9  27
ATOM     27  C   UNL     1      -0.330  -6.351  -0.097  0.00  0.00    -0.074 C 
ATOM     28  C   UNL     1      -0.697  -6.610   1.366  0.00  0.00    -0.014 C 
ATOM     29  C   UNL     1      -1.547  -6.623  -0.984  0.00  0.00    -0.014 C 
ENDBRANCH   9  27
TORSDOF 4
