REMARK  Name = ZINC08835699
REMARK  7 active torsions:
REMARK  status: ('A' for Active; 'I' for Inactive)
REMARK    1  A    between atoms: C_8  and  C_10
REMARK    2  A    between atoms: N_12  and  C_13
REMARK    3  A    between atoms: C_16  and  N_19
REMARK    4  A    between atoms: N_19  and  C_20
REMARK    5  A    between atoms: C_20  and  N_22
REMARK    6  A    between atoms: C_23  and  C_25
REMARK    7  A    between atoms: C_25  and  C_26
REMARK                            x       y       z     vdW  Elec       q    Type
REMARK                         _______ _______ _______ _____ _____    ______ ____
ROOT
ATOM      1  C   UNL     1     -10.065   2.366   6.430  0.00  0.00    +0.034 A 
ATOM      2  C   UNL     1      -9.609   3.367   5.581  0.00  0.00    +0.025 A 
ATOM      3  C   UNL     1      -8.960   3.034   4.409  0.00  0.00    +0.025 A 
ATOM      4  C   UNL     1      -8.763   1.700   4.078  0.00  0.00    +0.033 A 
ATOM      5  C   UNL     1      -9.224   0.700   4.924  0.00  0.00    +0.025 A 
ATOM      6  C   UNL     1      -9.868   1.032   6.099  0.00  0.00    +0.025 A 
ENDROOT
BRANCH   1   9
ATOM      7  C   UNL     1     -11.540   3.773   7.657  0.00  0.00    +0.284 C 
ATOM      8  O   UNL     1     -11.666   4.478   6.673  0.00  0.00    -0.266 OA
ATOM      9  N   UNL     1     -10.722   2.703   7.619  0.00  0.00    -0.279 N 
ATOM     10  H   UNL     1     -10.589   2.166   8.416  0.00  0.00    +0.155 HD
BRANCH   7  18
ATOM     11  C   UNL     1     -14.776   5.473  12.466  0.00  0.00    +0.001 A 
ATOM     12  C   UNL     1     -14.170   4.358  13.029  0.00  0.00    +0.004 A 
ATOM     13  C   UNL     1     -13.293   3.588  12.295  0.00  0.00    +0.047 A 
ATOM     14  C   UNL     1     -13.010   3.927  10.977  0.00  0.00    +0.136 A 
ATOM     15  C   UNL     1     -13.628   5.059  10.412  0.00  0.00    +0.021 A 
ATOM     16  C   UNL     1     -14.513   5.826  11.173  0.00  0.00    +0.011 A 
ATOM     17  C   UNL     1     -13.128   5.139   9.040  0.00  0.00    +0.063 A 
ATOM     18  C   UNL     1     -12.279   4.090   8.887  0.00  0.00    +0.191 A 
ATOM     19  O   UNL     1     -12.222   3.379  10.032  0.00  0.00    -0.450 OA
ENDBRANCH   7  18
ENDBRANCH   1   9
BRANCH   4  20
ATOM     20  N   UNL     1      -8.105   1.363   2.889  0.00  0.00    -0.297 N 
ATOM     21  H   UNL     1      -8.452   0.652   2.327  0.00  0.00    +0.154 HD
BRANCH  20  22
ATOM     22  C   UNL     1      -6.990   2.026   2.525  0.00  0.00    +0.141 C 
ATOM     23  S   UNL     1      -6.431   3.344   3.465  0.00  0.00    -0.018 S 
BRANCH  22  24
ATOM     24  N   UNL     1      -6.314   1.653   1.420  0.00  0.00    -0.268 N 
ATOM     25  C   UNL     1      -5.199   2.316   1.055  0.00  0.00    +0.219 C 
ATOM     26  O   UNL     1      -4.804   3.249   1.722  0.00  0.00    -0.275 OA
ATOM     27  H   UNL     1      -6.630   0.907   0.887  0.00  0.00    +0.156 HD
BRANCH  25  28
ATOM     28  C   UNL     1      -4.444   1.899  -0.180  0.00  0.00    +0.103 C 
BRANCH  28  29
ATOM     29  C   UNL     1      -3.227   2.808  -0.365  0.00  0.00    -0.020 C 
ATOM     30  C   UNL     1      -2.460   2.384  -1.620  0.00  0.00    +0.011 C 
ATOM     31  C   UNL     1      -1.244   3.294  -1.805  0.00  0.00    -0.010 C 
ATOM     32  C   UNL     1      -0.329   3.177  -0.584  0.00  0.00    +0.007 C 
ATOM     33  C   UNL     1      -1.096   3.601   0.670  0.00  0.00    -0.010 C 
ATOM     34  C   UNL     1      -2.312   2.692   0.855  0.00  0.00    +0.011 C 
ATOM     35  C   UNL     1      -1.561   5.051   0.517  0.00  0.00    +0.007 C 
ATOM     36  C   UNL     1      -2.476   5.167  -0.704  0.00  0.00    -0.010 C 
ATOM     37  C   UNL     1      -1.709   4.743  -1.958  0.00  0.00    +0.007 C 
ATOM     38  C   UNL     1      -3.692   4.258  -0.518  0.00  0.00    +0.011 C 
ENDBRANCH  28  29
ENDBRANCH  25  28
ENDBRANCH  22  24
ENDBRANCH  20  22
ENDBRANCH   4  20
TORSDOF 7
