REMARK  Name = ZINC39687272
REMARK  7 active torsions:
REMARK  status: ('A' for Active; 'I' for Inactive)
REMARK    1  A    between atoms: C_1  and  C_2
REMARK    2  A    between atoms: C_5  and  C_9
REMARK    3  A    between atoms: C_13  and  C_22
REMARK    4  A    between atoms: N_24  and  C_25
REMARK    5  A    between atoms: C_25  and  C_27
REMARK    6  A    between atoms: C_25  and  C_34
REMARK    7  A    between atoms: C_27  and  C_28
REMARK                            x       y       z     vdW  Elec       q    Type
REMARK                         _______ _______ _______ _____ _____    ______ ____
ROOT
ATOM      1  C   UNL     1       0.573  -5.558  -0.214  0.00  0.00    +0.247 C 
ATOM      2  O   UNL     1       0.483  -6.329  -1.149  0.00  0.00    -0.270 OA
ATOM      3  N   UNL     1       0.574  -6.027   1.049  0.00  0.00    -0.296 N 
ATOM      4  C   UNL     1       0.555  -5.247   2.309  0.00  0.00    +0.121 C 
ATOM      5  C   UNL     1      -0.385  -6.039   3.245  0.00  0.00    +0.100 C 
ATOM      6  C   UNL     1      -0.353  -7.479   2.705  0.00  0.00    -0.004 C 
ATOM      7  C   UNL     1       0.587  -7.442   1.492  0.00  0.00    +0.115 C 
ATOM      8  C   UNL     1      -1.750  -7.910   2.269  0.00  0.00    -0.010 C 
ATOM      9  C   UNL     1      -1.704  -9.364   1.790  0.00  0.00    -0.082 C 
ATOM     10  N   UNL     1      -1.222 -10.224   2.877  0.00  0.00    +0.379 N 
ATOM     11  C   UNL     1       0.156  -9.863   3.228  0.00  0.00    -0.082 C 
ATOM     12  C   UNL     1       0.189  -8.430   3.767  0.00  0.00    -0.010 C 
ATOM     13  H   UNL     1      -1.815 -10.107   3.685  0.00  0.00    -0.086 HD
ATOM     14  H   UNL     1      -1.251 -11.188   2.579  0.00  0.00    -0.086 HD
ENDROOT
BRANCH   1  19
ATOM     15  C   UNL     1       1.000   0.102  -1.176  0.00  0.00    +0.047 C 
ATOM     16  C   UNL     1       0.888  -1.380  -0.925  0.00  0.00    -0.015 A 
ATOM     17  C   UNL     1       1.364  -1.916   0.258  0.00  0.00    +0.007 A 
ATOM     18  C   UNL     1       1.265  -3.271   0.495  0.00  0.00    +0.013 A 
ATOM     19  C   UNL     1       0.682  -4.104  -0.462  0.00  0.00    +0.040 A 
ATOM     20  C   UNL     1       0.202  -3.559  -1.654  0.00  0.00    +0.051 A 
ATOM     21  C   UNL     1       0.303  -2.199  -1.877  0.00  0.00    +0.127 A 
ATOM     22  F   UNL     1      -0.166  -1.667  -3.027  0.00  0.00    -0.205 F 
ENDBRANCH   1  19
BRANCH   5  23
ATOM     23  C   UNL     1       0.128  -5.996   4.662  0.00  0.00    +0.219 C 
ATOM     24  O   UNL     1       1.308  -5.819   4.874  0.00  0.00    -0.275 OA
ATOM     25  N   UNL     1      -0.726  -6.155   5.692  0.00  0.00    -0.303 N 
ATOM     26  H   UNL     1      -1.671  -6.296   5.522  0.00  0.00    +0.149 HD
BRANCH  25  27
ATOM     27  C   UNL     1      -0.228  -6.113   7.069  0.00  0.00    +0.163 C 
BRANCH  27  28
ATOM     28  C   UNL     1      -1.161  -6.888   7.964  0.00  0.00    +0.236 C 
ATOM     29  O   UNL     1      -2.280  -7.160   7.584  0.00  0.00    -0.274 OA
ATOM     30  N   UNL     1      -0.751  -7.279   9.187  0.00  0.00    -0.300 N 
ATOM     31  C   UNL     1       0.562  -6.869   9.703  0.00  0.00    +0.108 C 
ATOM     32  C   UNL     1       0.370  -6.208  11.072  0.00  0.00    +0.019 C 
ATOM     33  C   UNL     1      -0.396  -7.162  11.991  0.00  0.00    +0.003 C 
ATOM     34  C   UNL     1      -1.776  -7.448  11.395  0.00  0.00    +0.019 C 
ATOM     35  C   UNL     1      -1.611  -8.118  10.032  0.00  0.00    +0.108 C 
ENDBRANCH  27  28
BRANCH  27  36
ATOM     36  C   UNL     1      -0.158  -4.660   7.542  0.00  0.00    +0.067 C 
BRANCH  36  37
ATOM     37  C   UNL     1       0.872  -3.917   6.731  0.00  0.00    -0.045 A 
ATOM     38  C   UNL     1       2.188  -3.880   7.152  0.00  0.00    +0.004 A 
ATOM     39  C   UNL     1       3.133  -3.199   6.407  0.00  0.00    +0.000 A 
ATOM     40  C   UNL     1       2.762  -2.554   5.242  0.00  0.00    +0.000 A 
ATOM     41  C   UNL     1       1.446  -2.591   4.821  0.00  0.00    +0.000 A 
ATOM     42  C   UNL     1       0.502  -3.276   5.563  0.00  0.00    +0.004 A 
ENDBRANCH  36  37
ENDBRANCH  27  36
ENDBRANCH  25  27
ENDBRANCH   5  23
TORSDOF 6
