REMARK  Name = ZINC36063053
REMARK  12 active torsions:
REMARK  status: ('A' for Active; 'I' for Inactive)
REMARK    1  A    between atoms: C_1  and  C_2
REMARK    2  A    between atoms: C_2  and  O_3
REMARK    3  A    between atoms: O_3  and  C_4
REMARK    4  A    between atoms: C_4  and  C_6
REMARK    5  A    between atoms: C_7  and  C_30
REMARK    6  A    between atoms: C_11  and  C_13
REMARK    7  A    between atoms: C_16  and  C_19
REMARK    8  A    between atoms: C_20  and  C_23
REMARK    9  A    between atoms: C_24  and  N_26
REMARK   10  A    between atoms: N_26  and  C_27
REMARK   11  A    between atoms: C_27  and  C_28
REMARK   12  A    between atoms: C_27  and  C_29
REMARK                            x       y       z     vdW  Elec       q    Type
REMARK                         _______ _______ _______ _____ _____    ______ ____
ROOT
ATOM      1  C   UNL     1       1.033  -2.407   2.741  0.00  0.00    +0.087 C 
ATOM      2  C   UNL     1       1.390  -3.755   2.766  0.00  0.00    +0.086 C 
ATOM      3  N   UNL     1       2.367  -4.173   3.568  0.00  0.00    -0.224 NA
ATOM      4  C   UNL     1       3.058  -3.398   4.374  0.00  0.00    +0.166 C 
ATOM      5  N   UNL     1       2.862  -2.050   4.496  0.00  0.00    -0.267 N 
ATOM      6  C   UNL     1       1.795  -1.462   3.642  0.00  0.00    +0.150 C 
ATOM      7  C   UNL     1       3.673  -1.377   5.389  0.00  0.00    +0.048 C 
ATOM      8  C   UNL     1       4.591  -2.098   6.069  0.00  0.00    +0.072 C 
ATOM      9  S   UNL     1       4.307  -3.741   5.442  0.00  0.00    -0.060 S 
ENDROOT
BRANCH   6  10
ATOM     10  C   UNL     1       2.421  -0.400   2.776  0.00  0.00    -0.022 A 
ATOM     11  C   UNL     1       3.509  -0.709   1.981  0.00  0.00    +0.006 A 
ATOM     12  C   UNL     1       4.084   0.266   1.187  0.00  0.00    +0.004 A 
ATOM     13  C   UNL     1       3.570   1.549   1.187  0.00  0.00    -0.050 A 
ATOM     14  C   UNL     1       2.481   1.858   1.981  0.00  0.00    +0.004 A 
ATOM     15  C   UNL     1       1.904   0.882   2.772  0.00  0.00    +0.006 A 
ATOM     16  C   UNL     1       4.196   2.612   0.321  0.00  0.00    +0.044 C 
ENDBRANCH   6  10
BRANCH   2  17
ATOM     17  C   UNL     1       0.680  -4.724   1.899  0.00  0.00    +0.001 A 
ATOM     18  C   UNL     1       0.765  -4.614   0.511  0.00  0.00    +0.010 A 
ATOM     19  C   UNL     1       0.102  -5.520  -0.291  0.00  0.00    +0.001 A 
ATOM     20  C   UNL     1      -0.647  -6.534   0.279  0.00  0.00    +0.000 A 
ATOM     21  C   UNL     1      -0.735  -6.648   1.655  0.00  0.00    +0.001 A 
ATOM     22  C   UNL     1      -0.071  -5.753   2.468  0.00  0.00    +0.010 A 
ENDBRANCH   2  17
BRANCH   7  23
ATOM     23  C   UNL     1       3.542   0.073   5.593  0.00  0.00    +0.091 C 
ATOM     24  C   UNL     1       4.236   0.681   6.574  0.00  0.00    +0.239 C 
ATOM     25  O   UNL     1       5.147  -0.019   7.293  0.00  0.00    -0.271 OA
BRANCH  24  26
ATOM     26  N   UNL     1       4.019   2.021   6.848  0.00  0.00    -0.309 N 
ATOM     27  H   UNL     1       3.316   2.502   6.385  0.00  0.00    +0.149 HD
BRANCH  26  28
ATOM     28  C   UNL     1       4.851   2.710   7.837  0.00  0.00    +0.067 C 
ATOM     29  C   UNL     1       6.098   3.272   7.151  0.00  0.00    +0.027 C 
ATOM     30  C   UNL     1       4.054   3.856   8.464  0.00  0.00    +0.027 C 
ENDBRANCH  26  28
ENDBRANCH  24  26
ENDBRANCH   7  23
BRANCH   1  31
ATOM     31  C   UNL     1       0.011  -1.946   1.909  0.00  0.00    +0.339 C 
ATOM     32  O   UNL     1      -0.654  -2.738   1.263  0.00  0.00    -0.245 OA
BRANCH  31  33
ATOM     33  O   UNL     1      -0.241  -0.621   1.819  0.00  0.00    -0.462 OA
BRANCH  33  35
ATOM     34  C   UNL     1      -1.436   1.304   0.979  0.00  0.00    +0.048 C 
ATOM     35  C   UNL     1      -1.301  -0.219   0.949  0.00  0.00    +0.229 C 
ENDBRANCH  33  35
ENDBRANCH  31  33
ENDBRANCH   1  31
TORSDOF 8
