REMARK  Name = ZINC10240361
REMARK  8 active torsions:
REMARK  status: ('A' for Active; 'I' for Inactive)
REMARK    1  A    between atoms: C_1  and  C_2
REMARK    2  A    between atoms: C_8  and  N_10
REMARK    3  A    between atoms: C_14  and  C_16
REMARK    4  A    between atoms: C_16  and  S_17
REMARK    5  A    between atoms: S_17  and  C_18
REMARK    6  A    between atoms: C_21  and  C_26
REMARK    7  A    between atoms: N_22  and  C_23
REMARK    8  A    between atoms: C_23  and  C_24
REMARK                            x       y       z     vdW  Elec       q    Type
REMARK                         _______ _______ _______ _____ _____    ______ ____
ROOT
ATOM      1  C   UNL     1       3.313  -1.920   1.422  0.00  0.00    +0.173 C 
ENDROOT
BRANCH   1   6
ATOM      2  N   UNL     1       7.373  -3.681   3.301  0.00  0.00    -0.296 N 
ATOM      3  C   UNL     1       6.668  -2.619   2.861  0.00  0.00    +0.306 C 
ATOM      4  O   UNL     1       7.160  -1.509   2.891  0.00  0.00    -0.252 OA
ATOM      5  N   UNL     1       5.417  -2.790   2.389  0.00  0.00    -0.239 N 
ATOM      6  C   UNL     1       4.712  -1.729   1.950  0.00  0.00    +0.231 C 
ATOM      7  O   UNL     1       5.203  -0.621   1.979  0.00  0.00    -0.274 OA
ATOM      8  H   UNL     1       6.980  -4.567   3.278  0.00  0.00    +0.151 HD
ATOM      9  H   UNL     1       5.024  -3.677   2.366  0.00  0.00    +0.159 HD
BRANCH   2  16
ATOM     10  C   UNL     1       8.081  -4.620   5.948  0.00  0.00    +0.009 C 
ATOM     11  C   UNL     1       9.072  -4.631   4.782  0.00  0.00    +0.006 C 
ATOM     12  C   UNL     1      10.492  -4.437   5.318  0.00  0.00    +0.005 C 
ATOM     13  C   UNL     1      11.482  -4.447   4.152  0.00  0.00    +0.000 C 
ATOM     14  C   UNL     1      11.143  -3.311   3.185  0.00  0.00    +0.002 C 
ATOM     15  C   UNL     1       9.723  -3.505   2.649  0.00  0.00    +0.022 C 
ATOM     16  C   UNL     1       8.732  -3.495   3.814  0.00  0.00    +0.077 C 
ENDBRANCH   2  16
ENDBRANCH   1   6
BRANCH   1  17
ATOM     17  S   UNL     1       2.637  -0.320   0.913  0.00  0.00    -0.077 S 
BRANCH  17  18
ATOM     18  C   UNL     1       1.044  -0.825   0.355  0.00  0.00    +0.193 A 
ATOM     19  N   UNL     1       0.571  -2.051   0.353  0.00  0.00    -0.122 NA
ATOM     20  N   UNL     1      -0.621  -2.064  -0.127  0.00  0.00    -0.128 NA
ATOM     21  C   UNL     1      -0.985  -0.846  -0.456  0.00  0.00    +0.165 A 
ATOM     22  N   UNL     1       0.069  -0.015  -0.155  0.00  0.00    -0.298 N 
BRANCH  21  23
ATOM     23  C   UNL     1      -2.281  -0.444  -1.041  0.00  0.00    +0.019 A 
ATOM     24  C   UNL     1      -2.696   0.887  -0.978  0.00  0.00    +0.013 A 
ATOM     25  C   UNL     1      -3.905   1.257  -1.529  0.00  0.00    +0.021 A 
ATOM     26  C   UNL     1      -4.711   0.309  -2.136  0.00  0.00    +0.041 A 
ATOM     27  C   UNL     1      -4.308  -1.014  -2.198  0.00  0.00    +0.021 A 
ATOM     28  C   UNL     1      -3.099  -1.395  -1.654  0.00  0.00    +0.013 A 
ATOM     29 CL   UNL     1      -6.235   0.781  -2.822  0.00  0.00    -0.084 Cl
ENDBRANCH  21  23
BRANCH  22  30
ATOM     30  C   UNL     1       0.135   1.436  -0.346  0.00  0.00    +0.152 C 
BRANCH  30  31
ATOM     31  C   UNL     1      -0.325   2.129   0.911  0.00  0.00    -0.013 C 
ATOM     32  C   UNL     1       0.449   3.011   1.494  0.00  0.00    +0.005 C 
ENDBRANCH  30  31
ENDBRANCH  22  30
ENDBRANCH  17  18
ENDBRANCH   1  17
TORSDOF 7
