REMARK  Name = ZINC12848726
REMARK  8 active torsions:
REMARK  status: ('A' for Active; 'I' for Inactive)
REMARK    1  A    between atoms: C_1  and  O_2
REMARK    2  A    between atoms: O_2  and  C_3
REMARK    3  A    between atoms: C_6  and  C_11
REMARK    4  A    between atoms: C_8  and  O_9
REMARK    5  A    between atoms: O_9  and  C_10
REMARK    6  A    between atoms: C_14  and  C_33
REMARK    7  A    between atoms: C_19  and  C_21
REMARK    8  A    between atoms: N_23  and  C_24
REMARK                            x       y       z     vdW  Elec       q    Type
REMARK                         _______ _______ _______ _____ _____    ______ ____
ROOT
ATOM      1  C   UNL     1       2.532  -2.451  -4.377  0.00  0.00    +0.104 C 
ATOM      2  C   UNL     1       4.052  -2.439  -4.183  0.00  0.00    +0.063 C 
ATOM      3  C   UNL     1       4.731  -3.185  -5.338  0.00  0.00    +0.215 C 
ATOM      4  N   UNL     1       4.206  -2.673  -6.607  0.00  0.00    -0.238 N 
ATOM      5  C   UNL     1       3.029  -1.988  -6.719  0.00  0.00    +0.119 A 
ATOM      6  C   UNL     1       2.853  -1.665  -8.015  0.00  0.00    +0.078 A 
ATOM      7  C   UNL     1       3.960  -2.170  -8.735  0.00  0.00    +0.149 A 
ATOM      8  N   UNL     1       4.766  -2.774  -7.880  0.00  0.00    -0.164 NA
ATOM      9  N   UNL     1       2.208  -1.721  -5.618  0.00  0.00    -0.322 N 
ATOM     10  H   UNL     1       1.471  -1.092  -5.666  0.00  0.00    +0.148 HD
ENDROOT
BRANCH   1  14
ATOM     11  C   UNL     1       0.647  -0.530  -1.053  0.00  0.00    +0.162 A 
ATOM     12  C   UNL     1       1.212   0.228  -2.066  0.00  0.00    +0.050 A 
ATOM     13  C   UNL     1       1.820  -0.396  -3.139  0.00  0.00    +0.009 A 
ATOM     14  C   UNL     1       1.867  -1.776  -3.204  0.00  0.00    -0.024 A 
ATOM     15  C   UNL     1       1.306  -2.538  -2.197  0.00  0.00    +0.054 A 
ATOM     16  C   UNL     1       0.700  -1.919  -1.116  0.00  0.00    +0.162 A 
BRANCH  11  18
ATOM     17  C   UNL     1       0.032   1.511   0.002  0.00  0.00    +0.277 C 
ATOM     18  O   UNL     1       0.048   0.082   0.004  0.00  0.00    -0.491 OA
ENDBRANCH  11  18
BRANCH  16  19
ATOM     19  O   UNL     1       0.152  -2.668  -0.121  0.00  0.00    -0.491 OA
ATOM     20  C   UNL     1       0.243  -4.088  -0.253  0.00  0.00    +0.277 C 
ENDBRANCH  16  19
ENDBRANCH   1  14
BRANCH   7  21
ATOM     21  C   UNL     1       4.177  -2.044 -10.190  0.00  0.00    +0.268 C 
ATOM     22  O   UNL     1       3.360  -1.464 -10.879  0.00  0.00    -0.268 OA
ATOM     23  N   UNL     1       5.280  -2.574 -10.755  0.00  0.00    -0.278 N 
ATOM     24  H   UNL     1       5.963  -2.980 -10.198  0.00  0.00    +0.155 HD
BRANCH  23  25
ATOM     25  C   UNL     1       5.442  -2.537 -12.146  0.00  0.00    +0.069 A 
ATOM     26  C   UNL     1       4.969  -1.453 -12.872  0.00  0.00    +0.029 A 
ATOM     27  C   UNL     1       5.130  -1.418 -14.244  0.00  0.00    +0.040 A 
ATOM     28  C   UNL     1       5.761  -2.464 -14.896  0.00  0.00    +0.126 A 
ATOM     29  C   UNL     1       6.233  -3.548 -14.175  0.00  0.00    +0.078 A 
ATOM     30  C   UNL     1       6.080  -3.584 -12.801  0.00  0.00    +0.147 A 
ATOM     31  F   UNL     1       6.546  -4.639 -12.096  0.00  0.00    -0.203 F 
ATOM     32  F   UNL     1       5.916  -2.427 -16.237  0.00  0.00    -0.205 F 
ENDBRANCH  23  25
ENDBRANCH   7  21
BRANCH   3  33
ATOM     33  C   UNL     1       6.243  -2.957  -5.277  0.00  0.00    +0.412 C 
ATOM     34  F   UNL     1       6.738  -3.435  -4.059  0.00  0.00    -0.168 F 
ATOM     35  F   UNL     1       6.860  -3.638  -6.331  0.00  0.00    -0.168 F 
ATOM     36  F   UNL     1       6.512  -1.588  -5.384  0.00  0.00    -0.168 F 
ENDBRANCH   3  33
TORSDOF 6
