REMARK  Name = ZINC15093087
REMARK  7 active torsions:
REMARK  status: ('A' for Active; 'I' for Inactive)
REMARK    1  A    between atoms: C_1  and  C_2
REMARK    2  A    between atoms: N_4  and  C_5
REMARK    3  A    between atoms: C_14  and  C_17
REMARK    4  A    between atoms: C_18  and  C_19
REMARK    5  A    between atoms: N_21  and  N_22
REMARK    6  A    between atoms: C_23  and  C_25
REMARK    7  A    between atoms: N_27  and  C_34
REMARK                            x       y       z     vdW  Elec       q    Type
REMARK                         _______ _______ _______ _____ _____    ______ ____
ROOT
ATOM      1  C   UNL     1       4.766   1.089  -0.038  0.00  0.00    +0.033 C 
ATOM      2  C   UNL     1       3.586   1.750  -0.023  0.00  0.00    +0.071 C 
ENDROOT
BRANCH   1   9
ATOM      3  C   UNL     1       6.460   7.555  -0.023  0.00  0.00    +0.110 C 
ATOM      4  C   UNL     1       6.261   6.062  -0.028  0.00  0.00    +0.223 C 
ATOM      5  O   UNL     1       5.139   5.600  -0.019  0.00  0.00    -0.275 OA
ATOM      6  N   UNL     1       7.328   5.239  -0.042  0.00  0.00    -0.216 N 
ATOM      7  C   UNL     1       7.144   3.862  -0.046  0.00  0.00    +0.172 A 
ATOM      8  N   UNL     1       6.021   3.173  -0.044  0.00  0.00    -0.225 NA
ATOM      9  C   UNL     1       6.026   1.839  -0.046  0.00  0.00    +0.073 A 
ATOM     10  C   UNL     1       7.234   1.179  -0.061  0.00  0.00    +0.076 A 
ATOM     11  S   UNL     1       8.369   2.561  -0.065  0.00  0.00    -0.059 S 
BRANCH   6  12
ATOM     12  C   UNL     1       8.624   5.773  -0.052  0.00  0.00    +0.078 A 
ATOM     13  C   UNL     1       9.256   6.043  -1.258  0.00  0.00    +0.027 A 
ATOM     14  C   UNL     1      10.533   6.570  -1.265  0.00  0.00    +0.002 A 
ATOM     15  C   UNL     1      11.183   6.829  -0.073  0.00  0.00    +0.003 A 
ATOM     16  C   UNL     1      10.558   6.561   1.131  0.00  0.00    +0.040 A 
ATOM     17  C   UNL     1       9.278   6.038   1.146  0.00  0.00    +0.145 A 
ATOM     18  F   UNL     1       8.665   5.782   2.322  0.00  0.00    -0.204 F 
ENDBRANCH   6  12
ENDBRANCH   1   9
BRANCH   2  19
ATOM     19  C   UNL     1       2.369   1.025  -0.015  0.00  0.00    +0.253 C 
ATOM     20  O   UNL     1       2.385  -0.193  -0.022  0.00  0.00    -0.269 OA
ATOM     21  N   UNL     1       1.193   1.683  -0.000  0.00  0.00    -0.231 N 
ATOM     22  H   UNL     1       1.179   2.653   0.005  0.00  0.00    +0.173 HD
BRANCH  21  23
ATOM     23  N   UNL     1      -0.011   0.966   0.007  0.00  0.00    -0.230 N 
ATOM     24  C   UNL     1      -1.187   1.624   0.017  0.00  0.00    +0.262 C 
ATOM     25  O   UNL     1      -1.204   2.840   0.023  0.00  0.00    -0.269 OA
ATOM     26  H   UNL     1       0.002  -0.004   0.002  0.00  0.00    +0.173 HD
BRANCH  24  27
ATOM     27  C   UNL     1      -2.450   0.872   0.018  0.00  0.00    +0.063 A 
ATOM     28  C   UNL     1      -2.592  -0.484   0.012  0.00  0.00    +0.099 A 
ATOM     29  N   UNL     1      -3.908  -0.807   0.017  0.00  0.00    -0.349 N 
ATOM     30  C   UNL     1      -4.683   0.334   0.026  0.00  0.00    +0.050 A 
ATOM     31  C   UNL     1      -3.812   1.435   0.034  0.00  0.00    +0.012 A 
ATOM     32  C   UNL     1      -4.324   2.730   0.036  0.00  0.00    +0.011 A 
ATOM     33  C   UNL     1      -5.688   2.925   0.043  0.00  0.00    +0.001 A 
ATOM     34  C   UNL     1      -6.550   1.838   0.042  0.00  0.00    +0.002 A 
ATOM     35  C   UNL     1      -6.057   0.551   0.033  0.00  0.00    +0.026 A 
ATOM     36  C   UNL     1      -4.433  -2.175   0.011  0.00  0.00    +0.149 C 
ENDBRANCH  24  27
ENDBRANCH  21  23
ENDBRANCH   2  19
TORSDOF 5
