REMARK  Name = ZINC01176821
REMARK  10 active torsions:
REMARK  status: ('A' for Active; 'I' for Inactive)
REMARK    1  A    between atoms: C_1  and  C_2
REMARK    2  A    between atoms: C_2  and  C_3
REMARK    3  A    between atoms: C_2  and  C_4
REMARK    4  A    between atoms: C_2  and  C_5
REMARK    5  A    between atoms: C_8  and  C_11
REMARK    6  A    between atoms: N_13  and  C_14
REMARK    7  A    between atoms: C_17  and  N_20
REMARK    8  A    between atoms: N_20  and  C_21
REMARK    9  A    between atoms: C_21  and  N_23
REMARK   10  A    between atoms: C_24  and  C_26
REMARK                            x       y       z     vdW  Elec       q    Type
REMARK                         _______ _______ _______ _____ _____    ______ ____
ROOT
ATOM      1  C   UNL     1       9.686   1.059  -0.034  0.00  0.00    +0.034 A 
ATOM      2  C   UNL     1       9.431   2.301  -0.600  0.00  0.00    +0.025 A 
ATOM      3  C   UNL     1       8.159   2.836  -0.546  0.00  0.00    +0.025 A 
ATOM      4  C   UNL     1       7.135   2.132   0.072  0.00  0.00    +0.033 A 
ATOM      5  C   UNL     1       7.391   0.892   0.643  0.00  0.00    +0.025 A 
ATOM      6  C   UNL     1       8.661   0.354   0.585  0.00  0.00    +0.025 A 
ENDROOT
BRANCH   1   9
ATOM      7  C   UNL     1      11.142  -0.811  -0.247  0.00  0.00    +0.248 C 
ATOM      8  O   UNL     1      10.173  -1.545  -0.289  0.00  0.00    -0.270 OA
ATOM      9  N   UNL     1      10.975   0.516  -0.088  0.00  0.00    -0.282 N 
ATOM     10  H   UNL     1      11.749   1.097  -0.010  0.00  0.00    +0.155 HD
BRANCH   7  14
ATOM     11  C   UNL     1      15.051  -2.434  -0.604  0.00  0.00    -0.042 A 
ATOM     12  C   UNL     1      13.951  -3.271  -0.651  0.00  0.00    +0.005 A 
ATOM     13  C   UNL     1      12.678  -2.751  -0.536  0.00  0.00    +0.013 A 
ATOM     14  C   UNL     1      12.502  -1.376  -0.371  0.00  0.00    +0.037 A 
ATOM     15  C   UNL     1      13.616  -0.536  -0.329  0.00  0.00    +0.013 A 
ATOM     16  C   UNL     1      14.884  -1.070  -0.440  0.00  0.00    +0.005 A 
BRANCH  11  18
ATOM     17  C   UNL     1      16.573  -3.724  -2.076  0.00  0.00    +0.015 C 
ATOM     18  C   UNL     1      16.438  -3.009  -0.730  0.00  0.00    -0.013 C 
ATOM     19  C   UNL     1      17.468  -1.881  -0.646  0.00  0.00    +0.015 C 
ATOM     20  C   UNL     1      16.681  -4.007   0.404  0.00  0.00    +0.015 C 
ENDBRANCH  11  18
ENDBRANCH   7  14
ENDBRANCH   1   9
BRANCH   4  21
ATOM     21  N   UNL     1       5.845   2.674   0.126  0.00  0.00    -0.297 N 
ATOM     22  H   UNL     1       5.333   2.627   0.949  0.00  0.00    +0.154 HD
BRANCH  21  23
ATOM     23  C   UNL     1       5.315   3.261  -0.965  0.00  0.00    +0.141 C 
ATOM     24  S   UNL     1       6.252   3.429  -2.388  0.00  0.00    -0.018 S 
BRANCH  23  25
ATOM     25  N   UNL     1       4.046   3.715  -0.937  0.00  0.00    -0.263 N 
ATOM     26  C   UNL     1       3.516   4.302  -2.028  0.00  0.00    +0.256 C 
ATOM     27  O   UNL     1       4.182   4.421  -3.039  0.00  0.00    -0.269 OA
ATOM     28  H   UNL     1       3.515   3.620  -0.131  0.00  0.00    +0.157 HD
BRANCH  26  29
ATOM     29  C   UNL     1       2.137   4.796  -1.997  0.00  0.00    +0.074 A 
ATOM     30  C   UNL     1       1.410   5.422  -2.998  0.00  0.00    +0.021 A 
ATOM     31  C   UNL     1       0.123   5.792  -2.698  0.00  0.00    +0.008 A 
ATOM     32  C   UNL     1      -0.374   5.522  -1.462  0.00  0.00    +0.046 A 
ATOM     33  S   UNL     1       0.955   4.747  -0.662  0.00  0.00    -0.092 S 
ENDBRANCH  26  29
ENDBRANCH  23  25
ENDBRANCH  21  23
ENDBRANCH   4  21
TORSDOF 7
