REMARK  Name = ZINC11315352
REMARK  7 active torsions:
REMARK  status: ('A' for Active; 'I' for Inactive)
REMARK    1  A    between atoms: C_1  and  C_2
REMARK    2  A    between atoms: C_2  and  C_4
REMARK    3  A    between atoms: C_2  and  N_11
REMARK    4  A    between atoms: C_12  and  C_14
REMARK    5  A    between atoms: C_14  and  N_15
REMARK    6  A    between atoms: C_18  and  C_22
REMARK    7  A    between atoms: C_18  and  C_23
REMARK                            x       y       z     vdW  Elec       q    Type
REMARK                         _______ _______ _______ _____ _____    ______ ____
ROOT
ATOM      1  N   UNL     1      -2.886   5.692  -0.152  0.00  0.00    -0.215 N 
ATOM      2  C   UNL     1      -2.846   5.958  -1.473  0.00  0.00    +0.251 C 
ATOM      3  O   UNL     1      -1.891   5.851  -2.213  0.00  0.00    -0.272 OA
ATOM      4  C   UNL     1      -4.243   6.416  -1.842  0.00  0.00    +0.135 C 
ATOM      5  N   UNL     1      -4.975   6.357  -0.565  0.00  0.00    -0.281 N 
ATOM      6  C   UNL     1      -4.100   5.924   0.361  0.00  0.00    +0.310 C 
ATOM      7  O   UNL     1      -4.380   5.762   1.532  0.00  0.00    -0.252 OA
ATOM      8  C   UNL     1      -4.214   7.848  -2.380  0.00  0.00    +0.047 C 
ATOM      9  H   UNL     1      -5.906   6.586  -0.419  0.00  0.00    +0.152 HD
ENDROOT
BRANCH   4  10
ATOM     10  C   UNL     1      -4.862   5.484  -2.851  0.00  0.00    -0.012 A 
ATOM     11  C   UNL     1      -4.070   4.878  -3.808  0.00  0.00    +0.010 A 
ATOM     12  C   UNL     1      -4.634   4.023  -4.736  0.00  0.00    +0.050 A 
ATOM     13  C   UNL     1      -5.997   3.771  -4.710  0.00  0.00    +0.162 A 
ATOM     14  C   UNL     1      -6.794   4.379  -3.746  0.00  0.00    +0.162 A 
ATOM     15  C   UNL     1      -6.221   5.232  -2.815  0.00  0.00    +0.055 A 
ATOM     16  O   UNL     1      -8.133   4.142  -3.699  0.00  0.00    -0.485 OA
ATOM     17  C   UNL     1      -8.728   3.578  -4.873  0.00  0.00    +0.270 C 
ATOM     18  C   UNL     1      -7.844   2.416  -5.348  0.00  0.00    +0.270 C 
ATOM     19  O   UNL     1      -6.540   2.933  -5.635  0.00  0.00    -0.485 OA
ENDBRANCH   4  10
BRANCH   1  20
ATOM     20  C   UNL     1      -1.741   5.215   0.626  0.00  0.00    +0.213 C 
BRANCH  20  22
ATOM     21  N   UNL     1      -0.749   3.044   1.275  0.00  0.00    -0.307 N 
ATOM     22  C   UNL     1      -1.720   3.708   0.618  0.00  0.00    +0.231 C 
ATOM     23  O   UNL     1      -2.578   3.094   0.021  0.00  0.00    -0.274 OA
ATOM     24  H   UNL     1      -0.063   3.536   1.753  0.00  0.00    +0.149 HD
BRANCH  21  26
ATOM     25  C   UNL     1      -0.013   1.086   0.008  0.00  0.00    +0.033 C 
ATOM     26  C   UNL     1      -0.729   1.579   1.267  0.00  0.00    +0.100 C 
BRANCH  26  27
ATOM     27  C   UNL     1       0.000   1.080   2.488  0.00  0.00    -0.027 A 
ATOM     28  C   UNL     1       1.144   1.724   2.921  0.00  0.00    +0.006 A 
ATOM     29  C   UNL     1       1.810   1.270   4.044  0.00  0.00    +0.015 A 
ATOM     30  C   UNL     1       1.338   0.164   4.727  0.00  0.00    +0.018 A 
ATOM     31  C   UNL     1       0.196  -0.484   4.290  0.00  0.00    +0.015 A 
ATOM     32  C   UNL     1      -0.472  -0.025   3.171  0.00  0.00    +0.006 A 
ATOM     33 BR   UNL     1       2.252  -0.463   6.259  0.00  0.00    -0.050 Br
ENDBRANCH  26  27
ENDBRANCH  21  26
ENDBRANCH  20  22
ENDBRANCH   1  20
TORSDOF 5
