REMARK  Name = ZINC39974402
REMARK  12 active torsions:
REMARK  status: ('A' for Active; 'I' for Inactive)
REMARK    1  A    between atoms: C_1  and  C_2
REMARK    2  A    between atoms: C_3  and  N_16
REMARK    3  A    between atoms: C_4  and  C_15
REMARK    4  A    between atoms: N_5  and  C_7
REMARK    5  A    between atoms: C_7  and  C_8
REMARK    6  A    between atoms: N_16  and  C_17
REMARK    7  A    between atoms: C_17  and  N_19
REMARK    8  A    between atoms: N_19  and  C_20
REMARK    9  A    between atoms: C_23  and  S_26
REMARK   10  A    between atoms: S_26  and  N_29
REMARK   11  A    between atoms: C_30  and  C_38
REMARK   12  A    between atoms: C_35  and  C_37
REMARK                            x       y       z     vdW  Elec       q    Type
REMARK                         _______ _______ _______ _____ _____    ______ ____
ROOT
ATOM      1  C   UNL     1       1.490   0.293  -2.292  0.00  0.00    +0.139 C 
ATOM      2  S   UNL     1       0.810   1.513  -1.303  0.00  0.00    -0.018 S 
ENDROOT
BRANCH   1   3
ATOM      3  N   UNL     1       1.532  -0.982  -1.857  0.00  0.00    -0.294 N 
ATOM      4  H   UNL     1       1.964  -1.664  -2.396  0.00  0.00    +0.154 HD
BRANCH   3   7
ATOM      5  C   UNL     1      -1.260   0.001  -0.888  0.00  0.00    +0.069 C 
ATOM      6  C   UNL     1      -0.301  -0.901  -0.153  0.00  0.00    +0.081 A 
ATOM      7  C   UNL     1       0.951  -1.323  -0.621  0.00  0.00    +0.076 A 
ATOM      8  C   UNL     1       1.503  -2.121   0.328  0.00  0.00    +0.058 A 
ATOM      9  N   UNL     1       0.624  -2.197   1.361  0.00  0.00    -0.262 N 
ATOM     10  N   UNL     1      -0.493  -1.418   1.033  0.00  0.00    -0.174 NA
ATOM     11  C   UNL     1       2.846  -2.799   0.251  0.00  0.00    +0.067 C 
BRANCH   9  12
ATOM     12  C   UNL     1       0.814  -2.954   2.601  0.00  0.00    +0.179 C 
BRANCH  12  13
ATOM     13  C   UNL     1       1.486  -2.078   3.627  0.00  0.00    -0.023 A 
ATOM     14  C   UNL     1       2.866  -2.040   3.704  0.00  0.00    +0.005 A 
ATOM     15  C   UNL     1       3.485  -1.238   4.644  0.00  0.00    +0.003 A 
ATOM     16  C   UNL     1       2.724  -0.472   5.508  0.00  0.00    +0.038 A 
ATOM     17  C   UNL     1       1.342  -0.509   5.431  0.00  0.00    +0.124 A 
ATOM     18  C   UNL     1       0.724  -1.309   4.485  0.00  0.00    +0.043 A 
ATOM     19  F   UNL     1       0.598   0.238   6.275  0.00  0.00    -0.205 F 
ENDBRANCH  12  13
ENDBRANCH   9  12
ENDBRANCH   3   7
ENDBRANCH   1   3
BRANCH   1  20
ATOM     20  N   UNL     1       1.983   0.608  -3.507  0.00  0.00    -0.297 N 
ATOM     21  H   UNL     1       2.424  -0.071  -4.041  0.00  0.00    +0.154 HD
BRANCH  20  22
ATOM     22  C   UNL     1       1.857   1.912  -3.996  0.00  0.00    +0.033 A 
ATOM     23  C   UNL     1       2.153   2.994  -3.177  0.00  0.00    +0.025 A 
ATOM     24  C   UNL     1       2.029   4.280  -3.663  0.00  0.00    +0.030 A 
ATOM     25  C   UNL     1       1.610   4.492  -4.964  0.00  0.00    +0.106 A 
ATOM     26  C   UNL     1       1.315   3.417  -5.782  0.00  0.00    +0.030 A 
ATOM     27  C   UNL     1       1.443   2.128  -5.304  0.00  0.00    +0.025 A 
BRANCH  25  28
ATOM     28  S   UNL     1       1.452   6.135  -5.580  0.00  0.00    +0.061 S 
ATOM     29  O   UNL     1       0.404   6.110  -6.540  0.00  0.00    -0.153 OA
ATOM     30  O   UNL     1       1.427   6.993  -4.448  0.00  0.00    -0.153 OA
BRANCH  28  31
ATOM     31  N   UNL     1       2.843   6.484  -6.408  0.00  0.00    -0.171 NA
ATOM     32  C   UNL     1       2.886   6.386  -7.874  0.00  0.00    +0.077 C 
ATOM     33  C   UNL     1       3.396   7.715  -8.441  0.00  0.00    +0.020 C 
ATOM     34  C   UNL     1       4.739   8.059  -7.794  0.00  0.00    +0.003 C 
ATOM     35  C   UNL     1       4.554   8.219  -6.283  0.00  0.00    +0.020 C 
ATOM     36  C   UNL     1       4.055   6.902  -5.692  0.00  0.00    +0.077 C 
ATOM     37  C   UNL     1       3.733   7.098  -4.209  0.00  0.00    +0.026 C 
ATOM     38  C   UNL     1       3.829   5.254  -8.285  0.00  0.00    +0.026 C 
ENDBRANCH  28  31
ENDBRANCH  25  28
ENDBRANCH  20  22
ENDBRANCH   1  20
TORSDOF 8
