REMARK  Name = ZINC11345015
REMARK  10 active torsions:
REMARK  status: ('A' for Active; 'I' for Inactive)
REMARK    1  A    between atoms: C_1  and  C_2
REMARK    2  A    between atoms: C_2  and  C_4
REMARK    3  A    between atoms: C_2  and  N_71
REMARK    4  A    between atoms: C_8  and  N_10
REMARK    5  A    between atoms: C_11  and  C_13
REMARK    6  A    between atoms: C_19  and  N_71
REMARK    7  A    between atoms: C_20  and  C_21
REMARK    8  A    between atoms: C_20  and  N_71
REMARK    9  A    between atoms: C_26  and  C_29
REMARK   10  A    between atoms: N_31  and  C_32
REMARK                            x       y       z     vdW  Elec       q    Type
REMARK                         _______ _______ _______ _____ _____    ______ ____
ROOT
ATOM      1  C   UNL     1       8.338  10.461   2.363  0.00  0.00    -0.095 C 
ATOM      2  N   UNL     1       7.454   9.678   3.252  0.00  0.00    +0.388 N 
ATOM      3  H   UNL     1       6.635  10.248   3.494  0.00  0.00    -0.081 HD
ENDROOT
BRANCH   2   5
ATOM      4  C   UNL     1       7.216   8.577   5.426  0.00  0.00    -0.008 C 
ATOM      5  C   UNL     1       8.174   9.322   4.493  0.00  0.00    -0.040 C 
BRANCH   5   6
ATOM      6  C   UNL     1       8.649  10.585   5.164  0.00  0.00    -0.059 A 
ATOM      7  C   UNL     1       7.840  11.707   5.175  0.00  0.00    +0.002 A 
ATOM      8  C   UNL     1       8.272  12.868   5.789  0.00  0.00    +0.002 A 
ATOM      9  C   UNL     1       9.513  12.910   6.396  0.00  0.00    +0.023 A 
ATOM     10  C   UNL     1      10.326  11.784   6.387  0.00  0.00    +0.034 A 
ATOM     11  C   UNL     1       9.887  10.618   5.774  0.00  0.00    +0.025 A 
BRANCH  10  12
ATOM     12  N   UNL     1      11.583  11.823   7.000  0.00  0.00    -0.281 N 
ATOM     13  C   UNL     1      11.761  12.540   8.128  0.00  0.00    +0.248 C 
ATOM     14  O   UNL     1      10.852  13.219   8.566  0.00  0.00    -0.270 OA
ATOM     15  H   UNL     1      12.326  11.335   6.614  0.00  0.00    +0.155 HD
BRANCH  13  16
ATOM     16  C   UNL     1      13.059  12.500   8.832  0.00  0.00    +0.037 A 
ATOM     17  C   UNL     1      14.102  11.716   8.335  0.00  0.00    +0.013 A 
ATOM     18  C   UNL     1      15.314  11.688   8.994  0.00  0.00    +0.001 A 
ATOM     19  C   UNL     1      15.493  12.424  10.152  0.00  0.00    +0.000 A 
ATOM     20  C   UNL     1      14.462  13.198  10.653  0.00  0.00    +0.001 A 
ATOM     21  C   UNL     1      13.247  13.240  10.000  0.00  0.00    +0.013 A 
ENDBRANCH  13  16
ENDBRANCH  10  12
ENDBRANCH   5   6
ENDBRANCH   2   5
BRANCH   2  22
ATOM     22  C   UNL     1       6.999   8.453   2.562  0.00  0.00    +0.019 C 
BRANCH  22  23
ATOM     23  C   UNL     1       6.086   8.844   1.429  0.00  0.00    +0.199 C 
ATOM     24  O   UNL     1       5.856  10.015   1.212  0.00  0.00    -0.278 OA
ATOM     25  N   UNL     1       5.525   7.893   0.657  0.00  0.00    -0.303 N 
ATOM     26  C   UNL     1       4.632   8.258  -0.452  0.00  0.00    +0.108 C 
ATOM     27  C   UNL     1       3.310   7.502  -0.290  0.00  0.00    +0.032 C 
ATOM     28  C   UNL     1       3.595   6.002  -0.181  0.00  0.00    +0.078 C 
ATOM     29  C   UNL     1       4.459   5.734   1.053  0.00  0.00    +0.032 C 
ATOM     30  C   UNL     1       5.794   6.470   0.907  0.00  0.00    +0.108 C 
BRANCH  28  31
ATOM     31  C   UNL     1       2.294   5.251  -0.057  0.00  0.00    +0.220 C 
ATOM     32  O   UNL     1       1.243   5.856  -0.055  0.00  0.00    -0.275 OA
ATOM     33  N   UNL     1       2.299   3.908   0.053  0.00  0.00    -0.285 N 
ATOM     34  H   UNL     1       3.140   3.430   0.126  0.00  0.00    +0.155 HD
BRANCH  33  35
ATOM     35  C   UNL     1       1.091   3.202   0.062  0.00  0.00    +0.033 A 
ATOM     36  C   UNL     1       0.013   3.660  -0.684  0.00  0.00    +0.023 A 
ATOM     37  C   UNL     1      -1.179   2.961  -0.674  0.00  0.00    +0.002 A 
ATOM     38  C   UNL     1      -1.299   1.809   0.082  0.00  0.00    +0.000 A 
ATOM     39  C   UNL     1      -0.226   1.348   0.822  0.00  0.00    +0.002 A 
ATOM     40  C   UNL     1       0.968   2.042   0.816  0.00  0.00    +0.023 A 
ENDBRANCH  33  35
ENDBRANCH  28  31
ENDBRANCH  22  23
ENDBRANCH   2  22
TORSDOF 8
