REMARK  Name = ZINC34716129
REMARK  11 active torsions:
REMARK  status: ('A' for Active; 'I' for Inactive)
REMARK    1  A    between atoms: C_1  and  C_2
REMARK    2  A    between atoms: C_13  and  C_14
REMARK    3  A    between atoms: C_13  and  O_15
REMARK    4  A    between atoms: N_21  and  O_22
REMARK    5  A    between atoms: O_22  and  C_23
REMARK    6  A    between atoms: C_23  and  C_24
REMARK    7  A    between atoms: N_26  and  CA_27
REMARK    8  A    between atoms: CA_27  and  CB_29
REMARK    9  A    between atoms: CA_27  and  C_36
REMARK   10  A    between atoms: CB_29  and  CG_30
REMARK   11  A    between atoms: C_41  and  C_42
REMARK                            x       y       z     vdW  Elec       q    Type
REMARK                         _______ _______ _______ _____ _____    ______ ____
ROOT
ATOM      1  C   UNK A   0      -0.019   1.526   0.010  0.00  0.00    +0.014 C 
ATOM      2  C   UNK A   0       0.002  -0.004   0.002  0.00  0.00    -0.000 C 
ATOM      3  C   UNK A   0       0.608  -0.559  -1.290  0.00  0.00    +0.010 C 
ATOM      4  C   UNK A   0       2.112  -0.310  -1.326  0.00  0.00    +0.005 C 
ATOM      5  C   UNK A   0       2.767  -1.065  -0.164  0.00  0.00    +0.006 C 
ATOM      6  C   UNK A   0       2.231  -0.497   1.150  0.00  0.00    -0.003 C 
ATOM      7  C   UNK A   0       0.735  -0.576   1.228  0.00  0.00    +0.001 C 
ATOM      8  C   UNK A   0       0.232  -2.029   1.301  0.00  0.00    +0.007 C 
ATOM      9  C   UNK A   0      -1.266  -1.911   0.938  0.00  0.00    +0.035 C 
ATOM     10  C   UNK A   0      -1.422  -0.607   0.134  0.00  0.00    +0.069 C 
ATOM     11  C   UNK A   0      -1.995  -0.910  -1.252  0.00  0.00    +0.042 C 
ATOM     12  C   UNK A   0       2.859  -1.234   2.335  0.00  0.00    +0.008 C 
ATOM     13  C   UNK A   0       4.372  -0.997   2.348  0.00  0.00    +0.032 C 
ATOM     14  C   UNK A   0       4.925  -1.418   0.999  0.00  0.00    -0.058 C 
ATOM     15  C   UNK A   0       5.943  -2.260   0.958  0.00  0.00    +0.031 C 
ATOM     16  C   UNK A   0       6.494  -2.707  -0.337  0.00  0.00    +0.102 C 
ATOM     17  N   UNK A   0       7.526  -3.505  -0.385  0.00  0.00    -0.085 NA
ATOM     18  C   UNK A   0       5.847  -2.230  -1.578  0.00  0.00    +0.027 C 
ATOM     19  C   UNK A   0       4.836  -1.385  -1.506  0.00  0.00    -0.014 C 
ATOM     20  C   UNK A   0       4.284  -0.860  -0.239  0.00  0.00    +0.011 C 
ATOM     21  C   UNK A   0       4.548   0.647  -0.248  0.00  0.00    +0.020 C 
ENDROOT
BRANCH  10  22
ATOM     22  O   UNK A   0      -2.277   0.301   0.832  0.00  0.00    -0.388 OA
ATOM     23  H   UNK A   0      -3.182  -0.020   0.946  0.00  0.00    +0.210 HD
ENDBRANCH  10  22
BRANCH  17  24
ATOM     24  O   UNK A   0       8.039  -3.923  -1.637  0.00  0.00    -0.384 OA
BRANCH  24  25
ATOM     25  C   UNK A   0       9.169  -4.793  -1.540  0.00  0.00    +0.358 C 
BRANCH  25  26
ATOM     26  C   UNK A   0       9.630  -5.174  -2.923  0.00  0.00    +0.254 C 
ATOM     27  O   UNK A   0       9.049  -4.742  -3.896  0.00  0.00    -0.272 OA
ATOM     28  N   PHE A   1      10.688  -5.994  -3.079  0.00  0.00    -0.299 N 
ATOM     29  H   PHE A   1      11.153  -6.339  -2.301  0.00  0.00    +0.150 HD
BRANCH  28  30
ATOM     30  CA  PHE A   1      11.137  -6.363  -4.424  0.00  0.00    +0.191 C 
BRANCH  30  31
ATOM     31  C   PHE A   1      10.335  -7.541  -4.915  0.00  0.00    +0.376 C 
ATOM     32  O   PHE A   1      10.124  -7.680  -6.107  0.00  0.00    -0.244 OA
ATOM     33  OXT PHE A   1       9.898  -8.355  -4.119  0.00  0.00    -0.244 OA
ENDBRANCH  30  31
BRANCH  30  34
ATOM     34  CB  PHE A   1      12.620  -6.737  -4.382  0.00  0.00    +0.069 C 
BRANCH  34  35
ATOM     35  CG  PHE A   1      13.433  -5.524  -4.010  0.00  0.00    -0.045 A 
ATOM     36  CD2 PHE A   1      13.906  -4.680  -4.997  0.00  0.00    +0.004 A 
ATOM     37  CE2 PHE A   1      14.653  -3.568  -4.655  0.00  0.00    +0.000 A 
ATOM     38  CZ  PHE A   1      14.926  -3.300  -3.326  0.00  0.00    +0.000 A 
ATOM     39  CE1 PHE A   1      14.452  -4.144  -2.340  0.00  0.00    +0.000 A 
ATOM     40  CD1 PHE A   1      13.702  -5.254  -2.681  0.00  0.00    +0.004 A 
ENDBRANCH  34  35
ENDBRANCH  30  34
ENDBRANCH  28  30
ENDBRANCH  25  26
ENDBRANCH  24  25
ENDBRANCH  17  24
TORSDOF 8
