REMARK  Name = ZINC16054892
REMARK  11 active torsions:
REMARK  status: ('A' for Active; 'I' for Inactive)
REMARK    1  A    between atoms: C_1  and  C_2
REMARK    2  A    between atoms: C_5  and  N_8
REMARK    3  A    between atoms: C_9  and  C_33
REMARK    4  A    between atoms: C_10  and  C_26
REMARK    5  A    between atoms: C_11  and  C_16
REMARK    6  A    between atoms: C_20  and  N_22
REMARK    7  A    between atoms: C_26  and  O_28
REMARK    8  A    between atoms: O_28  and  C_29
REMARK    9  A    between atoms: C_29  and  C_30
REMARK   10  A    between atoms: C_30  and  O_31
REMARK   11  A    between atoms: O_31  and  C_32
REMARK                            x       y       z     vdW  Elec       q    Type
REMARK                         _______ _______ _______ _____ _____    ______ ____
ROOT
ATOM      1  N   UNL     1      -1.047   2.648   5.653  0.00  0.00    -0.255 N 
ATOM      2  C   UNL     1      -0.506   1.781   4.747  0.00  0.00    +0.027 C 
ATOM      3  C   UNL     1      -0.997   1.688   3.491  0.00  0.00    +0.078 C 
ATOM      4  C   UNL     1      -2.163   2.582   3.122  0.00  0.00    +0.141 C 
ATOM      5  N   UNL     1      -2.675   3.478   4.173  0.00  0.00    -0.315 N 
ATOM      6  C   UNL     1      -2.080   3.456   5.381  0.00  0.00    +0.142 C 
ATOM      7  S   UNL     1      -2.661   4.497   6.610  0.00  0.00    -0.018 S 
ATOM      8  C   UNL     1       0.657   0.913   5.154  0.00  0.00    +0.062 C 
ATOM      9  H   UNL     1      -3.422   4.072   3.998  0.00  0.00    +0.149 HD
ENDROOT
BRANCH   1  14
ATOM     10  C   UNL     1       1.206   2.835  10.857  0.00  0.00    +0.044 C 
ATOM     11  C   UNL     1       0.608   2.786   9.475  0.00  0.00    -0.050 A 
ATOM     12  C   UNL     1       1.174   3.522   8.451  0.00  0.00    +0.005 A 
ATOM     13  C   UNL     1       0.628   3.479   7.183  0.00  0.00    +0.024 A 
ATOM     14  C   UNL     1      -0.491   2.694   6.937  0.00  0.00    +0.040 A 
ATOM     15  C   UNL     1      -1.061   1.960   7.969  0.00  0.00    +0.024 A 
ATOM     16  C   UNL     1      -0.507   2.003   9.233  0.00  0.00    +0.005 A 
ENDBRANCH   1  14
BRANCH   4  17
ATOM     17  C   UNL     1      -1.746   3.429   1.948  0.00  0.00    -0.020 A 
ATOM     18  C   UNL     1      -0.867   4.480   2.131  0.00  0.00    +0.007 A 
ATOM     19  C   UNL     1      -0.483   5.256   1.054  0.00  0.00    +0.022 A 
ATOM     20  C   UNL     1      -0.980   4.982  -0.208  0.00  0.00    +0.071 A 
ATOM     21  C   UNL     1      -1.859   3.930  -0.391  0.00  0.00    +0.145 A 
ATOM     22  C   UNL     1      -2.238   3.150   0.686  0.00  0.00    +0.040 A 
ATOM     23 CL   UNL     1      -0.499   5.957  -1.562  0.00  0.00    -0.081 Cl
BRANCH  21  24
ATOM     24  N   UNL     1      -2.390   3.635  -1.741  0.00  0.00    +0.058 N 
ATOM     25  O   UNL     1      -3.239   2.773  -1.887  0.00  0.00    -0.126 OA
ATOM     26  O   UNL     1      -1.979   4.255  -2.705  0.00  0.00    -0.126 OA
ENDBRANCH  21  24
ENDBRANCH   4  17
BRANCH   3  27
ATOM     27  C   UNL     1      -0.438   0.790   2.552  0.00  0.00    +0.339 C 
ATOM     28  O   UNL     1      -0.950  -0.298   2.371  0.00  0.00    -0.245 OA
BRANCH  27  29
ATOM     29  O   UNL     1       0.664   1.142   1.856  0.00  0.00    -0.459 OA
BRANCH  29  30
ATOM     30  C   UNL     1       1.111   0.234   0.847  0.00  0.00    +0.260 C 
BRANCH  30  31
ATOM     31  C   UNL     1       2.423   0.744   0.247  0.00  0.00    +0.200 C 
BRANCH  31  32
ATOM     32  O   UNL     1       3.446   0.712   1.243  0.00  0.00    -0.380 OA
ATOM     33  C   UNL     1       4.691   1.271   0.817  0.00  0.00    +0.194 C 
ENDBRANCH  31  32
ENDBRANCH  30  31
ENDBRANCH  29  30
ENDBRANCH  27  29
ENDBRANCH   3  27
TORSDOF 8
