REMARK  Name = ZINC09390366
REMARK  5 active torsions:
REMARK  status: ('A' for Active; 'I' for Inactive)
REMARK    1  A    between atoms: C_5  and  C_7
REMARK    2  A    between atoms: C_10  and  S_12
REMARK    3  A    between atoms: S_12  and  C_13
REMARK    4  A    between atoms: C_13  and  C_14
REMARK    5  A    between atoms: N_19  and  C_20
REMARK                            x       y       z     vdW  Elec       q    Type
REMARK                         _______ _______ _______ _____ _____    ______ ____
ROOT
ATOM      1  C   UNL     1       1.263   2.664   6.941  0.00  0.00    +0.175 C 
ENDROOT
BRANCH   1   2
ATOM      2  C   UNL     1       0.287   2.282   5.858  0.00  0.00    +0.231 C 
ATOM      3  O   UNL     1      -0.846   1.961   6.149  0.00  0.00    -0.274 OA
ATOM      4  N   UNL     1       0.673   2.296   4.567  0.00  0.00    -0.239 N 
ATOM      5  C   UNL     1      -0.200   1.954   3.599  0.00  0.00    +0.306 C 
ATOM      6  O   UNL     1      -1.335   1.633   3.890  0.00  0.00    -0.252 OA
ATOM      7  N   UNL     1       0.186   1.969   2.308  0.00  0.00    -0.296 N 
ATOM      8  H   UNL     1       1.579   2.553   4.335  0.00  0.00    +0.159 HD
ATOM      9  H   UNL     1       1.092   2.226   2.075  0.00  0.00    +0.151 HD
BRANCH   7  10
ATOM     10  C   UNL     1      -0.763   1.597   1.255  0.00  0.00    +0.074 C 
ATOM     11  C   UNL     1      -0.013   1.086   0.008  0.00  0.00    +0.022 C 
ATOM     12  C   UNL     1      -0.784   1.609  -1.216  0.00  0.00    +0.002 C 
ATOM     13  C   UNL     1      -1.978   2.421  -0.670  0.00  0.00    +0.002 C 
ATOM     14  C   UNL     1      -1.531   2.845   0.750  0.00  0.00    +0.022 C 
ENDBRANCH   7  10
ENDBRANCH   1   2
BRANCH   1  15
ATOM     15  S   UNL     1       0.451   2.546   8.554  0.00  0.00    -0.056 S 
BRANCH  15  19
ATOM     16  C   UNL     1       2.974   3.533  11.332  0.00  0.00    +0.250 A 
ATOM     17  N   UNL     1       3.700   3.667  10.249  0.00  0.00    -0.106 NA
ATOM     18  N   UNL     1       2.992   3.364   9.218  0.00  0.00    -0.101 NA
ATOM     19  C   UNL     1       1.781   3.033   9.603  0.00  0.00    +0.278 A 
ATOM     20  O   UNL     1       1.744   3.128  10.945  0.00  0.00    -0.411 OA
BRANCH  16  25
ATOM     21  C   UNL     1       2.954   3.826  15.075  0.00  0.00    +0.001 A 
ATOM     22  C   UNL     1       4.252   4.239  15.320  0.00  0.00    +0.001 A 
ATOM     23  C   UNL     1       5.136   4.423  14.272  0.00  0.00    +0.016 A 
ATOM     24  C   UNL     1       4.727   4.196  12.973  0.00  0.00    +0.030 A 
ATOM     25  C   UNL     1       3.419   3.778  12.719  0.00  0.00    +0.052 A 
ATOM     26  C   UNL     1       2.531   3.600  13.782  0.00  0.00    +0.014 A 
ATOM     27 BR   UNL     1       5.936   4.449  11.541  0.00  0.00    -0.050 Br
ENDBRANCH  16  25
ENDBRANCH  15  19
ENDBRANCH   1  15
TORSDOF 5
