REMARK  Name = ZINC20560374
REMARK  6 active torsions:
REMARK  status: ('A' for Active; 'I' for Inactive)
REMARK    1  A    between atoms: C_1  and  C_2
REMARK    2  A    between atoms: C_4  and  N_21
REMARK    3  A    between atoms: C_6  and  S_9
REMARK    4  A    between atoms: C_7  and  C_8
REMARK    5  A    between atoms: S_9  and  N_12
REMARK    6  A    between atoms: N_12  and  C_13
REMARK                            x       y       z     vdW  Elec       q    Type
REMARK                         _______ _______ _______ _____ _____    ______ ____
ROOT
ATOM      1  S   UNL     1       4.106  -0.867   0.022  0.00  0.00    +0.073 S 
ATOM      2  O   UNL     1       4.215  -1.743  -1.092  0.00  0.00    -0.150 OA
ATOM      3  O   UNL     1       5.078   0.130   0.305  0.00  0.00    -0.150 OA
ENDROOT
BRANCH   1   9
ATOM      4  C   UNL     1      -1.061  -0.902  -0.759  0.00  0.00    +0.044 C 
ATOM      5  C   UNL     1       0.194  -0.109  -0.504  0.00  0.00    -0.044 A 
ATOM      6  C   UNL     1       0.131   1.267  -0.400  0.00  0.00    +0.026 A 
ATOM      7  C   UNL     1       1.289   1.998  -0.166  0.00  0.00    +0.027 A 
ATOM      8  C   UNL     1       2.507   1.342  -0.036  0.00  0.00    +0.051 A 
ATOM      9  C   UNL     1       2.563  -0.034  -0.142  0.00  0.00    +0.113 A 
ATOM     10  C   UNL     1       1.408  -0.758  -0.376  0.00  0.00    -0.021 A 
ATOM     11  C   UNL     1       1.473  -2.260  -0.491  0.00  0.00    +0.046 C 
BRANCH   7  12
ATOM     12  N   UNL     1       1.229   3.389  -0.060  0.00  0.00    -0.358 N 
ATOM     13  H   UNL     1       2.147   3.967   0.125  0.00  0.00    +0.142 HD
ATOM     14  H   UNL     1       0.264   3.908  -0.163  0.00  0.00    +0.142 HD
ENDBRANCH   7  12
ENDBRANCH   1   9
BRANCH   1  15
ATOM     15  N   UNL     1       4.005  -1.825   1.369  0.00  0.00    -0.213 N 
ATOM     16  H   UNL     1       3.996  -2.920   1.266  0.00  0.00    +0.174 HD
BRANCH  15  17
ATOM     17  C   UNL     1       3.932  -1.240   2.639  0.00  0.00    +0.083 A 
ATOM     18  C   UNL     1       3.240  -0.051   2.818  0.00  0.00    +0.030 A 
ATOM     19  C   UNL     1       3.168   0.524   4.073  0.00  0.00    +0.040 A 
ATOM     20  C   UNL     1       3.786  -0.085   5.152  0.00  0.00    +0.126 A 
ATOM     21  C   UNL     1       4.478  -1.272   4.977  0.00  0.00    +0.078 A 
ATOM     22  C   UNL     1       4.548  -1.854   3.724  0.00  0.00    +0.148 A 
ATOM     23  F   UNL     1       5.219  -3.014   3.554  0.00  0.00    -0.203 F 
ATOM     24  F   UNL     1       3.715   0.480   6.377  0.00  0.00    -0.205 F 
ENDBRANCH  15  17
ENDBRANCH   1  15
TORSDOF 4
