REMARK  Name = ZINC58983170
REMARK  8 active torsions:
REMARK  status: ('A' for Active; 'I' for Inactive)
REMARK    1  A    between atoms: C_1  and  C_2
REMARK    2  A    between atoms: C_2  and  C_9
REMARK    3  A    between atoms: C_13  and  N_15
REMARK    4  A    between atoms: C_16  and  C_18
REMARK    5  A    between atoms: C_25  and  C_28
REMARK    6  A    between atoms: C_28  and  C_29
REMARK    7  A    between atoms: C_28  and  C_30
REMARK    8  A    between atoms: C_28  and  C_31
REMARK                            x       y       z     vdW  Elec       q    Type
REMARK                         _______ _______ _______ _____ _____    ______ ____
ROOT
ATOM      1  N   UNL     1       0.216  -0.320  -4.899  0.00  0.00    -0.281 N 
ATOM      2  C   UNL     1       0.860  -0.695  -6.022  0.00  0.00    +0.255 C 
ATOM      3  O   UNL     1       1.847  -1.403  -5.950  0.00  0.00    -0.269 OA
ATOM      4  H   UNL     1      -0.613   0.180  -4.959  0.00  0.00    +0.155 HD
ENDROOT
BRANCH   2   5
ATOM      5  C   UNL     1       0.372  -0.249  -7.330  0.00  0.00    +0.075 A 
ATOM      6  C   UNL     1       0.876  -0.522  -8.589  0.00  0.00    +0.024 A 
ATOM      7  C   UNL     1       0.206   0.037  -9.666  0.00  0.00    -0.036 A 
ATOM      8  C   UNL     1      -0.886   0.803  -9.379  0.00  0.00    -0.006 A 
ATOM      9  S   UNL     1      -1.033   0.779  -7.715  0.00  0.00    -0.088 S 
ATOM     10  C   UNL     1      -1.770   1.511 -10.362  0.00  0.00    +0.043 C 
ATOM     11  C   UNL     1      -1.048   1.559 -11.716  0.00  0.00    +0.009 C 
ATOM     12  C   UNL     1      -0.516   0.160 -12.040  0.00  0.00    -0.001 C 
ATOM     13  C   UNL     1       0.649  -0.179 -11.111  0.00  0.00    +0.040 C 
BRANCH  12  14
ATOM     14  C   UNL     1      -0.034   0.124 -13.492  0.00  0.00    -0.035 C 
ATOM     15  C   UNL     1       1.082   1.153 -13.685  0.00  0.00    +0.011 C 
ATOM     16  C   UNL     1       0.499  -1.273 -13.817  0.00  0.00    +0.011 C 
ATOM     17  C   UNL     1      -1.200   0.455 -14.425  0.00  0.00    +0.011 C 
ENDBRANCH  12  14
ENDBRANCH   2   5
BRANCH   1  22
ATOM     18  C   UNL     1       0.416  -1.249  -1.348  0.00  0.00    -0.014 A 
ATOM     19  C   UNL     1       1.787  -1.307  -1.169  0.00  0.00    +0.006 A 
ATOM     20  C   UNL     1       2.637  -1.039  -2.227  0.00  0.00    +0.002 A 
ATOM     21  C   UNL     1       2.119  -0.711  -3.465  0.00  0.00    +0.023 A 
ATOM     22  C   UNL     1       0.744  -0.651  -3.647  0.00  0.00    +0.034 A 
ATOM     23  C   UNL     1      -0.107  -0.927  -2.584  0.00  0.00    +0.029 A 
BRANCH  18  25
ATOM     24  C   UNL     1      -1.407  -0.340   0.094  0.00  0.00    +0.047 C 
ATOM     25  C   UNL     1      -0.506  -1.542  -0.193  0.00  0.00    +0.135 C 
ATOM     26  C   UNL     1      -1.338  -2.778  -0.472  0.00  0.00    +0.248 C 
ATOM     27  O   UNL     1      -2.133  -2.938  -1.373  0.00  0.00    -0.273 OA
ATOM     28  N   UNL     1      -1.011  -3.663   0.491  0.00  0.00    -0.238 N 
ATOM     29  C   UNL     1      -0.097  -3.163   1.330  0.00  0.00    +0.307 C 
ATOM     30  O   UNL     1       0.355  -3.774   2.279  0.00  0.00    -0.252 OA
ATOM     31  N   UNL     1       0.266  -1.909   1.007  0.00  0.00    -0.282 N 
ATOM     32  H   UNL     1      -1.391  -4.552   0.566  0.00  0.00    +0.159 HD
ATOM     33  H   UNL     1       0.911  -1.354   1.473  0.00  0.00    +0.152 HD
ENDBRANCH  18  25
ENDBRANCH   1  22
TORSDOF 4
