REMARK  Name = ZINC15053817
REMARK  4 active torsions:
REMARK  status: ('A' for Active; 'I' for Inactive)
REMARK    1  A    between atoms: C_14  and  C_15
REMARK    2  A    between atoms: N_19  and  C_23
REMARK    3  A    between atoms: C_26  and  S_29
REMARK    4  A    between atoms: S_29  and  N_32
REMARK                            x       y       z     vdW  Elec       q    Type
REMARK                         _______ _______ _______ _____ _____    ______ ____
ROOT
ATOM      1  C   UNL     1       5.472  -0.803  -0.547  0.00  0.00    +0.029 C 
ATOM      2  C   UNL     1       6.197  -0.598   0.588  0.00  0.00    +0.078 C 
ATOM      3  C   UNL     1       7.527   0.016   0.749  0.00  0.00    +0.263 C 
ATOM      4  O   UNL     1       8.153   0.434  -0.208  0.00  0.00    -0.269 OA
ATOM      5  N   UNL     1       8.009   0.095   1.977  0.00  0.00    -0.215 N 
ATOM      6  C   UNL     1       7.280  -0.385   3.049  0.00  0.00    +0.165 C 
ATOM      7  N   UNL     1       7.602  -0.388   4.313  0.00  0.00    -0.279 NA
ATOM      8  S   UNL     1       5.788  -0.994   2.282  0.00  0.00    -0.049 S 
ATOM      9  H   UNL     1       6.991  -0.760   4.968  0.00  0.00    +0.189 HD
ENDROOT
BRANCH   1  23
ATOM     10  C   UNL     1       0.866   0.312  -2.358  0.00  0.00    +0.001 A 
ATOM     11  C   UNL     1       2.118   0.917  -2.435  0.00  0.00    +0.001 A 
ATOM     12  C   UNL     1       3.211   0.375  -1.831  0.00  0.00    +0.009 A 
ATOM     13  C   UNL     1       3.083  -0.823  -1.110  0.00  0.00    -0.010 A 
ATOM     14  C   UNL     1       1.768  -1.461  -1.027  0.00  0.00    -0.017 A 
ATOM     15  C   UNL     1       0.675  -0.848  -1.676  0.00  0.00    +0.008 A 
ATOM     16  C   UNL     1       1.606  -2.654  -0.319  0.00  0.00    +0.017 A 
ATOM     17  C   UNL     1       2.700  -3.244   0.315  0.00  0.00    -0.017 A 
ATOM     18  C   UNL     1       2.559  -4.449   1.036  0.00  0.00    +0.008 A 
ATOM     19  C   UNL     1       3.644  -4.999   1.642  0.00  0.00    +0.001 A 
ATOM     20  C   UNL     1       4.902  -4.402   1.571  0.00  0.00    +0.001 A 
ATOM     21  C   UNL     1       5.102  -3.240   0.891  0.00  0.00    +0.009 A 
ATOM     22  C   UNL     1       4.023  -2.620   0.243  0.00  0.00    -0.010 A 
ATOM     23  C   UNL     1       4.197  -1.413  -0.472  0.00  0.00    -0.008 A 
ENDBRANCH   1  23
BRANCH   5  24
ATOM     24  C   UNL     1       9.269   0.668   2.194  0.00  0.00    +0.044 A 
ATOM     25  C   UNL     1       9.381   2.031   2.438  0.00  0.00    +0.026 A 
ATOM     26  C   UNL     1      10.624   2.593   2.651  0.00  0.00    +0.030 A 
ATOM     27  C   UNL     1      11.757   1.801   2.622  0.00  0.00    +0.105 A 
ATOM     28  C   UNL     1      11.649   0.444   2.379  0.00  0.00    +0.030 A 
ATOM     29  C   UNL     1      10.408  -0.126   2.171  0.00  0.00    +0.026 A 
BRANCH  27  30
ATOM     30  S   UNL     1      13.341   2.522   2.893  0.00  0.00    +0.056 S 
ATOM     31  O   UNL     1      14.290   1.664   2.274  0.00  0.00    -0.153 OA
ATOM     32  O   UNL     1      13.225   3.898   2.556  0.00  0.00    -0.153 OA
BRANCH  30  33
ATOM     33  N   UNL     1      13.636   2.457   4.521  0.00  0.00    -0.204 NA
ATOM     34  H   UNL     1      14.547   2.382   4.847  0.00  0.00    +0.144 HD
ATOM     35  H   UNL     1      12.899   2.494   5.150  0.00  0.00    +0.144 HD
ENDBRANCH  30  33
ENDBRANCH  27  30
ENDBRANCH   5  24
TORSDOF 4
