REMARK  Name = ZINC13407643
REMARK  7 active torsions:
REMARK  status: ('A' for Active; 'I' for Inactive)
REMARK    1  A    between atoms: C_1  and  C_2
REMARK    2  A    between atoms: C_4  and  C_16
REMARK    3  A    between atoms: C_12  and  C_13
REMARK    4  A    between atoms: C_16  and  S_17
REMARK    5  A    between atoms: S_17  and  C_18
REMARK    6  A    between atoms: C_21  and  C_30
REMARK    7  A    between atoms: N_22  and  C_23
REMARK                            x       y       z     vdW  Elec       q    Type
REMARK                         _______ _______ _______ _____ _____    ______ ____
ROOT
ATOM      1  S   UNL     1      -1.835   1.939  -2.123  0.00  0.00    -0.081 S 
ENDROOT
BRANCH   1   2
ATOM      2  C   UNL     1      -1.732   3.666  -2.460  0.00  0.00    +0.197 A 
ATOM      3  N   UNL     1      -0.733   4.287  -3.045  0.00  0.00    -0.122 NA
ATOM      4  N   UNL     1      -0.983   5.544  -3.135  0.00  0.00    -0.125 NA
ATOM      5  C   UNL     1      -2.162   5.806  -2.612  0.00  0.00    +0.205 A 
ATOM      6  N   UNL     1      -2.681   4.608  -2.168  0.00  0.00    -0.268 N 
BRANCH   6   7
ATOM      7  C   UNL     1      -3.920   4.400  -1.545  0.00  0.00    +0.051 A 
ATOM      8  C   UNL     1      -5.097   4.624  -2.246  0.00  0.00    +0.029 A 
ATOM      9  C   UNL     1      -6.316   4.418  -1.631  0.00  0.00    +0.040 A 
ATOM     10  C   UNL     1      -6.365   3.989  -0.315  0.00  0.00    +0.124 A 
ATOM     11  C   UNL     1      -5.192   3.765   0.386  0.00  0.00    +0.040 A 
ATOM     12  C   UNL     1      -3.971   3.964  -0.228  0.00  0.00    +0.029 A 
ATOM     13  F   UNL     1      -7.559   3.788   0.285  0.00  0.00    -0.205 F 
ENDBRANCH   6   7
BRANCH   5  14
ATOM     14  C   UNL     1      -2.805   7.126  -2.523  0.00  0.00    +0.172 A 
ATOM     15  C   UNL     1      -2.439   8.243  -3.213  0.00  0.00    +0.053 A 
ATOM     16  C   UNL     1      -3.322   9.268  -2.822  0.00  0.00    +0.042 A 
ATOM     17  C   UNL     1      -4.175   8.735  -1.924  0.00  0.00    +0.196 A 
ATOM     18  O   UNL     1      -3.864   7.440  -1.750  0.00  0.00    -0.460 OA
ENDBRANCH   5  14
ENDBRANCH   1   2
BRANCH   1  19
ATOM     19  C   UNL     1      -0.270   1.274  -2.754  0.00  0.00    +0.113 C 
BRANCH  19  23
ATOM     20  C   UNL     1       0.677   1.499  -0.145  0.00  0.00    +0.046 C 
ATOM     21  C   UNL     1       0.638  -0.008  -0.140  0.00  0.00    -0.020 A 
ATOM     22  C   UNL     1       0.212  -0.733  -1.264  0.00  0.00    +0.014 A 
ATOM     23  C   UNL     1      -0.228  -0.215  -2.524  0.00  0.00    -0.022 A 
ATOM     24  C   UNL     1      -0.607  -1.061  -3.509  0.00  0.00    +0.075 A 
ATOM     25  C   UNL     1      -0.574  -2.454  -3.312  0.00  0.00    +0.250 A 
ATOM     26  O   UNL     1      -0.919  -3.206  -4.209  0.00  0.00    -0.268 OA
ATOM     27  N   UNL     1      -0.162  -2.957  -2.132  0.00  0.00    -0.317 N 
ATOM     28  H   UNL     1      -0.141  -3.917  -1.999  0.00  0.00    +0.169 HD
ATOM     29  C   UNL     1       0.224  -2.130  -1.126  0.00  0.00    +0.089 A 
ATOM     30  S   UNL     1       0.777  -2.410   0.428  0.00  0.00    -0.064 S 
ATOM     31  C   UNL     1       1.020  -0.727   0.957  0.00  0.00    +0.106 A 
BRANCH  31  32
ATOM     32  C   UNL     1       1.492  -0.251   2.207  0.00  0.00    +0.393 C 
ATOM     33  O   UNL     1       1.597   0.954   2.403  0.00  0.00    -0.240 OA
ATOM     34  O   UNL     1       1.794  -1.044   3.090  0.00  0.00    -0.240 OA
ENDBRANCH  31  32
ENDBRANCH  19  23
ENDBRANCH   1  19
TORSDOF 6
