REMARK  Name = ZINC67330344
REMARK  8 active torsions:
REMARK  status: ('A' for Active; 'I' for Inactive)
REMARK    1  A    between atoms: C_1  and  C_2
REMARK    2  A    between atoms: C_4  and  C_8
REMARK    3  A    between atoms: C_5  and  C_7
REMARK    4  A    between atoms: C_8  and  C_10
REMARK    5  A    between atoms: C_8  and  N_11
REMARK    6  A    between atoms: C_12  and  C_14
REMARK    7  A    between atoms: C_17  and  C_20
REMARK    8  A    between atoms: C_20  and  N_21
REMARK                            x       y       z     vdW  Elec       q    Type
REMARK                         _______ _______ _______ _____ _____    ______ ____
ROOT
ATOM      1  C   UNL     1      -4.800  -3.793  -1.735  0.00  0.00    +0.037 A 
ATOM      2  C   UNL     1      -5.307  -2.493  -1.703  0.00  0.00    +0.013 A 
ATOM      3  C   UNL     1      -6.546  -2.225  -2.247  0.00  0.00    +0.006 A 
ATOM      4  C   UNL     1      -7.285  -3.242  -2.825  0.00  0.00    -0.030 A 
ATOM      5  C   UNL     1      -6.788  -4.533  -2.860  0.00  0.00    +0.006 A 
ATOM      6  C   UNL     1      -5.548  -4.813  -2.325  0.00  0.00    +0.013 A 
ENDROOT
BRANCH   1   8
ATOM      7  N   UNL     1      -2.752  -3.099  -0.586  0.00  0.00    -0.305 N 
ATOM      8  C   UNL     1      -3.473  -4.086  -1.154  0.00  0.00    +0.245 C 
ATOM      9  O   UNL     1      -3.031  -5.218  -1.188  0.00  0.00    -0.270 OA
ATOM     10  H   UNL     1      -3.105  -2.196  -0.558  0.00  0.00    +0.150 HD
BRANCH   7  11
ATOM     11  C   UNL     1      -1.437  -3.390  -0.009  0.00  0.00    +0.104 C 
ATOM     12  C   UNL     1      -1.609  -3.892   1.426  0.00  0.00    +0.033 C 
BRANCH  11  16
ATOM     13  C   UNL     1      -0.018   1.503   0.010  0.00  0.00    +0.086 C 
ATOM     14  C   UNL     1       0.002  -0.004   0.002  0.00  0.00    +0.103 A 
ATOM     15  C   UNL     1      -1.078  -0.805   0.003  0.00  0.00    +0.050 A 
ATOM     16  C   UNL     1      -0.601  -2.136  -0.007  0.00  0.00    +0.013 A 
ATOM     17  C   UNL     1       0.742  -2.069  -0.013  0.00  0.00    +0.107 A 
ATOM     18  O   UNL     1       1.102  -0.775  -0.013  0.00  0.00    -0.465 OA
ATOM     19  C   UNL     1       1.684  -3.245  -0.023  0.00  0.00    +0.086 C 
ENDBRANCH  11  16
ENDBRANCH   7  11
ENDBRANCH   1   8
BRANCH   4  20
ATOM     20  C   UNL     1      -8.638  -2.943  -3.418  0.00  0.00    +0.141 C 
BRANCH  20  21
ATOM     21  N   UNL     1      -8.484  -2.584  -4.830  0.00  0.00    -0.295 N 
ATOM     22  C   UNL     1      -9.568  -2.274  -5.568  0.00  0.00    +0.297 C 
ATOM     23  O   UNL     1     -10.673  -2.292  -5.063  0.00  0.00    -0.253 OA
ATOM     24  N   UNL     1      -9.426  -1.944  -6.867  0.00  0.00    -0.313 N 
ATOM     25  H   UNL     1      -7.602  -2.569  -5.233  0.00  0.00    +0.151 HD
ATOM     26  H   UNL     1      -8.544  -1.929  -7.271  0.00  0.00    +0.146 HD
ATOM     27  H   UNL     1     -10.206  -1.720  -7.399  0.00  0.00    +0.146 HD
ENDBRANCH  20  21
ENDBRANCH   4  20
TORSDOF 5
