REMARK  Name = ZINC30038387
REMARK  7 active torsions:
REMARK  status: ('A' for Active; 'I' for Inactive)
REMARK    1  A    between atoms: C_4  and  O_33
REMARK    2  A    between atoms: C_5  and  C_7
REMARK    3  A    between atoms: C_13  and  C_16
REMARK    4  A    between atoms: N_18  and  C_19
REMARK    5  A    between atoms: C_23  and  N_25
REMARK    6  A    between atoms: C_26  and  C_28
REMARK    7  A    between atoms: O_33  and  C_34
REMARK                            x       y       z     vdW  Elec       q    Type
REMARK                         _______ _______ _______ _____ _____    ______ ____
ROOT
ATOM      1  C   UNL     1      -0.351   0.017   0.124  0.00  0.00    +0.222 C 
ATOM      2  O   UNL     1      -0.342  -1.091  -0.369  0.00  0.00    -0.275 OA
ATOM      3  N   UNL     1      -1.520   0.661   0.312  0.00  0.00    -0.285 N 
ATOM      4  H   UNL     1      -1.535   1.633   0.828  0.00  0.00    +0.155 HD
ENDROOT
BRANCH   1  11
ATOM      5  C   UNL     1       2.558   3.815   0.488  0.00  0.00    +0.250 C 
ATOM      6  O   UNL     1       1.565   4.470   0.741  0.00  0.00    -0.270 OA
ATOM      7  N   UNL     1       2.435   2.549   0.044  0.00  0.00    -0.297 N 
ATOM      8  C   UNL     1       3.621   1.704  -0.149  0.00  0.00    +0.108 C 
ATOM      9  C   UNL     1       3.428   0.397   0.625  0.00  0.00    +0.020 C 
ATOM     10  C   UNL     1       2.113  -0.257   0.193  0.00  0.00    +0.016 C 
ATOM     11  C   UNL     1       0.945   0.676   0.520  0.00  0.00    +0.093 C 
ATOM     12  C   UNL     1       1.111   1.986  -0.256  0.00  0.00    +0.120 C 
BRANCH   5  17
ATOM     13  C   UNL     1       6.069   4.945  -0.209  0.00  0.00    +0.001 A 
ATOM     14  C   UNL     1       6.416   5.520   1.002  0.00  0.00    +0.004 A 
ATOM     15  C   UNL     1       5.515   5.544   2.048  0.00  0.00    +0.046 A 
ATOM     16  C   UNL     1       4.251   4.995   1.889  0.00  0.00    +0.139 A 
ATOM     17  C   UNL     1       3.898   4.407   0.667  0.00  0.00    +0.079 A 
ATOM     18  C   UNL     1       4.819   4.390  -0.383  0.00  0.00    +0.017 A 
BRANCH  16  19
ATOM     19  O   UNL     1       3.362   5.023   2.914  0.00  0.00    -0.433 OA
BRANCH  19  20
ATOM     20  C   UNL     1       3.793   5.639   4.129  0.00  0.00    +0.541 C 
ATOM     21  F   UNL     1       4.914   4.963   4.622  0.00  0.00    -0.166 F 
ATOM     22  F   UNL     1       4.125   6.975   3.883  0.00  0.00    -0.166 F 
ENDBRANCH  19  20
ENDBRANCH  16  19
ENDBRANCH   5  17
ENDBRANCH   1  11
BRANCH   3  23
ATOM     23  C   UNL     1      -2.713   0.095  -0.150  0.00  0.00    +0.035 A 
ATOM     24  C   UNL     1      -3.705   0.906  -0.687  0.00  0.00    +0.023 A 
ATOM     25  C   UNL     1      -4.882   0.347  -1.147  0.00  0.00    +0.004 A 
ATOM     26  C   UNL     1      -5.080  -1.018  -1.065  0.00  0.00    +0.023 A 
ATOM     27  C   UNL     1      -4.094  -1.833  -0.524  0.00  0.00    +0.035 A 
ATOM     28  C   UNL     1      -2.909  -1.276  -0.066  0.00  0.00    +0.046 A 
BRANCH  27  29
ATOM     29  N   UNL     1      -4.296  -3.215  -0.441  0.00  0.00    -0.281 N 
ATOM     30  C   UNL     1      -5.514  -3.700  -0.130  0.00  0.00    +0.255 C 
ATOM     31  O   UNL     1      -6.457  -2.942  -0.004  0.00  0.00    -0.269 OA
ATOM     32  H   UNL     1      -3.460  -3.905  -0.630  0.00  0.00    +0.155 HD
BRANCH  30  33
ATOM     33  C   UNL     1      -5.702  -5.142   0.057  0.00  0.00    +0.074 A 
ATOM     34  C   UNL     1      -6.857  -5.838   0.376  0.00  0.00    +0.021 A 
ATOM     35  C   UNL     1      -6.754  -7.202   0.492  0.00  0.00    +0.008 A 
ATOM     36  C   UNL     1      -5.548  -7.795   0.292  0.00  0.00    +0.046 A 
ATOM     37  S   UNL     1      -4.506  -6.459  -0.075  0.00  0.00    -0.092 S 
ENDBRANCH  30  33
ENDBRANCH  27  29
ENDBRANCH   3  23
TORSDOF 7
