REMARK  Name = ZINC39327242
REMARK  3 active torsions:
REMARK  status: ('A' for Active; 'I' for Inactive)
REMARK    1  A    between atoms: C_11  and  C_19
REMARK    2  A    between atoms: C_13  and  C_17
REMARK    3  A    between atoms: C_14  and  N_16
REMARK                            x       y       z     vdW  Elec       q    Type
REMARK                         _______ _______ _______ _____ _____    ______ ____
ROOT
ATOM      1  C   UNL     1      -0.016   1.357   0.009  0.00  0.00    +0.001 A 
ATOM      2  C   UNL     1       1.168   2.091   0.002  0.00  0.00    +0.001 A 
ATOM      3  C   UNL     1       2.378   1.468  -0.014  0.00  0.00    +0.009 A 
ATOM      4  C   UNL     1       2.437   0.064  -0.022  0.00  0.00    -0.010 A 
ATOM      5  C   UNL     1       1.233  -0.682  -0.013  0.00  0.00    -0.017 A 
ATOM      6  C   UNL     1       0.002  -0.004   0.002  0.00  0.00    +0.008 A 
ATOM      7  C   UNL     1       1.293  -2.086  -0.019  0.00  0.00    +0.012 A 
ATOM      8  C   UNL     1       2.501  -2.708  -0.033  0.00  0.00    +0.047 A 
ATOM      9  C   UNL     1       3.696  -1.975  -0.042  0.00  0.00    +0.135 A 
ATOM     10  C   UNL     1       3.671  -0.611  -0.038  0.00  0.00    +0.016 A 
ATOM     11  C   UNL     1       4.949   0.186  -0.050  0.00  0.00    +0.105 C 
ATOM     12  C   UNL     1       6.107  -0.683   0.352  0.00  0.00    +0.099 C 
ATOM     13  C   UNL     1       6.006  -2.034   0.327  0.00  0.00    +0.199 C 
ATOM     14  O   UNL     1       4.875  -2.648  -0.056  0.00  0.00    -0.441 OA
ENDROOT
BRANCH  11  15
ATOM     15  C   UNL     1       5.189   0.722  -1.438  0.00  0.00    +0.004 A 
ATOM     16  C   UNL     1       5.307   2.008  -1.847  0.00  0.00    +0.013 A 
ATOM     17  C   UNL     1       5.529   2.268  -3.187  0.00  0.00    +0.028 A 
ATOM     18  C   UNL     1       5.622   1.227  -4.052  0.00  0.00    +0.078 A 
ATOM     19  S   UNL     1       5.401  -0.174  -2.968  0.00  0.00    -0.081 S 
ATOM     20 CL   UNL     1       5.893   1.251  -5.766  0.00  0.00    -0.076 Cl
ENDBRANCH  11  15
BRANCH  13  21
ATOM     21  N   UNL     1       7.086  -2.794   0.702  0.00  0.00    -0.328 N 
ATOM     22  H   UNL     1       7.909  -2.362   0.981  0.00  0.00    +0.145 HD
ATOM     23  H   UNL     1       7.026  -3.762   0.688  0.00  0.00    +0.145 HD
ENDBRANCH  13  21
BRANCH  12  24
ATOM     24  C   UNL     1       7.335  -0.074   0.769  0.00  0.00    +0.101 C 
ATOM     25  N   UNL     1       8.309   0.408   1.099  0.00  0.00    -0.191 NA
ENDBRANCH  12  24
TORSDOF 3
