REMARK  Name = ZINC04428097
REMARK  8 active torsions:
REMARK  status: ('A' for Active; 'I' for Inactive)
REMARK    1  A    between atoms: C_1  and  C_2
REMARK    2  A    between atoms: C_5  and  N_8
REMARK    3  A    between atoms: N_8  and  S_25
REMARK    4  A    between atoms: N_14  and  S_15
REMARK    5  A    between atoms: S_15  and  C_18
REMARK    6  A    between atoms: C_21  and  C_24
REMARK    7  A    between atoms: S_25  and  C_28
REMARK    8  A    between atoms: C_31  and  C_34
REMARK                            x       y       z     vdW  Elec       q    Type
REMARK                         _______ _______ _______ _____ _____    ______ ____
ROOT
ATOM      1  N   UNL     1       0.050   1.659  -0.041  0.00  0.00    -0.123 N 
ATOM      2  C   UNL     1      -1.186   2.193   0.017  0.00  0.00    +0.334 C 
ATOM      3  O   UNL     1      -1.325   3.399   0.074  0.00  0.00    -0.250 OA
ATOM      4  N   UNL     1      -2.268   1.390   0.011  0.00  0.00    -0.221 N 
ATOM      5  C   UNL     1      -3.504   1.925  -0.029  0.00  0.00    +0.326 C 
ATOM      6  O   UNL     1      -3.643   3.132  -0.059  0.00  0.00    -0.251 OA
ATOM      7  N   UNL     1      -4.586   1.121  -0.035  0.00  0.00    -0.169 N 
ATOM      8  H   UNL     1      -2.157   0.426   0.035  0.00  0.00    +0.161 HD
ATOM      9  H   UNL     1      -4.475   0.158  -0.010  0.00  0.00    +0.178 HD
ENDROOT
BRANCH   1  14
ATOM     10  C   UNL     1       4.610   5.018   0.300  0.00  0.00    +0.044 C 
ATOM     11  C   UNL     1       3.399   4.125   0.210  0.00  0.00    -0.050 A 
ATOM     12  C   UNL     1       3.210   3.122   1.142  0.00  0.00    +0.005 A 
ATOM     13  C   UNL     1       2.101   2.302   1.061  0.00  0.00    +0.025 A 
ATOM     14  C   UNL     1       1.175   2.488   0.043  0.00  0.00    +0.061 A 
ATOM     15  C   UNL     1       1.370   3.493  -0.894  0.00  0.00    +0.025 A 
ATOM     16  C   UNL     1       2.478   4.313  -0.805  0.00  0.00    +0.005 A 
ENDBRANCH   1  14
BRANCH   7  17
ATOM     17  S   UNL     1      -6.106   1.779  -0.083  0.00  0.00    +0.076 S 
ATOM     18  O   UNL     1      -7.019   0.690  -0.106  0.00  0.00    -0.150 OA
ATOM     19  O   UNL     1      -6.145   2.785   0.919  0.00  0.00    -0.150 OA
BRANCH  17  20
ATOM     20  C   UNL     1      -6.267   2.604  -1.632  0.00  0.00    +0.109 A 
ATOM     21  C   UNL     1      -5.915   3.936  -1.745  0.00  0.00    +0.029 A 
ATOM     22  C   UNL     1      -6.038   4.582  -2.961  0.00  0.00    +0.005 A 
ATOM     23  C   UNL     1      -6.521   3.899  -4.061  0.00  0.00    -0.050 A 
ATOM     24  C   UNL     1      -6.877   2.568  -3.947  0.00  0.00    +0.005 A 
ATOM     25  C   UNL     1      -6.750   1.921  -2.732  0.00  0.00    +0.029 A 
ATOM     26  C   UNL     1      -6.659   4.604  -5.386  0.00  0.00    +0.044 C 
ENDBRANCH  17  20
ENDBRANCH   7  17
BRANCH   1  27
ATOM     27  S   UNL     1       0.238   0.024  -0.218  0.00  0.00    +0.082 S 
ATOM     28  O   UNL     1       1.619  -0.250  -0.024  0.00  0.00    -0.149 OA
ATOM     29  O   UNL     1      -0.777  -0.589   0.566  0.00  0.00    -0.149 OA
BRANCH  27  30
ATOM     30  C   UNL     1      -0.121  -0.363  -1.899  0.00  0.00    +0.109 A 
ATOM     31  C   UNL     1      -1.383  -0.803  -2.252  0.00  0.00    +0.029 A 
ATOM     32  C   UNL     1      -1.666  -1.103  -3.572  0.00  0.00    +0.005 A 
ATOM     33  C   UNL     1      -0.684  -0.971  -4.536  0.00  0.00    -0.050 A 
ATOM     34  C   UNL     1       0.579  -0.535  -4.182  0.00  0.00    +0.005 A 
ATOM     35  C   UNL     1       0.861  -0.232  -2.863  0.00  0.00    +0.029 A 
ATOM     36  C   UNL     1      -0.992  -1.302  -5.974  0.00  0.00    +0.044 C 
ENDBRANCH  27  30
ENDBRANCH   1  27
TORSDOF 5
