REMARK  Name = ZINC50309726
REMARK  9 active torsions:
REMARK  status: ('A' for Active; 'I' for Inactive)
REMARK    1  A    between atoms: C_1  and  C_2
REMARK    2  A    between atoms: C_4  and  C_22
REMARK    3  A    between atoms: C_5  and  N_9
REMARK    4  A    between atoms: C_6  and  C_8
REMARK    5  A    between atoms: C_10  and  C_12
REMARK    6  A    between atoms: C_13  and  N_21
REMARK    7  A    between atoms: C_14  and  C_18
REMARK    8  A    between atoms: C_18  and  C_19
REMARK    9  A    between atoms: C_18  and  C_20
REMARK                            x       y       z     vdW  Elec       q    Type
REMARK                         _______ _______ _______ _____ _____    ______ ____
ROOT
ATOM      1  N   UNL     1      -0.297  -4.140  -0.271  0.00  0.00    -0.280 N 
ATOM      2  C   UNL     1      -0.267  -4.908   0.836  0.00  0.00    +0.270 C 
ATOM      3  O   UNL     1      -0.033  -4.404   1.918  0.00  0.00    -0.268 OA
ATOM      4  H   UNL     1      -0.419  -4.550  -1.142  0.00  0.00    +0.155 HD
ENDROOT
BRANCH   1   9
ATOM      5  C   UNL     1       0.284   1.486   0.157  0.00  0.00    +0.044 C 
ATOM      6  C   UNL     1       0.129  -0.009   0.043  0.00  0.00    -0.050 A 
ATOM      7  C   UNL     1       1.120  -0.844   0.527  0.00  0.00    +0.008 A 
ATOM      8  C   UNL     1       0.982  -2.214   0.424  0.00  0.00    -0.029 A 
ATOM      9  C   UNL     1      -0.154  -2.753  -0.165  0.00  0.00    +0.040 A 
ATOM     10  C   UNL     1      -1.148  -1.912  -0.649  0.00  0.00    -0.029 A 
ATOM     11  C   UNL     1      -1.005  -0.543  -0.539  0.00  0.00    +0.008 A 
ATOM     12  C   UNL     1      -2.382  -2.493  -1.290  0.00  0.00    +0.045 C 
ATOM     13  C   UNL     1       2.062  -3.123   0.950  0.00  0.00    +0.045 C 
ENDBRANCH   1   9
BRANCH   2  14
ATOM     14  C   UNL     1      -0.517  -6.357   0.736  0.00  0.00    +0.168 A 
ATOM     15  C   UNL     1      -0.524  -7.288   1.807  0.00  0.00    +0.078 A 
ATOM     16  C   UNL     1      -0.798  -8.492   1.238  0.00  0.00    +0.060 A 
ATOM     17  N   UNL     1      -0.944  -8.278  -0.096  0.00  0.00    -0.279 N 
ATOM     18  H   UNL     1      -1.144  -8.966  -0.749  0.00  0.00    +0.189 HD
ATOM     19  N   UNL     1      -0.783  -7.033  -0.366  0.00  0.00    -0.167 NA
BRANCH  16  20
ATOM     20  C   UNL     1      -0.917  -9.813   1.952  0.00  0.00    +0.033 C 
ATOM     21  C   UNL     1      -2.317 -10.388   1.732  0.00  0.00    +0.014 C 
ATOM     22  C   UNL     1       0.127 -10.787   1.400  0.00  0.00    +0.014 C 
ENDBRANCH  16  20
BRANCH  15  23
ATOM     23  N   UNL     1      -0.296  -7.022   3.165  0.00  0.00    -0.355 N 
ATOM     24  H   UNL     1      -0.109  -6.116   3.457  0.00  0.00    +0.142 HD
ATOM     25  H   UNL     1      -0.327  -7.744   3.812  0.00  0.00    +0.142 HD
ENDBRANCH  15  23
ENDBRANCH   2  14
TORSDOF 4
