REMARK  Name = ZINC60344421
REMARK  10 active torsions:
REMARK  status: ('A' for Active; 'I' for Inactive)
REMARK    1  A    between atoms: C_1  and  N_2
REMARK    2  A    between atoms: N_5  and  C_8
REMARK    3  A    between atoms: C_8  and  C_9
REMARK    4  A    between atoms: C_9  and  C_11
REMARK    5  A    between atoms: C_9  and  N_19
REMARK    6  A    between atoms: C_14  and  O_17
REMARK    7  A    between atoms: O_17  and  C_18
REMARK    8  A    between atoms: N_22  and  C_23
REMARK    9  A    between atoms: C_28  and  S_29
REMARK   10  A    between atoms: S_29  and  C_30
REMARK                            x       y       z     vdW  Elec       q    Type
REMARK                         _______ _______ _______ _____ _____    ______ ____
ROOT
ATOM      1  C   UNL     1       2.391  -4.466   1.085  0.00  0.00    +0.119 C 
ENDROOT
BRANCH   1   2
ATOM      2  C   UNL     1       2.574  -5.960   1.009  0.00  0.00    -0.026 A 
ATOM      3  C   UNL     1       3.470  -6.500   0.105  0.00  0.00    +0.009 A 
ATOM      4  C   UNL     1       3.639  -7.869   0.032  0.00  0.00    +0.046 A 
ATOM      5  C   UNL     1       2.909  -8.702   0.867  0.00  0.00    +0.120 A 
ATOM      6  C   UNL     1       2.010  -8.158   1.773  0.00  0.00    +0.046 A 
ATOM      7  C   UNL     1       1.849  -6.788   1.846  0.00  0.00    +0.009 A 
BRANCH   5   8
ATOM      8  O   UNL     1       3.073 -10.049   0.797  0.00  0.00    -0.495 OA
ATOM      9  C   UNL     1       2.288 -10.846   1.687  0.00  0.00    +0.277 C 
ENDBRANCH   5   8
ENDBRANCH   1   2
BRANCH   1  10
ATOM     10  N   UNL     1       3.692  -3.807   0.947  0.00  0.00    -0.291 N 
ATOM     11  C   UNL     1       4.479  -3.636   2.028  0.00  0.00    +0.304 C 
ATOM     12  O   UNL     1       4.110  -4.029   3.118  0.00  0.00    -0.252 OA
ATOM     13  N   UNL     1       5.676  -3.030   1.901  0.00  0.00    -0.268 N 
ATOM     14  H   UNL     1       3.987  -3.493   0.078  0.00  0.00    +0.151 HD
ATOM     15  H   UNL     1       6.000  -2.775   1.022  0.00  0.00    +0.156 HD
BRANCH  13  16
ATOM     16  C   UNL     1       6.454  -2.768   3.037  0.00  0.00    +0.048 A 
ATOM     17  C   UNL     1       6.445  -3.653   4.104  0.00  0.00    +0.024 A 
ATOM     18  C   UNL     1       7.212  -3.393   5.225  0.00  0.00    +0.002 A 
ATOM     19  C   UNL     1       7.990  -2.251   5.286  0.00  0.00    +0.001 A 
ATOM     20  C   UNL     1       8.006  -1.364   4.227  0.00  0.00    +0.016 A 
ATOM     21  C   UNL     1       7.243  -1.620   3.096  0.00  0.00    +0.029 A 
BRANCH  21  22
ATOM     22  S   UNL     1       7.267  -0.494   1.741  0.00  0.00    -0.120 S 
BRANCH  22  23
ATOM     23  C   UNL     1       8.410   0.810   2.273  0.00  0.00    +0.051 C 
ATOM     24  C   UNL     1       7.798   1.603   3.446  0.00  0.00    +0.014 C 
ATOM     25  C   UNL     1       8.243   3.065   3.189  0.00  0.00    +0.001 C 
ATOM     26  C   UNL     1       8.146   3.185   1.647  0.00  0.00    +0.001 C 
ATOM     27  C   UNL     1       8.632   1.816   1.130  0.00  0.00    +0.014 C 
ENDBRANCH  22  23
ENDBRANCH  21  22
ENDBRANCH  13  16
ENDBRANCH   1  10
BRANCH   1  28
ATOM     28  C   UNL     1       1.464  -4.007  -0.042  0.00  0.00    +0.111 C 
BRANCH  28  33
ATOM     29  C   UNL     1      -0.036   1.424  -0.029  0.00  0.00    -0.096 C 
ATOM     30  N   UNL     1      -0.009  -0.044  -0.030  0.00  0.00    +0.379 N 
ATOM     31  C   UNL     1       0.684  -0.520  -1.235  0.00  0.00    -0.064 C 
ATOM     32  C   UNL     1       0.697  -2.050  -1.246  0.00  0.00    +0.066 C 
ATOM     33  N   UNL     1       1.381  -2.540  -0.041  0.00  0.00    -0.304 NA
ATOM     34  C   UNL     1       0.714  -2.051   1.174  0.00  0.00    +0.066 C 
ATOM     35  C   UNL     1       0.701  -0.521   1.165  0.00  0.00    -0.064 C 
ATOM     36  H   UNL     1      -0.953  -0.399  -0.024  0.00  0.00    -0.082 HD
ENDBRANCH  28  33
ENDBRANCH   1  28
TORSDOF 8
