REMARK  Name = ZINC31211417
REMARK  6 active torsions:
REMARK  status: ('A' for Active; 'I' for Inactive)
REMARK    1  A    between atoms: C_1  and  C_2
REMARK    2  A    between atoms: C_5  and  C_7
REMARK    3  A    between atoms: C_9  and  C_28
REMARK    4  A    between atoms: C_10  and  C_12
REMARK    5  A    between atoms: N_14  and  N_15
REMARK    6  A    between atoms: C_21  and  C_24
REMARK                            x       y       z     vdW  Elec       q    Type
REMARK                         _______ _______ _______ _____ _____    ______ ____
ROOT
ATOM      1  C   UNL     1      -6.927   3.790   5.319  0.00  0.00    +0.269 C 
ATOM      2  O   UNL     1      -8.072   3.850   4.910  0.00  0.00    -0.268 OA
ATOM      3  N   UNL     1      -6.649   4.129   6.593  0.00  0.00    -0.219 N 
ATOM      4  H   UNL     1      -5.614   4.074   6.963  0.00  0.00    +0.174 HD
ENDROOT
BRANCH   3   5
ATOM      5  N   UNL     1      -7.676   4.551   7.447  0.00  0.00    -0.137 N 
ATOM      6  C   UNL     1      -8.205   3.792   8.430  0.00  0.00    +0.263 C 
ATOM      7  O   UNL     1      -7.893   2.660   8.731  0.00  0.00    -0.271 OA
ATOM      8  C   UNL     1      -9.267   4.652   9.076  0.00  0.00    +0.114 C 
ATOM      9  C   UNL     1      -8.932   4.896  10.544  0.00  0.00    +0.035 C 
ATOM     10  C   UNL     1     -10.003   5.791  11.172  0.00  0.00    +0.006 C 
ATOM     11  C   UNL     1     -11.369   5.112  11.049  0.00  0.00    -0.014 C 
ATOM     12  C   UNL     1     -11.701   4.897   9.571  0.00  0.00    +0.006 C 
ATOM     13  C   UNL     1     -10.637   3.999   8.936  0.00  0.00    +0.035 C 
ATOM     14  C   UNL     1     -12.439   6.000  11.688  0.00  0.00    +0.007 C 
ATOM     15  N   UNL     1      -9.216   5.910   8.320  0.00  0.00    -0.284 N 
ATOM     16  C   UNL     1      -8.252   5.758   7.392  0.00  0.00    +0.326 C 
ATOM     17  O   UNL     1      -7.942   6.619   6.592  0.00  0.00    -0.251 OA
ATOM     18  H   UNL     1      -9.897   6.734   8.577  0.00  0.00    +0.151 HD
ENDBRANCH   3   5
BRANCH   1  22
ATOM     19  C   UNL     1      -3.638   2.601   3.117  0.00  0.00    +0.144 A 
ATOM     20  N   UNL     1      -4.813   2.599   2.489  0.00  0.00    -0.240 NA
ATOM     21  C   UNL     1      -5.910   2.957   3.095  0.00  0.00    +0.058 A 
ATOM     22  C   UNL     1      -5.853   3.349   4.427  0.00  0.00    +0.098 A 
ATOM     23  S   UNL     1      -4.104   3.159   4.750  0.00  0.00    -0.059 S 
ATOM     24  C   UNL     1      -7.225   2.946   2.359  0.00  0.00    +0.067 C 
BRANCH  19  29
ATOM     25  C   UNL     1      -0.013   1.086   0.008  0.00  0.00    +0.086 C 
ATOM     26  C   UNL     1      -0.718   1.572   1.248  0.00  0.00    +0.103 A 
ATOM     27  C   UNL     1      -0.131   1.835   2.434  0.00  0.00    +0.045 A 
ATOM     28  C   UNL     1      -1.144   2.261   3.311  0.00  0.00    +0.052 A 
ATOM     29  C   UNL     1      -2.311   2.235   2.605  0.00  0.00    +0.160 A 
ATOM     30  O   UNL     1      -2.033   1.819   1.353  0.00  0.00    -0.458 OA
ENDBRANCH  19  29
ENDBRANCH   1  22
TORSDOF 3
