REMARK  Name = ZINC09298397
REMARK  5 active torsions:
REMARK  status: ('A' for Active; 'I' for Inactive)
REMARK    1  A    between atoms: C_1  and  O_2
REMARK    2  A    between atoms: O_2  and  C_3
REMARK    3  A    between atoms: C_6  and  C_8
REMARK    4  A    between atoms: C_12  and  N_13
REMARK    5  A    between atoms: C_14  and  C_16
REMARK                            x       y       z     vdW  Elec       q    Type
REMARK                         _______ _______ _______ _____ _____    ______ ____
ROOT
ATOM      1  C   UNL     1      -1.447   3.389   0.033  0.00  0.00    +0.069 A 
ATOM      2  C   UNL     1      -2.829   3.850   0.033  0.00  0.00    -0.023 A 
ATOM      3  C   UNL     1      -3.757   2.870   0.037  0.00  0.00    -0.004 A 
ATOM      4  S   UNL     1      -2.826   1.361   0.023  0.00  0.00    -0.077 S 
ATOM      5  C   UNL     1      -1.225   2.019   0.019  0.00  0.00    +0.085 A 
ATOM      6  C   UNL     1      -5.246   3.019   0.063  0.00  0.00    +0.043 C 
ATOM      7  C   UNL     1      -5.672   4.032  -1.008  0.00  0.00    +0.005 C 
ATOM      8  C   UNL     1      -5.669   5.424  -0.383  0.00  0.00    +0.001 C 
ATOM      9  C   UNL     1      -4.568   5.524   0.670  0.00  0.00    +0.005 C 
ATOM     10  C   UNL     1      -3.198   5.329   0.029  0.00  0.00    +0.037 C 
ENDROOT
BRANCH   1  14
ATOM     11  C   UNL     1       1.209   5.634   1.226  0.00  0.00    +0.407 C 
ATOM     12  O   UNL     1       1.672   6.039   0.178  0.00  0.00    -0.226 OA
ATOM     13  N   UNL     1       0.182   4.761   1.216  0.00  0.00    -0.217 N 
ATOM     14  C   UNL     1      -0.331   4.338   0.044  0.00  0.00    +0.255 C 
ATOM     15  O   UNL     1       0.133   4.743  -1.006  0.00  0.00    -0.270 OA
ATOM     16  H   UNL     1      -0.188   4.438   2.052  0.00  0.00    +0.161 HD
BRANCH  11  18
ATOM     17  C   UNL     1       2.826   6.998   2.330  0.00  0.00    +0.282 C 
ATOM     18  O   UNL     1       1.721   6.058   2.396  0.00  0.00    -0.453 OA
ENDBRANCH  11  18
ENDBRANCH   1  14
BRANCH   5  19
ATOM     19  N   UNL     1      -0.016   1.344   0.009  0.00  0.00    -0.275 N 
ATOM     20  C   UNL     1       0.002  -0.004   0.002  0.00  0.00    +0.255 C 
ATOM     21  O   UNL     1      -1.044  -0.627   0.009  0.00  0.00    -0.269 OA
ATOM     22  H   UNL     1       0.817   1.840   0.004  0.00  0.00    +0.156 HD
BRANCH  20  23
ATOM     23  C   UNL     1       1.280  -0.719  -0.014  0.00  0.00    +0.075 A 
ATOM     24  C   UNL     1       1.517  -2.085  -0.024  0.00  0.00    +0.022 A 
ATOM     25  C   UNL     1       2.827  -2.492  -0.039  0.00  0.00    +0.024 A 
ATOM     26  C   UNL     1       3.813  -1.555  -0.044  0.00  0.00    +0.056 A 
ATOM     27  S   UNL     1       2.937  -0.059  -0.034  0.00  0.00    -0.077 S 
ATOM     28 BR   UNL     1       5.686  -1.820  -0.066  0.00  0.00    -0.043 Br
ENDBRANCH  20  23
ENDBRANCH   5  19
TORSDOF 4
