REMARK  Name = ZINC13657884
REMARK  5 active torsions:
REMARK  status: ('A' for Active; 'I' for Inactive)
REMARK    1  A    between atoms: C_2  and  C_10
REMARK    2  A    between atoms: C_5  and  O_8
REMARK    3  A    between atoms: N_11  and  N_12
REMARK    4  A    between atoms: N_14  and  C_15
REMARK    5  A    between atoms: C_15  and  C_16
REMARK                            x       y       z     vdW  Elec       q    Type
REMARK                         _______ _______ _______ _____ _____    ______ ____
ROOT
ATOM      1  C   UNL     1       1.170   3.562   0.009  0.00  0.00    +0.140 C 
ATOM      2  N   UNL     1       2.287   4.223   0.002  0.00  0.00    -0.180 NA
ENDROOT
BRANCH   1   4
ATOM      3  C   UNL     1      -0.017   1.375   0.010  0.00  0.00    +0.028 A 
ATOM      4  C   UNL     1       1.185   2.088   0.002  0.00  0.00    -0.003 A 
ATOM      5  C   UNL     1       2.401   1.400  -0.013  0.00  0.00    +0.028 A 
ATOM      6  C   UNL     1       2.411   0.021  -0.021  0.00  0.00    +0.061 A 
ATOM      7  C   UNL     1       1.213  -0.684  -0.013  0.00  0.00    +0.145 A 
ATOM      8  C   UNL     1       0.002  -0.004   0.002  0.00  0.00    +0.061 A 
ATOM      9 BR   UNL     1      -1.623  -0.970   0.012  0.00  0.00    -0.046 Br
ATOM     10 BR   UNL     1       4.055  -0.912  -0.042  0.00  0.00    -0.046 Br
BRANCH   7  11
ATOM     11  O   UNL     1       1.227  -2.043  -0.021  0.00  0.00    -0.505 OA
ATOM     12  H   UNL     1       1.240  -2.441   0.861  0.00  0.00    +0.292 HD
ENDBRANCH   7  11
ENDBRANCH   1   4
BRANCH   2  13
ATOM     13  N   UNL     1       2.273   5.623   0.010  0.00  0.00    -0.258 N 
ATOM     14  C   UNL     1       3.450   6.319   0.002  0.00  0.00    +0.159 C 
ATOM     15  N   UNL     1       3.436   7.687   0.009  0.00  0.00    -0.321 N 
ATOM     16  S   UNL     1       4.896   5.504  -0.015  0.00  0.00    -0.015 SA
ATOM     17  H   UNL     1       2.591   8.163   0.019  0.00  0.00    +0.148 HD
ATOM     18  H   UNL     1       1.428   6.100   0.020  0.00  0.00    +0.191 HD
BRANCH  15  19
ATOM     19  C   UNL     1       4.697   8.432   0.001  0.00  0.00    +0.135 C 
BRANCH  19  20
ATOM     20  C   UNL     1       4.402   9.934   0.011  0.00  0.00    +0.135 C 
ATOM     21  C   UNL     1       5.723  10.742  -0.032  0.00  0.00    +0.035 C 
ATOM     22  C   UNL     1       5.231  12.078  -0.651  0.00  0.00    +0.031 C 
ATOM     23  C   UNL     1       4.125  11.604  -1.618  0.00  0.00    +0.160 C 
ATOM     24  O   UNL     1       3.690  10.310  -1.178  0.00  0.00    -0.375 OA
ENDBRANCH  19  20
ENDBRANCH  15  19
ENDBRANCH   2  13
TORSDOF 5
