REMARK  Name = ZINC61079993
REMARK  3 active torsions:
REMARK  status: ('A' for Active; 'I' for Inactive)
REMARK    1  A    between atoms: C_3  and  C_7
REMARK    2  A    between atoms: C_13  and  C_15
REMARK    3  A    between atoms: C_17  and  N_23
REMARK                            x       y       z     vdW  Elec       q    Type
REMARK                         _______ _______ _______ _____ _____    ______ ____
ROOT
ATOM      1  C   UNL     1       3.721   0.770  -0.090  0.00  0.00    +0.123 C 
ATOM      2  C   UNL     1       4.400   0.824   1.295  0.00  0.00    +0.030 C 
ATOM      3  C   UNL     1       5.662  -0.057   1.097  0.00  0.00    +0.021 C 
ATOM      4  C   UNL     1       5.132  -1.149   0.135  0.00  0.00    +0.109 C 
ATOM      5  N   UNL     1       4.207  -0.438  -0.772  0.00  0.00    -0.289 N 
ATOM      6  C   UNL     1       3.865  -0.830  -2.015  0.00  0.00    +0.248 C 
ATOM      7  O   UNL     1       3.027  -0.209  -2.639  0.00  0.00    -0.270 OA
ENDROOT
BRANCH   6   8
ATOM      8  C   UNL     1       4.508  -2.014  -2.619  0.00  0.00    +0.053 A 
ATOM      9  C   UNL     1       4.723  -3.162  -1.853  0.00  0.00    +0.039 A 
ATOM     10  C   UNL     1       5.326  -4.268  -2.425  0.00  0.00    +0.061 A 
ATOM     11  C   UNL     1       5.715  -4.236  -3.762  0.00  0.00    +0.145 A 
ATOM     12  C   UNL     1       5.502  -3.099  -4.522  0.00  0.00    +0.056 A 
ATOM     13  C   UNL     1       4.896  -1.992  -3.961  0.00  0.00    +0.033 A 
ATOM     14 BR   UNL     1       4.600  -0.445  -5.006  0.00  0.00    -0.049 Br
ATOM     15  F   UNL     1       6.303  -5.318  -4.319  0.00  0.00    -0.204 F 
BRANCH  10  16
ATOM     16  N   UNL     1       5.544  -5.420  -1.661  0.00  0.00    -0.356 N 
ATOM     17  H   UNL     1       5.273  -5.442  -0.730  0.00  0.00    +0.142 HD
ATOM     18  H   UNL     1       5.966  -6.196  -2.062  0.00  0.00    +0.142 HD
ENDBRANCH  10  16
ENDBRANCH   6   8
BRANCH   1  21
ATOM     19  C   UNL     1       0.080   1.242   0.280  0.00  0.00    +0.019 A 
ATOM     20  C   UNL     1       1.383   1.751   0.114  0.00  0.00    +0.024 A 
ATOM     21  C   UNL     1       2.225   0.699   0.075  0.00  0.00    +0.037 A 
ATOM     22  N   UNL     1       1.490  -0.441   0.211  0.00  0.00    -0.363 N 
ATOM     23  H   UNL     1       1.843  -1.344   0.217  0.00  0.00    +0.165 HD
ATOM     24  C   UNL     1       0.175  -0.101   0.336  0.00  0.00    +0.083 A 
ENDBRANCH   1  21
TORSDOF 3
