REMARK  Name = ZINC35729677
REMARK  10 active torsions:
REMARK  status: ('A' for Active; 'I' for Inactive)
REMARK    1  A    between atoms: C_1  and  C_2
REMARK    2  A    between atoms: C_2  and  N_3
REMARK    3  A    between atoms: C_4  and  C_32
REMARK    4  A    between atoms: C_5  and  C_27
REMARK    5  A    between atoms: C_6  and  C_11
REMARK    6  A    between atoms: C_15  and  N_17
REMARK    7  A    between atoms: C_18  and  C_20
REMARK    8  A    between atoms: C_27  and  O_29
REMARK    9  A    between atoms: O_29  and  C_30
REMARK   10  A    between atoms: C_30  and  C_31
REMARK                            x       y       z     vdW  Elec       q    Type
REMARK                         _______ _______ _______ _____ _____    ______ ____
ROOT
ATOM      1  C   UNL     1      -5.368  -1.102  -0.024  0.00  0.00    -0.021 A 
ATOM      2  C   UNL     1      -5.494   0.255  -0.256  0.00  0.00    +0.006 A 
ATOM      3  C   UNL     1      -6.745   0.817  -0.432  0.00  0.00    +0.002 A 
ATOM      4  C   UNL     1      -7.874   0.023  -0.377  0.00  0.00    +0.023 A 
ATOM      5  C   UNL     1      -7.752  -1.341  -0.143  0.00  0.00    +0.034 A 
ATOM      6  C   UNL     1      -6.492  -1.902   0.028  0.00  0.00    +0.029 A 
ENDROOT
BRANCH   1  10
ATOM      7  N   UNL     1      -1.672  -0.333   0.735  0.00  0.00    -0.286 N 
ATOM      8  C   UNL     1      -2.419  -0.768   1.790  0.00  0.00    +0.021 C 
ATOM      9  C   UNL     1      -3.571  -1.448   1.596  0.00  0.00    +0.078 C 
ATOM     10  C   UNL     1      -4.003  -1.710   0.168  0.00  0.00    +0.141 C 
ATOM     11  N   UNL     1      -3.125  -1.198  -0.899  0.00  0.00    -0.315 N 
ATOM     12  C   UNL     1      -2.008  -0.532  -0.546  0.00  0.00    +0.138 C 
ATOM     13  S   UNL     1      -0.982   0.074  -1.775  0.00  0.00    -0.018 S 
ATOM     14  C   UNL     1      -1.953  -0.486   3.195  0.00  0.00    +0.061 C 
ATOM     15  H   UNL     1      -3.348  -1.334  -1.833  0.00  0.00    +0.149 HD
BRANCH   7  17
ATOM     16  C   UNL     1       0.703  -0.598   1.255  0.00  0.00    +0.025 C 
ATOM     17  C   UNL     1      -0.434   0.398   1.019  0.00  0.00    +0.109 C 
ENDBRANCH   7  17
BRANCH   9  18
ATOM     18  C   UNL     1      -4.346  -1.900   2.689  0.00  0.00    +0.339 C 
ATOM     19  O   UNL     1      -3.979  -1.678   3.828  0.00  0.00    -0.245 OA
BRANCH  18  20
ATOM     20  O   UNL     1      -5.492  -2.577   2.469  0.00  0.00    -0.462 OA
BRANCH  20  21
ATOM     21  C   UNL     1      -6.225  -3.003   3.619  0.00  0.00    +0.229 C 
ATOM     22  C   UNL     1      -7.485  -3.748   3.174  0.00  0.00    +0.048 C 
ENDBRANCH  20  21
ENDBRANCH  18  20
ENDBRANCH   9  18
ENDBRANCH   1  10
BRANCH   5  23
ATOM     23  N   UNL     1      -8.892  -2.147  -0.086  0.00  0.00    -0.281 N 
ATOM     24  C   UNL     1     -10.046  -1.649   0.402  0.00  0.00    +0.248 C 
ATOM     25  O   UNL     1     -10.072  -0.532   0.880  0.00  0.00    -0.270 OA
ATOM     26  H   UNL     1      -8.854  -3.065  -0.397  0.00  0.00    +0.155 HD
BRANCH  24  27
ATOM     27  C   UNL     1     -11.280  -2.462   0.355  0.00  0.00    +0.038 A 
ATOM     28  C   UNL     1     -11.252  -3.748  -0.189  0.00  0.00    +0.013 A 
ATOM     29  C   UNL     1     -12.407  -4.501  -0.229  0.00  0.00    +0.002 A 
ATOM     30  C   UNL     1     -13.591  -3.986   0.267  0.00  0.00    +0.015 A 
ATOM     31  C   UNL     1     -13.626  -2.711   0.807  0.00  0.00    +0.019 A 
ATOM     32  C   UNL     1     -12.476  -1.949   0.859  0.00  0.00    +0.028 A 
ATOM     33 BR   UNL     1     -15.250  -2.016   1.481  0.00  0.00    -0.050 Br
ENDBRANCH  24  27
ENDBRANCH   5  23
TORSDOF 7
