REMARK  Name = ZINC64117481
REMARK  10 active torsions:
REMARK  status: ('A' for Active; 'I' for Inactive)
REMARK    1  A    between atoms: C_1  and  C_2
REMARK    2  A    between atoms: C_7  and  C_8
REMARK    3  A    between atoms: C_8  and  C_9
REMARK    4  A    between atoms: C_9  and  C_11
REMARK    5  A    between atoms: C_9  and  N_12
REMARK    6  A    between atoms: C_13  and  C_15
REMARK    7  A    between atoms: C_15  and  C_17
REMARK    8  A    between atoms: C_15  and  N_27
REMARK    9  A    between atoms: C_17  and  C_18
REMARK   10  A    between atoms: C_28  and  C_30
REMARK                            x       y       z     vdW  Elec       q    Type
REMARK                         _______ _______ _______ _____ _____    ______ ____
ROOT
ATOM      1  C   UNL     1      -4.433   1.407   0.510  0.00  0.00    +0.163 C 
ENDROOT
BRANCH   1   3
ATOM      2  N   UNL     1      -2.384   0.931   1.812  0.00  0.00    -0.311 N 
ATOM      3  C   UNL     1      -3.688   0.671   1.594  0.00  0.00    +0.234 C 
ATOM      4  O   UNL     1      -4.263  -0.155   2.271  0.00  0.00    -0.274 OA
ATOM      5  H   UNL     1      -1.924   1.591   1.271  0.00  0.00    +0.149 HD
BRANCH   2   6
ATOM      6  C   UNL     1      -1.661   0.215   2.866  0.00  0.00    +0.074 C 
ATOM      7  C   UNL     1      -1.824   0.959   4.193  0.00  0.00    +0.028 C 
BRANCH   6   8
ATOM      8  C   UNL     1      -0.176   0.138   2.504  0.00  0.00    +0.057 C 
BRANCH   8  15
ATOM      9  C   UNL     1      -0.144  -2.744   2.709  0.00  0.00    +0.044 C 
ATOM     10  C   UNL     1       0.011  -2.083   1.363  0.00  0.00    -0.047 A 
ATOM     11  C   UNL     1       0.163  -2.855   0.227  0.00  0.00    +0.003 A 
ATOM     12  C   UNL     1       0.305  -2.248  -1.007  0.00  0.00    +0.000 A 
ATOM     13  C   UNL     1       0.295  -0.869  -1.104  0.00  0.00    +0.000 A 
ATOM     14  C   UNL     1       0.142  -0.097   0.032  0.00  0.00    +0.004 A 
ATOM     15  C   UNL     1      -0.004  -0.704   1.265  0.00  0.00    -0.043 A 
ENDBRANCH   8  15
ENDBRANCH   6   8
ENDBRANCH   2   6
ENDBRANCH   1   3
BRANCH   1  16
ATOM     16  N   UNL     1      -5.873   1.328   0.766  0.00  0.00    -0.299 N 
ATOM     17  C   UNL     1      -6.482   0.127   0.821  0.00  0.00    +0.251 C 
ATOM     18  O   UNL     1      -5.835  -0.892   0.658  0.00  0.00    -0.270 OA
ATOM     19  H   UNL     1      -6.388   2.139   0.896  0.00  0.00    +0.150 HD
BRANCH  17  20
ATOM     20  C   UNL     1      -7.923   0.047   1.077  0.00  0.00    +0.074 A 
ATOM     21  C   UNL     1      -8.732  -1.075   1.177  0.00  0.00    +0.021 A 
ATOM     22  C   UNL     1     -10.062  -0.832   1.425  0.00  0.00    +0.008 A 
ATOM     23  C   UNL     1     -10.485   0.450   1.553  0.00  0.00    +0.046 A 
ATOM     24  S   UNL     1      -9.091   1.366   1.347  0.00  0.00    -0.092 S 
ENDBRANCH  17  20
ENDBRANCH   1  16
BRANCH   1  25
ATOM     25  C   UNL     1      -4.119   0.772  -0.846  0.00  0.00    +0.065 C 
BRANCH  25  26
ATOM     26  C   UNL     1      -4.764   1.581  -1.941  0.00  0.00    -0.039 C 
ATOM     27  C   UNL     1      -4.187   2.558  -2.677  0.00  0.00    -0.001 A 
ATOM     28  C   UNL     1      -2.838   3.138  -2.678  0.00  0.00    +0.010 A 
ATOM     29  C   UNL     1      -2.551   4.129  -3.553  0.00  0.00    +0.001 A 
ATOM     30  C   UNL     1      -3.506   4.615  -4.456  0.00  0.00    +0.002 A 
ATOM     31  C   UNL     1      -4.766   4.133  -4.515  0.00  0.00    +0.026 A 
ATOM     32  C   UNL     1      -5.177   3.089  -3.641  0.00  0.00    +0.043 A 
ATOM     33  N   UNL     1      -6.322   2.465  -3.506  0.00  0.00    -0.380 N 
ATOM     34  C   UNL     1      -6.185   1.462  -2.444  0.00  0.00    +0.144 C 
ATOM     35  H   UNL     1      -7.124   2.634  -4.024  0.00  0.00    +0.160 HD
ENDBRANCH  25  26
ENDBRANCH   1  25
TORSDOF 8
