REMARK  Name = ZINC17113598
REMARK  5 active torsions:
REMARK  status: ('A' for Active; 'I' for Inactive)
REMARK    1  A    between atoms: C_1  and  C_2
REMARK    2  A    between atoms: C_2  and  C_3
REMARK    3  A    between atoms: C_2  and  S_4
REMARK    4  A    between atoms: S_4  and  C_5
REMARK    5  A    between atoms: C_16  and  C_18
REMARK                            x       y       z     vdW  Elec       q    Type
REMARK                         _______ _______ _______ _____ _____    ______ ____
ROOT
ATOM      1  C   UNL     1       1.107   3.282   0.009  0.00  0.00    +0.171 A 
ATOM      2  N   UNL     1       1.138   1.920   0.002  0.00  0.00    -0.302 N 
ATOM      3  H   UNL     1       1.989   1.455  -0.010  0.00  0.00    +0.171 HD
ATOM      4  C   UNL     1      -0.015   1.217   0.009  0.00  0.00    +0.258 A 
ATOM      5  O   UNL     1       0.002  -0.004   0.002  0.00  0.00    -0.267 OA
ATOM      6  C   UNL     1      -1.228   1.913   0.018  0.00  0.00    +0.069 A 
ATOM      7  C   UNL     1      -1.204   3.297   0.028  0.00  0.00    +0.135 A 
ATOM      8  N   UNL     1      -0.033   3.942   0.022  0.00  0.00    -0.208 NA
ATOM      9  N   UNL     1      -2.392   4.002   0.036  0.00  0.00    -0.302 N 
ATOM     10  C   UNL     1      -3.561   3.402  -0.347  0.00  0.00    +0.017 C 
ATOM     11  C   UNL     1      -3.676   2.058  -0.370  0.00  0.00    +0.024 C 
ATOM     12  C   UNL     1      -2.530   1.168   0.040  0.00  0.00    +0.092 C 
ATOM     13  C   UNL     1      -4.871   1.441  -0.780  0.00  0.00    +0.162 C 
ATOM     14  O   UNL     1      -4.945   0.228  -0.783  0.00  0.00    -0.292 OA
ATOM     15  C   UNL     1      -6.060   2.252  -1.217  0.00  0.00    +0.080 C 
ATOM     16  C   UNL     1      -5.570   3.583  -1.796  0.00  0.00    +0.014 C 
ATOM     17  C   UNL     1      -4.719   4.288  -0.737  0.00  0.00    +0.051 C 
ATOM     18  H   UNL     1      -2.397   4.930   0.316  0.00  0.00    +0.153 HD
ENDROOT
BRANCH  12  19
ATOM     19  C   UNL     1      -2.782   0.647   1.431  0.00  0.00    -0.035 A 
ATOM     20  C   UNL     1      -2.914   1.530   2.486  0.00  0.00    +0.005 A 
ATOM     21  C   UNL     1      -3.151   1.053   3.762  0.00  0.00    +0.015 A 
ATOM     22  C   UNL     1      -3.245  -0.309   3.984  0.00  0.00    +0.018 A 
ATOM     23  C   UNL     1      -3.107  -1.192   2.928  0.00  0.00    +0.015 A 
ATOM     24  C   UNL     1      -2.876  -0.714   1.652  0.00  0.00    +0.005 A 
ATOM     25 BR   UNL     1      -3.561  -0.963   5.730  0.00  0.00    -0.050 Br
ENDBRANCH  12  19
BRANCH   1  26
ATOM     26  S   UNL     1       2.624   4.179   0.003  0.00  0.00    -0.085 S 
BRANCH  26  28
ATOM     27  C   UNL     1       1.247   6.128   1.332  0.00  0.00    +0.019 C 
ATOM     28  C   UNL     1       1.987   5.873   0.017  0.00  0.00    +0.048 C 
ATOM     29  C   UNL     1       3.152   6.857  -0.112  0.00  0.00    +0.019 C 
ENDBRANCH  26  28
ENDBRANCH   1  26
TORSDOF 3
