REMARK  Name = ZINC53735903
REMARK  6 active torsions:
REMARK  status: ('A' for Active; 'I' for Inactive)
REMARK    1  A    between atoms: C_1  and  C_2
REMARK    2  A    between atoms: C_6  and  N_8
REMARK    3  A    between atoms: C_12  and  N_21
REMARK    4  A    between atoms: C_16  and  C_17
REMARK    5  A    between atoms: C_17  and  C_19
REMARK    6  A    between atoms: C_17  and  O_20
REMARK                            x       y       z     vdW  Elec       q    Type
REMARK                         _______ _______ _______ _____ _____    ______ ____
ROOT
ATOM      1  N   UNL     1       0.051  -2.797   2.397  0.00  0.00    -0.291 N 
ATOM      2  C   UNL     1       1.175  -3.192   3.104  0.00  0.00    +0.074 A 
ATOM      3  C   UNL     1       2.540  -3.049   2.900  0.00  0.00    +0.030 A 
ATOM      4  C   UNL     1       3.430  -3.570   3.814  0.00  0.00    +0.025 A 
ATOM      5  C   UNL     1       2.967  -4.241   4.945  0.00  0.00    +0.027 A 
ATOM      6  C   UNL     1       1.610  -4.391   5.162  0.00  0.00    +0.052 A 
ATOM      7  C   UNL     1       0.699  -3.866   4.241  0.00  0.00    +0.091 A 
ATOM      8  N   UNL     1      -0.657  -3.849   4.174  0.00  0.00    -0.229 NA
ATOM      9  C   UNL     1      -1.036  -3.220   3.100  0.00  0.00    +0.144 A 
ENDROOT
BRANCH   1  15
ATOM     10  C   UNL     1      -0.018   1.503   0.010  0.00  0.00    +0.044 C 
ATOM     11  C   UNL     1       0.002  -0.004   0.002  0.00  0.00    -0.048 A 
ATOM     12  C   UNL     1       0.006  -0.688  -1.200  0.00  0.00    +0.006 A 
ATOM     13  C   UNL     1       0.024  -2.070  -1.213  0.00  0.00    +0.041 A 
ATOM     14  C   UNL     1       0.040  -2.773  -0.022  0.00  0.00    +0.147 A 
ATOM     15  C   UNL     1       0.036  -2.088   1.188  0.00  0.00    +0.084 A 
ATOM     16  C   UNL     1       0.023  -0.700   1.195  0.00  0.00    +0.032 A 
ATOM     17  F   UNL     1       0.057  -4.124  -0.034  0.00  0.00    -0.203 F 
ENDBRANCH   1  15
BRANCH   5  18
ATOM     18  N   UNL     1       3.880  -4.766   5.865  0.00  0.00    -0.358 N 
ATOM     19  H   UNL     1       4.833  -4.662   5.716  0.00  0.00    +0.142 HD
ATOM     20  H   UNL     1       3.561  -5.233   6.653  0.00  0.00    +0.142 HD
ENDBRANCH   5  18
BRANCH   9  21
ATOM     21  C   UNL     1      -2.469  -2.995   2.691  0.00  0.00    +0.177 C 
ATOM     22  C   UNL     1      -3.057  -4.302   2.153  0.00  0.00    +0.046 C 
BRANCH  21  23
ATOM     23  O   UNL     1      -3.226  -2.563   3.823  0.00  0.00    -0.384 OA
ATOM     24  H   UNL     1      -3.234  -3.195   4.555  0.00  0.00    +0.210 HD
ENDBRANCH  21  23
ENDBRANCH   9  21
TORSDOF 4
