REMARK  Name = ZINC34784768
REMARK  6 active torsions:
REMARK  status: ('A' for Active; 'I' for Inactive)
REMARK    1  A    between atoms: C_4  and  O_7
REMARK    2  A    between atoms: O_7  and  C_8
REMARK    3  A    between atoms: N_10  and  C_11
REMARK    4  A    between atoms: C_12  and  C_25
REMARK    5  A    between atoms: N_14  and  C_17
REMARK    6  A    between atoms: C_15  and  N_16
REMARK                            x       y       z     vdW  Elec       q    Type
REMARK                         _______ _______ _______ _____ _____    ______ ____
ROOT
ATOM      1  C   UNL     1       4.255  -4.173  -0.217  0.00  0.00    +0.104 A 
ATOM      2  C   UNL     1       4.727  -4.529   1.064  0.00  0.00    +0.116 A 
ATOM      3  N   UNL     1       4.987  -5.821   1.062  0.00  0.00    -0.163 NA
ATOM      4  N   UNL     1       4.693  -6.330  -0.209  0.00  0.00    -0.214 N 
ATOM      5  C   UNL     1       4.238  -5.302  -0.981  0.00  0.00    +0.142 A 
ENDROOT
BRANCH   4   6
ATOM      6  C   UNL     1       4.835  -7.663  -0.615  0.00  0.00    +0.105 A 
ATOM      7  C   UNL     1       3.834  -8.276  -1.355  0.00  0.00    +0.069 A 
ATOM      8  C   UNL     1       3.978  -9.592  -1.755  0.00  0.00    +0.126 A 
ATOM      9  C   UNL     1       5.120 -10.299  -1.417  0.00  0.00    +0.041 A 
ATOM     10  C   UNL     1       6.119  -9.692  -0.680  0.00  0.00    +0.043 A 
ATOM     11  C   UNL     1       5.983  -8.374  -0.282  0.00  0.00    +0.149 A 
ATOM     12  F   UNL     1       6.963  -7.779   0.434  0.00  0.00    -0.203 F 
ATOM     13  F   UNL     1       3.003 -10.190  -2.476  0.00  0.00    -0.205 F 
ENDBRANCH   4   6
BRANCH   2  14
ATOM     14  C   UNL     1       4.900  -3.608   2.214  0.00  0.00    +0.004 A 
ATOM     15  C   UNL     1       5.300  -2.290   2.000  0.00  0.00    +0.011 A 
ATOM     16  C   UNL     1       5.460  -1.438   3.073  0.00  0.00    +0.020 A 
ATOM     17  C   UNL     1       5.224  -1.889   4.360  0.00  0.00    +0.041 A 
ATOM     18  C   UNL     1       4.827  -3.198   4.578  0.00  0.00    +0.020 A 
ATOM     19  C   UNL     1       4.659  -4.056   3.511  0.00  0.00    +0.011 A 
ATOM     20 CL   UNL     1       5.427  -0.812   5.706  0.00  0.00    -0.084 Cl
ENDBRANCH   2  14
BRANCH   1  23
ATOM     21  C   UNL     1       4.218  -2.429  -1.849  0.00  0.00    +0.410 C 
ATOM     22  O   UNL     1       4.746  -3.180  -2.647  0.00  0.00    -0.226 OA
ATOM     23  N   UNL     1       3.864  -2.883  -0.630  0.00  0.00    -0.246 N 
ATOM     24  H   UNL     1       3.339  -2.321  -0.038  0.00  0.00    +0.158 HD
BRANCH  21  25
ATOM     25  O   UNL     1       3.989  -1.145  -2.183  0.00  0.00    -0.411 OA
BRANCH  25  29
ATOM     26  C   UNL     1       4.782   0.021  -6.060  0.00  0.00    +0.000 A 
ATOM     27  C   UNL     1       3.586  -0.604  -5.758  0.00  0.00    +0.004 A 
ATOM     28  C   UNL     1       3.318  -0.995  -4.461  0.00  0.00    +0.046 A 
ATOM     29  C   UNL     1       4.250  -0.761  -3.461  0.00  0.00    +0.133 A 
ATOM     30  C   UNL     1       5.449  -0.134  -3.766  0.00  0.00    +0.046 A 
ATOM     31  C   UNL     1       5.712   0.256  -5.065  0.00  0.00    +0.004 A 
ENDBRANCH  25  29
ENDBRANCH  21  25
ENDBRANCH   1  23
BRANCH   5  32
ATOM     32  N   UNL     1       3.832  -5.389  -2.313  0.00  0.00    -0.342 N 
ATOM     33  H   UNL     1       3.956  -6.216  -2.805  0.00  0.00    +0.144 HD
ATOM     34  H   UNL     1       3.427  -4.622  -2.748  0.00  0.00    +0.144 HD
ENDBRANCH   5  32
TORSDOF 6
