REMARK  Name = ZINC65359919
REMARK  9 active torsions:
REMARK  status: ('A' for Active; 'I' for Inactive)
REMARK    1  A    between atoms: C_1  and  C_2
REMARK    2  A    between atoms: N_5  and  C_8
REMARK    3  A    between atoms: C_8  and  C_9
REMARK    4  A    between atoms: C_8  and  C_10
REMARK    5  A    between atoms: C_10  and  N_11
REMARK    6  A    between atoms: N_14  and  C_15
REMARK    7  A    between atoms: C_19  and  S_21
REMARK    8  A    between atoms: S_21  and  N_24
REMARK    9  A    between atoms: N_24  and  C_25
REMARK                            x       y       z     vdW  Elec       q    Type
REMARK                         _______ _______ _______ _____ _____    ______ ____
ROOT
ATOM      1  N   UNL     1       1.649  -3.737  -2.468  0.00  0.00    -0.301 N 
ATOM      2  C   UNL     1       1.991  -4.057  -3.732  0.00  0.00    +0.304 C 
ATOM      3  O   UNL     1       2.887  -4.853  -3.937  0.00  0.00    -0.253 OA
ATOM      4  N   UNL     1       1.338  -3.496  -4.769  0.00  0.00    -0.269 N 
ATOM      5  H   UNL     1       0.934  -3.102  -2.305  0.00  0.00    +0.150 HD
ATOM      6  H   UNL     1       0.578  -2.915  -4.607  0.00  0.00    +0.156 HD
ENDROOT
BRANCH   4   7
ATOM      7  C   UNL     1       1.757  -3.751  -6.080  0.00  0.00    +0.037 A 
ATOM      8  C   UNL     1       2.255  -5.002  -6.421  0.00  0.00    +0.023 A 
ATOM      9  C   UNL     1       2.667  -5.250  -7.715  0.00  0.00    +0.004 A 
ATOM     10  C   UNL     1       2.584  -4.255  -8.672  0.00  0.00    +0.028 A 
ATOM     11  C   UNL     1       2.089  -3.008  -8.336  0.00  0.00    +0.107 A 
ATOM     12  C   UNL     1       1.669  -2.756  -7.044  0.00  0.00    +0.051 A 
BRANCH  11  13
ATOM     13  S   UNL     1       1.986  -1.743  -9.558  0.00  0.00    +0.059 S 
ATOM     14  O   UNL     1       1.998  -0.504  -8.862  0.00  0.00    -0.153 OA
ATOM     15  O   UNL     1       2.945  -2.065 -10.557  0.00  0.00    -0.153 OA
BRANCH  13  16
ATOM     16  N   UNL     1       0.497  -1.871 -10.271  0.00  0.00    -0.187 NA
ATOM     17  H   UNL     1       0.428  -2.111 -11.209  0.00  0.00    +0.148 HD
BRANCH  16  18
ATOM     18  C   UNL     1      -0.715  -1.623  -9.487  0.00  0.00    +0.077 C 
ATOM     19  C   UNL     1      -1.960  -2.442  -9.832  0.00  0.00    +0.022 C 
ATOM     20  C   UNL     1      -1.894  -0.958 -10.200  0.00  0.00    +0.022 C 
ENDBRANCH  16  18
ENDBRANCH  13  16
ENDBRANCH  11  13
ENDBRANCH   4   7
BRANCH   1  21
ATOM     21  C   UNL     1       2.359  -4.347  -1.341  0.00  0.00    +0.090 C 
BRANCH  21  22
ATOM     22  C   UNL     1       1.705  -3.908  -0.029  0.00  0.00    -0.054 C 
ATOM     23  C   UNL     1       2.497  -4.476   1.150  0.00  0.00    -0.012 C 
BRANCH  22  28
ATOM     24  C   UNL     1       2.218   1.617   1.288  0.00  0.00    +0.007 C 
ATOM     25  C   UNL     1       2.289   0.089   1.327  0.00  0.00    -0.018 C 
ATOM     26  C   UNL     1       0.873  -0.492   1.282  0.00  0.00    -0.016 C 
ATOM     27  C   UNL     1       0.955  -2.019   1.241  0.00  0.00    -0.078 C 
ATOM     28  N   UNL     1       1.696  -2.441   0.047  0.00  0.00    +0.382 N 
ATOM     29  C   UNL     1       3.077  -1.948   0.118  0.00  0.00    -0.078 C 
ATOM     30  C   UNL     1       3.077  -0.418   0.116  0.00  0.00    -0.016 C 
ATOM     31  H   UNL     1       1.248  -2.067  -0.776  0.00  0.00    -0.081 HD
ENDBRANCH  22  28
ENDBRANCH  21  22
ENDBRANCH   1  21
TORSDOF 7
