REMARK  Name = ZINC49741019
REMARK  2 active torsions:
REMARK  status: ('A' for Active; 'I' for Inactive)
REMARK    1  A    between atoms: C_6  and  N_7
REMARK    2  A    between atoms: C_8  and  C_10
REMARK                            x       y       z     vdW  Elec       q    Type
REMARK                         _______ _______ _______ _____ _____    ______ ____
ROOT
ATOM      1  C   UNL     1      -0.004   1.371   0.175  0.00  0.00    +0.025 A 
ATOM      2  C   UNL     1       1.178   2.080   0.163  0.00  0.00    +0.025 A 
ATOM      3  C   UNL     1       2.390   1.421  -0.028  0.00  0.00    +0.038 A 
ATOM      4  C   UNL     1       2.388   0.042  -0.205  0.00  0.00    -0.009 A 
ATOM      5  C   UNL     1       1.210  -0.669  -0.194  0.00  0.00    +0.029 A 
ATOM      6  C   UNL     1       0.003  -0.006  -0.003  0.00  0.00    +0.034 A 
ATOM      7  C   UNL     1       3.831  -0.361  -0.384  0.00  0.00    +0.074 C 
ATOM      8  C   UNL     1       4.040  -1.000  -1.753  0.00  0.00    +0.021 C 
ATOM      9  C   UNL     1       5.515  -1.373  -1.925  0.00  0.00    +0.001 C 
ATOM     10  C   UNL     1       5.924  -2.350  -0.822  0.00  0.00    +0.000 C 
ATOM     11  C   UNL     1       5.731  -1.688   0.544  0.00  0.00    +0.001 C 
ATOM     12  C   UNL     1       4.257  -1.317   0.726  0.00  0.00    +0.021 C 
ATOM     13  C   UNL     1       4.599   0.935  -0.285  0.00  0.00    +0.228 C 
ATOM     14  O   UNL     1       5.801   1.070  -0.374  0.00  0.00    -0.274 OA
ATOM     15  N   UNL     1       3.697   1.912  -0.080  0.00  0.00    -0.284 N 
ATOM     16  H   UNL     1       3.928   2.849   0.019  0.00  0.00    +0.155 HD
ENDROOT
BRANCH   6  17
ATOM     17  N   UNL     1      -1.199  -0.724   0.010  0.00  0.00    -0.285 N 
ATOM     18  C   UNL     1      -1.229  -1.981   0.496  0.00  0.00    +0.220 C 
ATOM     19  O   UNL     1      -0.238  -2.455   1.010  0.00  0.00    -0.275 OA
ATOM     20  H   UNL     1      -2.011  -0.317  -0.332  0.00  0.00    +0.155 HD
BRANCH  18  21
ATOM     21  C   UNL     1      -2.493  -2.796   0.402  0.00  0.00    +0.075 C 
ATOM     22  C   UNL     1      -3.503  -2.498   1.522  0.00  0.00    +0.013 C 
ATOM     23  C   UNL     1      -3.779  -4.010   1.569  0.00  0.00    +0.001 C 
ATOM     24  C   UNL     1      -2.363  -4.206   1.002  0.00  0.00    +0.013 C 
ENDBRANCH  18  21
ENDBRANCH   6  17
TORSDOF 2
