REMARK  Name = ZINC44164431
REMARK  10 active torsions:
REMARK  status: ('A' for Active; 'I' for Inactive)
REMARK    1  A    between atoms: C_1  and  C_2
REMARK    2  A    between atoms: C_2  and  C_3
REMARK    3  A    between atoms: C_8  and  C_9
REMARK    4  A    between atoms: C_14  and  C_17
REMARK    5  A    between atoms: N_22  and  C_25
REMARK    6  A    between atoms: C_25  and  C_26
REMARK    7  A    between atoms: C_32  and  C_38
REMARK    8  A    between atoms: C_32  and  C_39
REMARK    9  A    between atoms: C_35  and  C_36
REMARK   10  A    between atoms: C_35  and  C_37
REMARK                            x       y       z     vdW  Elec       q    Type
REMARK                         _______ _______ _______ _____ _____    ______ ____
ROOT
ATOM      1  C   UNL     1      -1.460  -0.268  -2.466  0.00  0.00    -0.030 C 
ATOM      2  C   UNL     1      -0.645  -1.465  -2.969  0.00  0.00    +0.058 C 
ATOM      3  S   UNL     1       0.180  -0.982  -4.518  0.00  0.00    -0.163 S 
ATOM      4  C   UNL     1      -1.183  -0.266  -5.489  0.00  0.00    +0.062 C 
ATOM      5  C   UNL     1      -1.918   0.751  -4.609  0.00  0.00    +0.027 C 
ATOM      6  N   UNL     1      -2.494   0.074  -3.445  0.00  0.00    +0.392 N 
ATOM      7  H   UNL     1      -2.956  -0.770  -3.747  0.00  0.00    -0.084 HD
ATOM      8  H   UNL     1      -3.171   0.684  -3.011  0.00  0.00    -0.084 HD
ENDROOT
BRANCH   1  14
ATOM      9  C   UNL     1      -1.411  -0.477   0.029  0.00  0.00    -0.046 A 
ATOM     10  C   UNL     1      -2.014  -0.801   1.227  0.00  0.00    +0.008 A 
ATOM     11  C   UNL     1      -3.319  -1.275   1.254  0.00  0.00    -0.038 A 
ATOM     12  C   UNL     1      -4.017  -1.420   0.076  0.00  0.00    -0.038 A 
ATOM     13  C   UNL     1      -3.406  -1.097  -1.129  0.00  0.00    +0.006 A 
ATOM     14  C   UNL     1      -2.111  -0.622  -1.153  0.00  0.00    -0.057 A 
ATOM     15  C   UNL     1      -5.439  -1.913   0.032  0.00  0.00    -0.010 C 
ATOM     16  C   UNL     1      -5.805  -2.616   1.337  0.00  0.00    +0.012 C 
ATOM     17  C   UNL     1      -5.436  -1.693   2.504  0.00  0.00    +0.012 C 
ATOM     18  C   UNL     1      -3.913  -1.617   2.596  0.00  0.00    -0.010 C 
ATOM     19  C   UNL     1      -3.368  -2.969   3.060  0.00  0.00    +0.016 C 
ATOM     20  C   UNL     1      -3.522  -0.540   3.610  0.00  0.00    +0.016 C 
ATOM     21  C   UNL     1      -6.379  -0.725  -0.181  0.00  0.00    +0.016 C 
ATOM     22  C   UNL     1      -5.597  -2.895  -1.131  0.00  0.00    +0.016 C 
BRANCH   9  24
ATOM     23  C   UNL     1      -0.010   1.569   0.004  0.00  0.00    +0.009 C 
ATOM     24  C   UNL     1       0.005   0.039   0.011  0.00  0.00    +0.032 C 
ENDBRANCH   9  24
ENDBRANCH   1  14
BRANCH   5  25
ATOM     25  C   UNL     1      -3.020   1.399  -5.406  0.00  0.00    +0.202 C 
ATOM     26  O   UNL     1      -4.148   0.955  -5.355  0.00  0.00    -0.277 OA
ATOM     27  N   UNL     1      -2.753   2.472  -6.177  0.00  0.00    -0.300 N 
ATOM     28  C   UNL     1      -1.374   2.953  -6.349  0.00  0.00    +0.123 C 
ATOM     29  C   UNL     1      -1.095   3.103  -7.849  0.00  0.00    +0.103 C 
ATOM     30  N   UNL     1      -2.130   3.953  -8.454  0.00  0.00    -0.295 NA
ATOM     31  C   UNL     1      -3.457   3.334  -8.346  0.00  0.00    +0.103 C 
ATOM     32  C   UNL     1      -3.833   3.190  -6.872  0.00  0.00    +0.123 C 
BRANCH  30  33
ATOM     33  C   UNL     1      -1.805   4.262  -9.852  0.00  0.00    +0.119 C 
BRANCH  33  34
ATOM     34  C   UNL     1      -2.745   5.323 -10.364  0.00  0.00    -0.033 A 
ATOM     35  C   UNL     1      -3.940   4.959 -10.957  0.00  0.00    +0.005 A 
ATOM     36  C   UNL     1      -4.803   5.932 -11.426  0.00  0.00    +0.000 A 
ATOM     37  C   UNL     1      -4.471   7.269 -11.301  0.00  0.00    +0.000 A 
ATOM     38  C   UNL     1      -3.277   7.632 -10.707  0.00  0.00    +0.000 A 
ATOM     39  C   UNL     1      -2.416   6.659 -10.234  0.00  0.00    +0.005 A 
ENDBRANCH  33  34
ENDBRANCH  30  33
ENDBRANCH   5  25
TORSDOF 5
