REMARK  Name = ZINC20183141
REMARK  8 active torsions:
REMARK  status: ('A' for Active; 'I' for Inactive)
REMARK    1  A    between atoms: C_1  and  C_2
REMARK    2  A    between atoms: C_5  and  C_33
REMARK    3  A    between atoms: C_6  and  N_8
REMARK    4  A    between atoms: N_11  and  C_14
REMARK    5  A    between atoms: C_14  and  N_16
REMARK    6  A    between atoms: N_16  and  C_17
REMARK    7  A    between atoms: C_23  and  C_32
REMARK    8  A    between atoms: C_25  and  N_27
REMARK                            x       y       z     vdW  Elec       q    Type
REMARK                         _______ _______ _______ _____ _____    ______ ____
ROOT
ATOM      1  N   UNL     1      -1.692   1.094   3.345  0.00  0.00    -0.297 N 
ATOM      2  H   UNL     1      -2.025   2.142   3.366  0.00  0.00    +0.154 HD
ENDROOT
BRANCH   1   3
ATOM      3  C   UNL     1      -1.976   0.248   4.423  0.00  0.00    +0.033 A 
ATOM      4  C   UNL     1      -1.655  -1.112   4.341  0.00  0.00    +0.025 A 
ATOM      5  C   UNL     1      -1.916  -1.956   5.375  0.00  0.00    +0.028 A 
ATOM      6  C   UNL     1      -2.525  -1.468   6.544  0.00  0.00    +0.048 A 
ATOM      7  C   UNL     1      -2.857  -0.094   6.632  0.00  0.00    +0.003 A 
ATOM      8  C   UNL     1      -2.574   0.759   5.554  0.00  0.00    +0.033 A 
ATOM      9  C   UNL     1      -3.467   0.392   7.806  0.00  0.00    -0.038 A 
ATOM     10  C   UNL     1      -3.715  -0.488   8.816  0.00  0.00    +0.045 A 
ATOM     11  C   UNL     1      -3.363  -1.837   8.669  0.00  0.00    +0.099 A 
ATOM     12  N   UNL     1      -2.792  -2.285   7.570  0.00  0.00    -0.343 N 
ATOM     13  C   UNL     1      -3.837   1.846   7.940  0.00  0.00    +0.044 C 
ATOM     14  H   UNL     1      -2.536  -3.352   7.505  0.00  0.00    +0.167 HD
BRANCH  11  15
ATOM     15  N   UNL     1      -3.620  -2.722   9.707  0.00  0.00    -0.317 N 
ATOM     16  C   UNL     1      -5.079  -2.823   9.971  0.00  0.00    +0.106 C 
ATOM     17  C   UNL     1      -5.210  -4.168  10.727  0.00  0.00    +0.020 C 
ATOM     18  C   UNL     1      -4.170  -5.066  10.019  0.00  0.00    +0.020 C 
ATOM     19  C   UNL     1      -3.178  -4.090   9.360  0.00  0.00    +0.106 C 
ENDBRANCH  11  15
ENDBRANCH   1   3
BRANCH   1  20
ATOM     20  C   UNL     1      -1.010   0.625   2.281  0.00  0.00    +0.137 C 
ATOM     21  S   UNL     1      -1.817   0.366   0.794  0.00  0.00    -0.018 S 
BRANCH  20  25
ATOM     22  N   UNL     1       3.062   0.795   2.397  0.00  0.00    -0.327 N 
ATOM     23  C   UNL     1       2.337   0.835   1.120  0.00  0.00    +0.124 C 
ATOM     24  C   UNL     1       1.092  -0.053   1.215  0.00  0.00    +0.125 C 
ATOM     25  N   UNL     1       0.307   0.360   2.388  0.00  0.00    -0.309 N 
ATOM     26  C   UNL     1       1.000   0.480   3.681  0.00  0.00    +0.125 C 
ATOM     27  C   UNL     1       2.249   1.347   3.489  0.00  0.00    +0.124 C 
BRANCH  22  33
ATOM     28  C   UNL     1       5.942   4.566   3.675  0.00  0.00    +0.044 C 
ATOM     29  C   UNL     1       5.711   3.290   2.907  0.00  0.00    -0.049 A 
ATOM     30  C   UNL     1       6.713   2.775   2.105  0.00  0.00    +0.004 A 
ATOM     31  C   UNL     1       6.505   1.605   1.399  0.00  0.00    +0.005 A 
ATOM     32  C   UNL     1       5.296   0.943   1.498  0.00  0.00    -0.029 A 
ATOM     33  C   UNL     1       4.286   1.459   2.299  0.00  0.00    +0.033 A 
ATOM     34  C   UNL     1       4.499   2.636   3.006  0.00  0.00    +0.026 A 
ATOM     35  C   UNL     1       5.073  -0.337   0.733  0.00  0.00    +0.045 C 
ENDBRANCH  22  33
ENDBRANCH  20  25
ENDBRANCH   1  20
TORSDOF 5
