REMARK  Name = ZINC40156281
REMARK  8 active torsions:
REMARK  status: ('A' for Active; 'I' for Inactive)
REMARK    1  A    between atoms: C_1  and  C_2
REMARK    2  A    between atoms: C_2  and  C_3
REMARK    3  A    between atoms: C_2  and  C_4
REMARK    4  A    between atoms: C_4  and  C_6
REMARK    5  A    between atoms: C_4  and  N_24
REMARK    6  A    between atoms: N_8  and  C_9
REMARK    7  A    between atoms: C_13  and  C_15
REMARK    8  A    between atoms: C_25  and  C_27
REMARK                            x       y       z     vdW  Elec       q    Type
REMARK                         _______ _______ _______ _____ _____    ______ ____
ROOT
ATOM      1  C   UNL     1       0.762  -2.018   1.232  0.00  0.00    +0.238 C 
ATOM      2  O   UNL     1       1.821  -2.610   1.210  0.00  0.00    -0.273 OA
ATOM      3  N   UNL     1      -0.395  -2.707   1.241  0.00  0.00    -0.284 N 
ATOM      4  H   UNL     1      -1.240  -2.237   1.326  0.00  0.00    +0.155 HD
ENDROOT
BRANCH   3   5
ATOM      5  C   UNL     1      -0.380  -4.102   1.127  0.00  0.00    +0.034 A 
ATOM      6  C   UNL     1       0.647  -4.835   1.711  0.00  0.00    +0.023 A 
ATOM      7  C   UNL     1       0.665  -6.213   1.601  0.00  0.00    +0.002 A 
ATOM      8  C   UNL     1      -0.335  -6.868   0.911  0.00  0.00    +0.010 A 
ATOM      9  C   UNL     1      -1.368  -6.141   0.323  0.00  0.00    +0.001 A 
ATOM     10  C   UNL     1      -1.391  -4.753   0.438  0.00  0.00    +0.033 A 
BRANCH   9  11
ATOM     11  C   UNL     1      -2.444  -6.844  -0.419  0.00  0.00    +0.064 A 
ATOM     12  C   UNL     1      -3.502  -6.259  -1.042  0.00  0.00    +0.113 A 
ATOM     13  N   UNL     1      -4.234  -7.266  -1.592  0.00  0.00    -0.335 N 
ATOM     14  C   UNL     1      -3.614  -8.434  -1.294  0.00  0.00    +0.087 A 
ATOM     15  N   UNL     1      -2.545  -8.178  -0.601  0.00  0.00    -0.343 N 
ATOM     16  C   UNL     1      -4.119  -9.791  -1.726  0.00  0.00    +0.072 C 
ATOM     17  C   UNL     1      -5.580  -9.642  -2.166  0.00  0.00    +0.009 C 
ATOM     18  C   UNL     1      -5.698  -8.460  -3.133  0.00  0.00    +0.022 C 
ATOM     19  C   UNL     1      -5.471  -7.151  -2.370  0.00  0.00    +0.123 C 
ATOM     20  H   UNL     1      -1.920  -8.839  -0.265  0.00  0.00    +0.167 HD
ENDBRANCH   9  11
ENDBRANCH   3   5
BRANCH   1  21
ATOM     21  C   UNL     1       0.742  -0.511   1.248  0.00  0.00    +0.162 C 
BRANCH  21  22
ATOM     22  N   UNL     1       2.116  -0.004   1.234  0.00  0.00    -0.300 N 
ATOM     23  C   UNL     1       2.389   1.217   1.737  0.00  0.00    +0.245 C 
ATOM     24  O   UNL     1       1.495   1.897   2.202  0.00  0.00    -0.270 OA
ATOM     25  H   UNL     1       2.830  -0.546   0.863  0.00  0.00    +0.150 HD
BRANCH  23  26
ATOM     26  C   UNL     1       3.776   1.728   1.723  0.00  0.00    +0.037 A 
ATOM     27  C   UNL     1       4.804   0.952   1.184  0.00  0.00    +0.014 A 
ATOM     28  C   UNL     1       6.095   1.435   1.173  0.00  0.00    +0.021 A 
ATOM     29  C   UNL     1       6.374   2.688   1.696  0.00  0.00    +0.041 A 
ATOM     30  C   UNL     1       5.358   3.462   2.232  0.00  0.00    +0.021 A 
ATOM     31  C   UNL     1       4.061   2.992   2.243  0.00  0.00    +0.014 A 
ATOM     32 CL   UNL     1       8.002   3.288   1.680  0.00  0.00    -0.084 Cl
ENDBRANCH  23  26
ENDBRANCH  21  22
BRANCH  21  34
ATOM     33  C   UNL     1      -0.025   1.532   0.032  0.00  0.00    +0.009 C 
ATOM     34  C   UNL     1      -0.004   0.003   0.015  0.00  0.00    +0.012 C 
ATOM     35  C   UNL     1       0.707  -0.484  -1.250  0.00  0.00    +0.009 C 
ENDBRANCH  21  34
ENDBRANCH   1  21
TORSDOF 6
