REMARK  Name = ZINC09019127
REMARK  4 active torsions:
REMARK  status: ('A' for Active; 'I' for Inactive)
REMARK    1  A    between atoms: C_15  and  C_17
REMARK    2  A    between atoms: N_19  and  C_20
REMARK    3  A    between atoms: N_29  and  C_32
REMARK    4  A    between atoms: C_35  and  N_38
REMARK                            x       y       z     vdW  Elec       q    Type
REMARK                         _______ _______ _______ _____ _____    ______ ____
ROOT
ATOM      1  C   UNL     1      -2.289   2.312  -3.296  0.00  0.00    +0.001 A 
ATOM      2  C   UNL     1      -0.935   2.074  -3.454  0.00  0.00    +0.000 A 
ATOM      3  C   UNL     1      -0.170   1.654  -2.379  0.00  0.00    +0.006 A 
ATOM      4  C   UNL     1      -0.756   1.472  -1.148  0.00  0.00    -0.021 A 
ATOM      5  C   UNL     1      -2.137   1.710  -0.952  0.00  0.00    -0.019 A 
ATOM      6  C   UNL     1      -2.913   2.134  -2.032  0.00  0.00    +0.008 A 
ATOM      7  C   UNL     1      -2.754   1.512   0.376  0.00  0.00    +0.022 C 
ATOM      8  C   UNL     1      -1.968   1.450   1.469  0.00  0.00    +0.054 C 
ATOM      9  C   UNL     1       0.050   1.021   0.042  0.00  0.00    +0.100 C 
ATOM     10  C   UNL     1       1.475   1.569   0.002  0.00  0.00    +0.113 C 
ATOM     11  C   UNL     1       1.782   1.943   1.484  0.00  0.00    +0.118 C 
ATOM     12  C   UNL     1       0.388   2.209   2.089  0.00  0.00    +0.156 C 
ATOM     13  C   UNL     1       2.507   3.269   1.315  0.00  0.00    +0.232 C 
ATOM     14  O   UNL     1       3.237   3.788   2.133  0.00  0.00    -0.274 OA
ATOM     15  N   UNL     1       2.201   3.767   0.107  0.00  0.00    -0.210 N 
ATOM     16  C   UNL     1       1.515   2.920  -0.678  0.00  0.00    +0.232 C 
ATOM     17  O   UNL     1       1.014   3.192  -1.748  0.00  0.00    -0.274 OA
ATOM     18  N   UNL     1      -0.463   1.258   1.396  0.00  0.00    -0.383 NA
ATOM     19  H   UNL     1      -0.307   0.376   1.897  0.00  0.00    +0.127 HD
ENDROOT
BRANCH  15  20
ATOM     20  C   UNL     1       2.566   5.058  -0.300  0.00  0.00    +0.044 A 
ATOM     21  C   UNL     1       1.587   6.009  -0.556  0.00  0.00    +0.026 A 
ATOM     22  C   UNL     1       1.950   7.281  -0.952  0.00  0.00    +0.034 A 
ATOM     23  C   UNL     1       3.286   7.606  -1.103  0.00  0.00    +0.126 A 
ATOM     24  C   UNL     1       4.263   6.659  -0.853  0.00  0.00    +0.034 A 
ATOM     25  C   UNL     1       3.906   5.386  -0.452  0.00  0.00    +0.026 A 
BRANCH  23  26
ATOM     26  N   UNL     1       3.671   8.969  -1.533  0.00  0.00    +0.056 N 
ATOM     27  O   UNL     1       4.847   9.256  -1.666  0.00  0.00    -0.126 OA
ATOM     28  O   UNL     1       2.812   9.803  -1.753  0.00  0.00    -0.126 OA
ENDBRANCH  23  26
ENDBRANCH  15  20
BRANCH  12  29
ATOM     29  C   UNL     1       0.109   3.690   2.097  0.00  0.00    +0.237 C 
ATOM     30  O   UNL     1      -0.589   4.180   1.234  0.00  0.00    -0.273 OA
ATOM     31  N   UNL     1       0.635   4.470   3.062  0.00  0.00    -0.284 N 
ATOM     32  H   UNL     1       1.138   4.070   3.788  0.00  0.00    +0.155 HD
BRANCH  31  33
ATOM     33  C   UNL     1       0.456   5.857   3.016  0.00  0.00    +0.034 A 
ATOM     34  C   UNL     1       1.462   6.704   3.462  0.00  0.00    +0.025 A 
ATOM     35  C   UNL     1       1.284   8.073   3.411  0.00  0.00    +0.022 A 
ATOM     36  C   UNL     1       0.100   8.600   2.926  0.00  0.00    +0.041 A 
ATOM     37  C   UNL     1      -0.906   7.758   2.485  0.00  0.00    +0.022 A 
ATOM     38  C   UNL     1      -0.731   6.389   2.529  0.00  0.00    +0.025 A 
ATOM     39 CL   UNL     1      -0.123  10.321   2.869  0.00  0.00    -0.084 Cl
ENDBRANCH  31  33
ENDBRANCH  12  29
TORSDOF 4
