REMARK  Name = ZINC22023832
REMARK  7 active torsions:
REMARK  status: ('A' for Active; 'I' for Inactive)
REMARK    1  A    between atoms: C_1  and  N_2
REMARK    2  A    between atoms: C_4  and  S_10
REMARK    3  A    between atoms: C_6  and  C_7
REMARK    4  A    between atoms: S_10  and  N_13
REMARK    5  A    between atoms: N_16  and  S_19
REMARK    6  A    between atoms: S_19  and  C_22
REMARK    7  A    between atoms: C_25  and  C_28
REMARK                            x       y       z     vdW  Elec       q    Type
REMARK                         _______ _______ _______ _____ _____    ______ ____
ROOT
ATOM      1  N   UNL     1      -6.965   0.375   1.549  0.00  0.00    -0.174 NA
ATOM      2  C   UNL     1      -7.324  -0.920   2.144  0.00  0.00    +0.126 C 
ATOM      3  C   UNL     1      -6.564  -1.069   3.474  0.00  0.00    +0.126 C 
ATOM      4  N   UNL     1      -6.760   0.153   4.265  0.00  0.00    -0.174 NA
ATOM      5  C   UNL     1      -6.407   1.449   3.667  0.00  0.00    +0.126 C 
ATOM      6  C   UNL     1      -7.161   1.598   2.340  0.00  0.00    +0.126 C 
ENDROOT
BRANCH   1   7
ATOM      7  S   UNL     1      -6.357   0.456   0.010  0.00  0.00    +0.062 S 
ATOM      8  O   UNL     1      -6.643   1.762  -0.471  0.00  0.00    -0.153 OA
ATOM      9  O   UNL     1      -6.797  -0.717  -0.662  0.00  0.00    -0.153 OA
BRANCH   7  13
ATOM     10  C   UNL     1      -1.457  -1.454   0.248  0.00  0.00    +0.149 C 
ATOM     11  N   UNL     1      -2.565  -0.495   0.232  0.00  0.00    -0.344 N 
ATOM     12  C   UNL     1      -3.878  -0.806   0.109  0.00  0.00    +0.114 A 
ATOM     13  C   UNL     1      -4.604   0.337   0.136  0.00  0.00    +0.124 A 
ATOM     14  C   UNL     1      -3.715   1.406   0.287  0.00  0.00    +0.061 A 
ATOM     15  C   UNL     1      -2.445   0.872   0.340  0.00  0.00    +0.106 A 
BRANCH  15  16
ATOM     16  C   UNL     1      -1.194   1.624   0.489  0.00  0.00    +0.258 C 
ATOM     17  O   UNL     1      -0.126   1.044   0.437  0.00  0.00    -0.269 OA
ATOM     18  N   UNL     1      -1.228   2.957   0.685  0.00  0.00    -0.324 N 
ATOM     19  H   UNL     1      -0.291   3.520   0.797  0.00  0.00    +0.145 HD
ATOM     20  H   UNL     1      -2.194   3.481   0.732  0.00  0.00    +0.145 HD
ENDBRANCH  15  16
ENDBRANCH   7  13
ENDBRANCH   1   7
BRANCH   4  21
ATOM     21  S   UNL     1      -7.369   0.073   5.803  0.00  0.00    +0.061 S 
ATOM     22  O   UNL     1      -7.084  -1.233   6.285  0.00  0.00    -0.153 OA
ATOM     23  O   UNL     1      -6.930   1.246   6.475  0.00  0.00    -0.153 OA
BRANCH  21  24
ATOM     24  C   UNL     1      -9.122   0.192   5.676  0.00  0.00    +0.105 A 
ATOM     25  C   UNL     1      -9.736   1.429   5.724  0.00  0.00    +0.029 A 
ATOM     26  C   UNL     1     -11.112   1.523   5.619  0.00  0.00    +0.006 A 
ATOM     27  C   UNL     1     -11.874   0.378   5.478  0.00  0.00    -0.044 A 
ATOM     28  C   UNL     1     -11.260  -0.860   5.436  0.00  0.00    +0.006 A 
ATOM     29  C   UNL     1      -9.884  -0.953   5.535  0.00  0.00    +0.029 A 
BRANCH  27  30
ATOM     30  C   UNL     1     -13.373   0.480   5.370  0.00  0.00    +0.019 C 
ATOM     31  C   UNL     1     -13.741   1.322   4.147  0.00  0.00    +0.008 C 
ATOM     32  C   UNL     1     -15.263   1.425   4.037  0.00  0.00    +0.001 C 
ATOM     33  C   UNL     1     -15.822   2.087   5.298  0.00  0.00    +0.000 C 
ATOM     34  C   UNL     1     -15.454   1.246   6.522  0.00  0.00    +0.001 C 
ATOM     35  C   UNL     1     -13.932   1.142   6.631  0.00  0.00    +0.008 C 
ENDBRANCH  27  30
ENDBRANCH  21  24
ENDBRANCH   4  21
TORSDOF 6
