REMARK  Name = ZINC36219030
REMARK  11 active torsions:
REMARK  status: ('A' for Active; 'I' for Inactive)
REMARK    1  A    between atoms: C_1  and  C_2
REMARK    2  A    between atoms: C_5  and  C_8
REMARK    3  A    between atoms: C_8  and  N_9
REMARK    4  A    between atoms: C_10  and  C_30
REMARK    5  A    between atoms: C_12  and  C_17
REMARK    6  A    between atoms: C_21  and  N_23
REMARK    7  A    between atoms: C_24  and  C_26
REMARK    8  A    between atoms: C_26  and  C_27
REMARK    9  A    between atoms: C_27  and  C_28
REMARK   10  A    between atoms: C_27  and  C_29
REMARK   11  A    between atoms: N_32  and  C_33
REMARK                            x       y       z     vdW  Elec       q    Type
REMARK                         _______ _______ _______ _____ _____    ______ ____
ROOT
ATOM      1  N   UNL     1       1.178  -6.100  -0.316  0.00  0.00    -0.248 N 
ATOM      2  C   UNL     1       2.122  -5.717  -1.384  0.00  0.00    +0.211 C 
ATOM      3  C   UNL     1       3.484  -6.136  -0.782  0.00  0.00    +0.238 C 
ATOM      4  O   UNL     1       3.208  -6.111   0.632  0.00  0.00    -0.440 OA
ATOM      5  C   UNL     1       1.892  -6.320   0.803  0.00  0.00    +0.405 C 
ATOM      6  O   UNL     1       1.399  -6.673   1.857  0.00  0.00    -0.226 OA
ENDROOT
BRANCH   3   7
ATOM      7  C   UNL     1       4.559  -5.142  -1.139  0.00  0.00    -0.003 A 
ATOM      8  C   UNL     1       4.739  -4.011  -0.363  0.00  0.00    +0.007 A 
ATOM      9  C   UNL     1       5.725  -3.097  -0.687  0.00  0.00    +0.002 A 
ATOM     10  C   UNL     1       6.532  -3.310  -1.787  0.00  0.00    +0.023 A 
ATOM     11  C   UNL     1       6.354  -4.445  -2.568  0.00  0.00    +0.034 A 
ATOM     12  C   UNL     1       5.367  -5.364  -2.237  0.00  0.00    +0.030 A 
BRANCH  11  13
ATOM     13  N   UNL     1       7.170  -4.664  -3.683  0.00  0.00    -0.285 N 
ATOM     14  C   UNL     1       8.453  -4.251  -3.671  0.00  0.00    +0.217 C 
ATOM     15  O   UNL     1       8.927  -3.774  -2.661  0.00  0.00    -0.275 OA
ATOM     16  H   UNL     1       6.813  -5.113  -4.465  0.00  0.00    +0.155 HD
BRANCH  14  17
ATOM     17  C   UNL     1       9.299  -4.382  -4.911  0.00  0.00    +0.099 C 
BRANCH  17  18
ATOM     18  C   UNL     1      10.703  -3.843  -4.630  0.00  0.00    -0.008 C 
ATOM     19  C   UNL     1      11.386  -4.723  -3.580  0.00  0.00    +0.008 C 
ATOM     20  C   UNL     1      11.524  -3.860  -5.921  0.00  0.00    +0.008 C 
ENDBRANCH  17  18
ENDBRANCH  14  17
ENDBRANCH  11  13
ENDBRANCH   3   7
BRANCH   2  21
ATOM     21  C   UNL     1       2.076  -4.232  -1.635  0.00  0.00    +0.242 C 
ATOM     22  O   UNL     1       1.603  -3.490  -0.800  0.00  0.00    -0.273 OA
ATOM     23  N   UNL     1       2.559  -3.728  -2.788  0.00  0.00    -0.284 N 
ATOM     24  H   UNL     1       2.870  -4.325  -3.486  0.00  0.00    +0.155 HD
BRANCH  23  25
ATOM     25  C   UNL     1       2.614  -2.342  -2.977  0.00  0.00    +0.036 A 
ATOM     26  C   UNL     1       2.435  -1.806  -4.246  0.00  0.00    +0.023 A 
ATOM     27  C   UNL     1       2.488  -0.438  -4.431  0.00  0.00    +0.005 A 
ATOM     28  C   UNL     1       2.719   0.398  -3.354  0.00  0.00    +0.038 A 
ATOM     29  C   UNL     1       2.898  -0.132  -2.088  0.00  0.00    +0.125 A 
ATOM     30  C   UNL     1       2.840  -1.501  -1.896  0.00  0.00    +0.061 A 
ATOM     31  F   UNL     1       3.124   0.688  -1.038  0.00  0.00    -0.205 F 
ENDBRANCH  23  25
ENDBRANCH   2  21
BRANCH   1  32
ATOM     32  C   UNL     1      -0.277  -6.214  -0.450  0.00  0.00    +0.147 C 
BRANCH  32  37
ATOM     33  C   UNL     1      -2.728  -1.120   0.749  0.00  0.00    +0.044 C 
ATOM     34  C   UNL     1      -2.089  -2.448   0.437  0.00  0.00    -0.050 A 
ATOM     35  C   UNL     1      -1.713  -2.746  -0.860  0.00  0.00    +0.003 A 
ATOM     36  C   UNL     1      -1.127  -3.965  -1.147  0.00  0.00    +0.005 A 
ATOM     37  C   UNL     1      -0.915  -4.885  -0.137  0.00  0.00    -0.030 A 
ATOM     38  C   UNL     1      -1.290  -4.586   1.160  0.00  0.00    +0.005 A 
ATOM     39  C   UNL     1      -1.873  -3.366   1.448  0.00  0.00    +0.003 A 
ENDBRANCH  32  37
ENDBRANCH   1  32
TORSDOF 8
