REMARK  Name = ZINC15016414
REMARK  10 active torsions:
REMARK  status: ('A' for Active; 'I' for Inactive)
REMARK    1  A    between atoms: C_1  and  C_2
REMARK    2  A    between atoms: N_7  and  C_8
REMARK    3  A    between atoms: C_8  and  C_10
REMARK    4  A    between atoms: C_8  and  C_26
REMARK    5  A    between atoms: C_13  and  O_18
REMARK    6  A    between atoms: C_14  and  O_16
REMARK    7  A    between atoms: O_16  and  C_17
REMARK    8  A    between atoms: O_18  and  C_19
REMARK    9  A    between atoms: C_19  and  C_20
REMARK   10  A    between atoms: C_35  and  O_36
REMARK                            x       y       z     vdW  Elec       q    Type
REMARK                         _______ _______ _______ _____ _____    ______ ____
ROOT
ATOM      1  C   UNL     1       2.599   3.801   0.018  0.00  0.00    +0.136 C 
ENDROOT
BRANCH   1   8
ATOM      2  C   UNL     1       3.099   4.342  -5.056  0.00  0.00    +0.044 C 
ATOM      3  C   UNL     1       3.939   3.741  -3.959  0.00  0.00    -0.046 A 
ATOM      4  C   UNL     1       5.185   3.195  -4.237  0.00  0.00    +0.021 A 
ATOM      5  C   UNL     1       5.930   2.653  -3.210  0.00  0.00    +0.084 A 
ATOM      6  C   UNL     1       4.291   3.158  -1.666  0.00  0.00    +0.097 A 
ATOM      7  C   UNL     1       3.486   3.721  -2.652  0.00  0.00    +0.045 A 
ATOM      8  N   UNL     1       3.849   3.131  -0.349  0.00  0.00    -0.320 N 
ATOM      9  H   UNL     1       4.368   2.669   0.328  0.00  0.00    +0.148 HD
ATOM     10  N   UNL     1       5.520   2.621  -1.913  0.00  0.00    -0.350 N 
ATOM     11  H   UNL     1       6.100   2.219  -1.167  0.00  0.00    +0.166 HD
ENDBRANCH   1   8
BRANCH   1  12
ATOM     12  C   UNL     1       1.440   2.868  -0.218  0.00  0.00    +0.021 A 
ATOM     13  C   UNL     1       1.645   1.492  -0.160  0.00  0.00    +0.010 A 
ATOM     14  C   UNL     1       0.619   0.621  -0.369  0.00  0.00    +0.010 A 
ATOM     15  C   UNL     1      -0.665   1.114  -0.653  0.00  0.00    +0.004 A 
ATOM     16  C   UNL     1      -1.749   0.245  -0.881  0.00  0.00    +0.011 A 
ATOM     17  C   UNL     1      -2.970   0.795  -1.153  0.00  0.00    +0.020 A 
ATOM     18  C   UNL     1      -3.113   2.180  -1.198  0.00  0.00    +0.111 A 
ATOM     19  N   UNL     1      -2.103   2.986  -0.975  0.00  0.00    -0.251 NA
ATOM     20  C   UNL     1      -0.883   2.512  -0.709  0.00  0.00    +0.113 A 
ATOM     21  C   UNL     1       0.204   3.384  -0.487  0.00  0.00    +0.148 A 
BRANCH  21  22
ATOM     22  O   UNL     1       0.023   4.729  -0.539  0.00  0.00    -0.504 OA
ATOM     23  H   UNL     1       0.154   5.109  -1.419  0.00  0.00    +0.292 HD
ENDBRANCH  21  22
ENDBRANCH   1  12
BRANCH   1  24
ATOM     24  C   UNL     1       2.644   4.187   1.474  0.00  0.00    -0.019 A 
ATOM     25  C   UNL     1       3.115   3.287   2.412  0.00  0.00    +0.009 A 
ATOM     26  C   UNL     1       3.164   3.638   3.748  0.00  0.00    +0.050 A 
ATOM     27  C   UNL     1       2.730   4.890   4.152  0.00  0.00    +0.162 A 
ATOM     28  C   UNL     1       2.250   5.794   3.209  0.00  0.00    +0.162 A 
ATOM     29  C   UNL     1       2.209   5.438   1.870  0.00  0.00    +0.055 A 
BRANCH  28  30
ATOM     30  O   UNL     1       1.823   7.025   3.600  0.00  0.00    -0.491 OA
ATOM     31  C   UNL     1       1.344   7.901   2.578  0.00  0.00    +0.277 C 
ENDBRANCH  28  30
BRANCH  27  32
ATOM     32  O   UNL     1       2.773   5.236   5.467  0.00  0.00    -0.484 OA
BRANCH  32  33
ATOM     33  C   UNL     1       3.277   4.257   6.378  0.00  0.00    +0.264 C 
BRANCH  33  34
ATOM     34  C   UNL     1       3.249   4.814   7.778  0.00  0.00    -0.010 A 
ATOM     35  C   UNL     1       4.345   5.495   8.273  0.00  0.00    +0.007 A 
ATOM     36  C   UNL     1       4.317   6.010   9.556  0.00  0.00    +0.000 A 
ATOM     37  C   UNL     1       3.198   5.834  10.347  0.00  0.00    +0.000 A 
ATOM     38  C   UNL     1       2.104   5.147   9.854  0.00  0.00    +0.000 A 
ATOM     39  C   UNL     1       2.129   4.637   8.570  0.00  0.00    +0.007 A 
ENDBRANCH  33  34
ENDBRANCH  32  33
ENDBRANCH  27  32
ENDBRANCH   1  24
TORSDOF 8
