REMARK  Name = ZINC05146069
REMARK  5 active torsions:
REMARK  status: ('A' for Active; 'I' for Inactive)
REMARK    1  A    between atoms: C_1  and  O_2
REMARK    2  A    between atoms: O_2  and  C_3
REMARK    3  A    between atoms: C_6  and  C_8
REMARK    4  A    between atoms: C_12  and  N_13
REMARK    5  A    between atoms: C_14  and  C_16
REMARK                            x       y       z     vdW  Elec       q    Type
REMARK                         _______ _______ _______ _____ _____    ______ ____
ROOT
ATOM      1  C   UNL     1       2.999  -1.642   1.747  0.00  0.00    +0.069 A 
ATOM      2  C   UNL     1       2.179  -0.684   1.016  0.00  0.00    -0.023 A 
ATOM      3  C   UNL     1       2.846   0.061   0.110  0.00  0.00    -0.004 A 
ATOM      4  S   UNL     1       4.530  -0.479   0.224  0.00  0.00    -0.077 S 
ATOM      5  C   UNL     1       4.354  -1.687   1.453  0.00  0.00    +0.085 A 
ATOM      6  C   UNL     1       2.288   1.105  -0.807  0.00  0.00    +0.043 C 
ATOM      7  C   UNL     1       1.406   2.067  -0.000  0.00  0.00    +0.005 C 
ATOM      8  C   UNL     1      -0.019   1.523   0.010  0.00  0.00    +0.001 C 
ATOM      9  C   UNL     1       0.002  -0.004   0.002  0.00  0.00    +0.005 C 
ATOM     10  C   UNL     1       0.683  -0.535   1.259  0.00  0.00    +0.037 C 
ENDROOT
BRANCH   1  14
ATOM     11  C   UNL     1       1.809  -2.944   4.972  0.00  0.00    +0.407 C 
ATOM     12  O   UNL     1       1.381  -4.034   4.650  0.00  0.00    -0.226 OA
ATOM     13  N   UNL     1       2.348  -2.130   4.043  0.00  0.00    -0.217 N 
ATOM     14  C   UNL     1       2.413  -2.526   2.756  0.00  0.00    +0.255 C 
ATOM     15  O   UNL     1       1.984  -3.619   2.433  0.00  0.00    -0.270 OA
ATOM     16  H   UNL     1       2.690  -1.260   4.300  0.00  0.00    +0.161 HD
BRANCH  11  18
ATOM     17  C   UNL     1       1.150  -3.477   7.203  0.00  0.00    +0.282 C 
ATOM     18  O   UNL     1       1.744  -2.549   6.257  0.00  0.00    -0.453 OA
ENDBRANCH  11  18
ENDBRANCH   1  14
BRANCH   5  19
ATOM     19  N   UNL     1       5.329  -2.500   2.006  0.00  0.00    -0.273 N 
ATOM     20  C   UNL     1       6.606  -2.401   1.589  0.00  0.00    +0.286 C 
ATOM     21  O   UNL     1       6.904  -1.597   0.725  0.00  0.00    -0.266 OA
ATOM     22  H   UNL     1       5.092  -3.141   2.695  0.00  0.00    +0.156 HD
BRANCH  20  23
ATOM     23  C   UNL     1       7.636  -3.260   2.174  0.00  0.00    +0.217 C 
ATOM     24  C   UNL     1       7.292  -4.137   3.128  0.00  0.00    +0.238 C 
ATOM     25  O   UNL     1       8.202  -4.952   3.703  0.00  0.00    -0.492 OA
ATOM     26  C   UNL     1       9.451  -5.111   3.020  0.00  0.00    +0.269 C 
ATOM     27  C   UNL     1       9.933  -3.721   2.578  0.00  0.00    +0.270 C 
ATOM     28  O   UNL     1       8.922  -3.147   1.741  0.00  0.00    -0.481 OA
ENDBRANCH  20  23
ENDBRANCH   5  19
TORSDOF 4
