REMARK  Name = ZINC35265306
REMARK  7 active torsions:
REMARK  status: ('A' for Active; 'I' for Inactive)
REMARK    1  A    between atoms: C_3  and  N_11
REMARK    2  A    between atoms: C_6  and  C_7
REMARK    3  A    between atoms: N_14  and  C_15
REMARK    4  A    between atoms: C_18  and  N_31
REMARK    5  A    between atoms: C_19  and  C_21
REMARK    6  A    between atoms: N_23  and  C_24
REMARK    7  A    between atoms: C_24  and  C_25
REMARK                            x       y       z     vdW  Elec       q    Type
REMARK                         _______ _______ _______ _____ _____    ______ ____
ROOT
ATOM      1  C   UNL     1       7.187   1.569   0.111  0.00  0.00    +0.036 A 
ATOM      2  C   UNL     1       7.210   0.177   0.096  0.00  0.00    +0.025 A 
ATOM      3  C   UNL     1       8.411  -0.500   0.077  0.00  0.00    +0.026 A 
ATOM      4  C   UNL     1       9.609   0.204   0.072  0.00  0.00    +0.042 A 
ATOM      5  C   UNL     1       9.593   1.607   0.087  0.00  0.00    +0.059 A 
ATOM      6  C   UNL     1       8.371   2.284   0.101  0.00  0.00    +0.038 A 
ENDROOT
BRANCH   1  10
ATOM      7  N   UNL     1       3.700   2.313   0.710  0.00  0.00    -0.269 N 
ATOM      8  C   UNL     1       4.905   1.714   0.778  0.00  0.00    +0.308 C 
ATOM      9  O   UNL     1       5.041   0.692   1.424  0.00  0.00    -0.252 OA
ATOM     10  N   UNL     1       5.960   2.248   0.131  0.00  0.00    -0.269 N 
ATOM     11  H   UNL     1       3.574   3.085   0.136  0.00  0.00    +0.156 HD
ATOM     12  H   UNL     1       5.871   3.101  -0.321  0.00  0.00    +0.156 HD
BRANCH   7  15
ATOM     13  C   UNL     1       1.807   0.769   3.458  0.00  0.00    +0.014 A 
ATOM     14  C   UNL     1       2.864   1.252   2.713  0.00  0.00    +0.024 A 
ATOM     15  C   UNL     1       2.631   1.822   1.468  0.00  0.00    +0.035 A 
ATOM     16  C   UNL     1       1.335   1.904   0.977  0.00  0.00    +0.024 A 
ATOM     17  C   UNL     1       0.281   1.419   1.728  0.00  0.00    +0.014 A 
ATOM     18  C   UNL     1       0.517   0.852   2.966  0.00  0.00    +0.055 A 
BRANCH  18  19
ATOM     19  C   UNL     1      -0.634   0.323   3.783  0.00  0.00    +0.417 C 
ATOM     20  F   UNL     1      -1.131   1.342   4.603  0.00  0.00    -0.166 F 
ATOM     21  F   UNL     1      -1.647  -0.122   2.926  0.00  0.00    -0.166 F 
ATOM     22  F   UNL     1      -0.194  -0.741   4.576  0.00  0.00    -0.166 F 
ENDBRANCH  18  19
ENDBRANCH   7  15
ENDBRANCH   1  10
BRANCH   4  23
ATOM     23  N   UNL     1      10.819  -0.480   0.054  0.00  0.00    -0.329 N 
ATOM     24  C   UNL     1      11.574  -0.919   1.237  0.00  0.00    +0.105 C 
ATOM     25  C   UNL     1      12.858  -1.609   0.731  0.00  0.00    +0.020 C 
ATOM     26  C   UNL     1      13.031  -1.020  -0.694  0.00  0.00    +0.020 C 
ATOM     27  C   UNL     1      11.556  -0.890  -1.156  0.00  0.00    +0.105 C 
ENDBRANCH   4  23
BRANCH   5  28
ATOM     28  C   UNL     1      10.859   2.362   0.083  0.00  0.00    +0.246 C 
ATOM     29  O   UNL     1      11.921   1.769   0.066  0.00  0.00    -0.270 OA
ATOM     30  N   UNL     1      10.840   3.710   0.097  0.00  0.00    -0.309 N 
ATOM     31  H   UNL     1       9.993   4.182   0.111  0.00  0.00    +0.149 HD
BRANCH  30  32
ATOM     32  C   UNL     1      12.098   4.460   0.093  0.00  0.00    +0.136 C 
BRANCH  32  33
ATOM     33  C   UNL     1      11.797   5.960   0.111  0.00  0.00    +0.135 C 
ATOM     34  C   UNL     1      13.115   6.774   0.072  0.00  0.00    +0.035 C 
ATOM     35  C   UNL     1      12.617   8.112  -0.540  0.00  0.00    +0.031 C 
ATOM     36  C   UNL     1      11.512   7.638  -1.508  0.00  0.00    +0.160 C 
ATOM     37  O   UNL     1      11.083   6.340  -1.076  0.00  0.00    -0.375 OA
ENDBRANCH  32  33
ENDBRANCH  30  32
ENDBRANCH   5  28
TORSDOF 7
