REMARK  Name = ZINC32964323
REMARK  8 active torsions:
REMARK  status: ('A' for Active; 'I' for Inactive)
REMARK    1  A    between atoms: C_1  and  C_2
REMARK    2  A    between atoms: C_7  and  O_8
REMARK    3  A    between atoms: O_8  and  C_9
REMARK    4  A    between atoms: C_9  and  C_10
REMARK    5  A    between atoms: C_16  and  C_17
REMARK    6  A    between atoms: N_21  and  C_22
REMARK    7  A    between atoms: C_25  and  O_29
REMARK    8  A    between atoms: O_29  and  C_30
REMARK                            x       y       z     vdW  Elec       q    Type
REMARK                         _______ _______ _______ _____ _____    ______ ____
ROOT
ATOM      1  C   UNL     1      -2.817   1.251   4.527  0.00  0.00    +0.137 C 
ATOM      2  N   UNL     1      -2.402   2.461   4.774  0.00  0.00    -0.166 NA
ATOM      3  N   UNL     1      -1.861   2.796   5.997  0.00  0.00    -0.152 N 
ATOM      4  C   UNL     1      -1.466   4.090   6.398  0.00  0.00    +0.153 C 
ATOM      5  N   UNL     1      -1.930   5.184   5.853  0.00  0.00    -0.283 NA
ATOM      6  C   UNL     1      -0.469   4.086   7.503  0.00  0.00    +0.082 C 
ATOM      7  C   UNL     1       0.511   5.059   7.603  0.00  0.00    +0.042 C 
ATOM      8  C   UNL     1      -0.582   2.988   8.490  0.00  0.00    +0.273 C 
ATOM      9  O   UNL     1      -0.158   3.120   9.627  0.00  0.00    -0.268 OA
ATOM     10  N   UNL     1      -1.166   1.838   8.097  0.00  0.00    -0.152 NA
ATOM     11  C   UNL     1      -1.723   1.776   6.914  0.00  0.00    +0.181 C 
ATOM     12  S   UNL     1      -2.472   0.410   6.066  0.00  0.00    -0.035 S 
ATOM     13  H   UNL     1      -2.634   5.133   5.186  0.00  0.00    +0.188 HD
ENDROOT
BRANCH   7  14
ATOM     14  C   UNL     1       0.677   6.001   6.570  0.00  0.00    +0.047 A 
ATOM     15  C   UNL     1       0.528   7.377   6.680  0.00  0.00    +0.027 A 
ATOM     16  C   UNL     1       0.784   7.918   5.420  0.00  0.00    +0.020 A 
ATOM     17  C   UNL     1       1.079   6.897   4.575  0.00  0.00    +0.092 A 
ATOM     18  N   UNL     1       1.023   5.727   5.261  0.00  0.00    -0.316 N 
BRANCH  18  19
ATOM     19  C   UNL     1       1.273   4.454   4.730  0.00  0.00    +0.048 A 
ATOM     20  C   UNL     1       2.229   3.632   5.314  0.00  0.00    +0.030 A 
ATOM     21  C   UNL     1       2.474   2.378   4.791  0.00  0.00    +0.049 A 
ATOM     22  C   UNL     1       1.767   1.938   3.682  0.00  0.00    +0.138 A 
ATOM     23  C   UNL     1       0.812   2.758   3.097  0.00  0.00    +0.084 A 
ATOM     24  C   UNL     1       0.561   4.011   3.624  0.00  0.00    +0.049 A 
ATOM     25 CL   UNL     1      -0.072   2.207   1.708  0.00  0.00    -0.080 Cl
BRANCH  22  26
ATOM     26  O   UNL     1       2.010   0.703   3.167  0.00  0.00    -0.494 OA
ATOM     27  C   UNL     1       2.924  -0.129   3.883  0.00  0.00    +0.277 C 
ENDBRANCH  22  26
ENDBRANCH  18  19
ENDBRANCH   7  14
BRANCH   1  28
ATOM     28  C   UNL     1      -3.435   0.702   3.267  0.00  0.00    +0.293 C 
BRANCH  28  29
ATOM     29  O   UNL     1      -3.621   1.761   2.326  0.00  0.00    -0.485 OA
BRANCH  29  36
ATOM     30  C   UNL     1      -4.174   3.866   0.526  0.00  0.00    +0.047 C 
ATOM     31  C   UNL     1      -4.453   2.422   0.198  0.00  0.00    -0.009 A 
ATOM     32  C   UNL     1      -4.996   2.083  -1.026  0.00  0.00    +0.007 A 
ATOM     33  C   UNL     1      -5.253   0.758  -1.327  0.00  0.00    +0.000 A 
ATOM     34  C   UNL     1      -4.967  -0.231  -0.404  0.00  0.00    +0.004 A 
ATOM     35  C   UNL     1      -4.424   0.103   0.821  0.00  0.00    +0.046 A 
ATOM     36  C   UNL     1      -4.160   1.431   1.124  0.00  0.00    +0.124 A 
ENDBRANCH  29  36
ENDBRANCH  28  29
ENDBRANCH   1  28
TORSDOF 6
