REMARK  Name = ZINC38806162
REMARK  9 active torsions:
REMARK  status: ('A' for Active; 'I' for Inactive)
REMARK    1  A    between atoms: C_1  and  C_2
REMARK    2  A    between atoms: C_2  and  C_26
REMARK    3  A    between atoms: C_5  and  C_22
REMARK    4  A    between atoms: C_6  and  N_13
REMARK    5  A    between atoms: C_9  and  C_11
REMARK    6  A    between atoms: C_9  and  C_12
REMARK    7  A    between atoms: C_14  and  C_16
REMARK    8  A    between atoms: C_22  and  O_24
REMARK    9  A    between atoms: O_24  and  C_25
REMARK                            x       y       z     vdW  Elec       q    Type
REMARK                         _______ _______ _______ _____ _____    ______ ____
ROOT
ATOM      1  C   UNL     1      -0.019   1.526   0.010  0.00  0.00    -0.010 C 
ATOM      2  C   UNL     1       0.002  -0.004   0.002  0.00  0.00    -0.069 C 
ATOM      3  C   UNL     1      -1.434  -0.533  -0.096  0.00  0.00    +0.024 C 
ATOM      4  C   UNL     1      -2.143  -0.138   1.190  0.00  0.00    -0.024 A 
ATOM      5  C   UNL     1      -3.548   0.161   1.354  0.00  0.00    +0.091 A 
ATOM      6  C   UNL     1      -3.973   0.507   2.631  0.00  0.00    +0.087 A 
ATOM      7  S   UNL     1      -2.577   0.437   3.562  0.00  0.00    -0.079 S 
ATOM      8  C   UNL     1      -1.412  -0.053   2.326  0.00  0.00    -0.016 A 
ATOM      9  C   UNL     1       0.047  -0.333   2.463  0.00  0.00    -0.041 C 
ATOM     10  N   UNL     1       0.700  -0.526   1.169  0.00  0.00    +0.389 N 
ATOM     11  C   UNL     1       0.719   0.815   3.229  0.00  0.00    -0.005 C 
ATOM     12  C   UNL     1       0.216  -1.619   3.296  0.00  0.00    -0.005 C 
ATOM     13  C   UNL     1       0.759  -0.459  -1.260  0.00  0.00    -0.010 C 
ATOM     14  H   UNL     1       0.858  -1.526   1.032  0.00  0.00    -0.084 HD
ATOM     15  H   UNL     1       1.629  -0.104   1.208  0.00  0.00    -0.084 HD
ENDROOT
BRANCH   6  16
ATOM     16  N   UNL     1      -5.255   0.833   3.041  0.00  0.00    -0.273 N 
ATOM     17  C   UNL     1      -5.491   1.146   4.330  0.00  0.00    +0.284 C 
ATOM     18  O   UNL     1      -4.578   1.141   5.135  0.00  0.00    -0.266 OA
ATOM     19  H   UNL     1      -5.982   0.837   2.399  0.00  0.00    +0.156 HD
BRANCH  17  20
ATOM     20  C   UNL     1      -6.847   1.491   4.763  0.00  0.00    +0.191 A 
ATOM     21  C   UNL     1      -7.223   1.832   6.032  0.00  0.00    +0.056 A 
ATOM     22  C   UNL     1      -8.602   2.081   5.992  0.00  0.00    +0.058 A 
ATOM     23  C   UNL     1      -9.006   1.884   4.715  0.00  0.00    +0.171 A 
ATOM     24  O   UNL     1      -7.944   1.535   3.977  0.00  0.00    -0.444 OA
ATOM     25 BR   UNL     1     -10.775   2.077   4.077  0.00  0.00    -0.008 Br
ENDBRANCH  17  20
ENDBRANCH   6  16
BRANCH   5  26
ATOM     26  C   UNL     1      -4.490   0.102   0.234  0.00  0.00    +0.342 C 
ATOM     27  O   UNL     1      -5.072  -0.936  -0.017  0.00  0.00    -0.245 OA
BRANCH  26  28
ATOM     28  O   UNL     1      -4.712   1.199  -0.519  0.00  0.00    -0.464 OA
ATOM     29  C   UNL     1      -5.644   1.070  -1.595  0.00  0.00    +0.280 C 
ENDBRANCH  26  28
ENDBRANCH   5  26
TORSDOF 4
