REMARK  Name = ZINC39677000
REMARK  10 active torsions:
REMARK  status: ('A' for Active; 'I' for Inactive)
REMARK    1  A    between atoms: C_1  and  C_2
REMARK    2  A    between atoms: C_2  and  C_3
REMARK    3  A    between atoms: C_3  and  C_5
REMARK    4  A    between atoms: C_3  and  C_11
REMARK    5  A    between atoms: C_15  and  C_24
REMARK    6  A    between atoms: N_26  and  C_27
REMARK    7  A    between atoms: C_27  and  C_28
REMARK    8  A    between atoms: C_28  and  C_29
REMARK    9  A    between atoms: C_31  and  C_36
REMARK   10  A    between atoms: C_34  and  C_35
REMARK                            x       y       z     vdW  Elec       q    Type
REMARK                         _______ _______ _______ _____ _____    ______ ____
ROOT
ATOM      1  C   UNL     1       0.515  -1.734  -1.205  0.00  0.00    +0.223 C 
ATOM      2  O   UNL     1       1.578  -2.316  -1.175  0.00  0.00    -0.275 OA
ATOM      3  N   UNL     1      -0.634  -2.432  -1.300  0.00  0.00    -0.300 N 
ATOM      4  C   UNL     1      -2.017  -1.902  -1.357  0.00  0.00    +0.121 C 
ATOM      5  C   UNL     1      -2.737  -2.801  -2.386  0.00  0.00    +0.100 C 
ATOM      6  C   UNL     1      -1.935  -4.113  -2.390  0.00  0.00    -0.004 C 
ATOM      7  C   UNL     1      -0.799  -3.903  -1.379  0.00  0.00    +0.115 C 
ATOM      8  C   UNL     1      -2.822  -5.276  -1.956  0.00  0.00    -0.010 C 
ATOM      9  C   UNL     1      -2.019  -6.578  -2.024  0.00  0.00    -0.082 C 
ATOM     10  N   UNL     1      -1.539  -6.788  -3.396  0.00  0.00    +0.379 N 
ATOM     11  C   UNL     1      -0.613  -5.713  -3.772  0.00  0.00    -0.082 C 
ATOM     12  C   UNL     1      -1.357  -4.375  -3.778  0.00  0.00    -0.010 C 
ATOM     13  H   UNL     1      -1.062  -7.676  -3.452  0.00  0.00    -0.086 HD
ATOM     14  H   UNL     1      -2.325  -6.791  -4.029  0.00  0.00    -0.086 HD
ENDROOT
BRANCH   5  15
ATOM     15  C   UNL     1      -2.711  -2.162  -3.751  0.00  0.00    +0.218 C 
ATOM     16  O   UNL     1      -1.787  -1.442  -4.065  0.00  0.00    -0.275 OA
ATOM     17  N   UNL     1      -3.713  -2.392  -4.622  0.00  0.00    -0.315 N 
ATOM     18  H   UNL     1      -4.451  -2.968  -4.371  0.00  0.00    +0.149 HD
BRANCH  17  19
ATOM     19  C   UNL     1      -3.686  -1.771  -5.949  0.00  0.00    +0.109 C 
BRANCH  19  20
ATOM     20  C   UNL     1      -4.931  -2.192  -6.734  0.00  0.00    +0.054 C 
BRANCH  20  21
ATOM     21  C   UNL     1      -4.904  -1.553  -8.098  0.00  0.00    -0.043 A 
ATOM     22  C   UNL     1      -5.567  -0.360  -8.316  0.00  0.00    +0.007 A 
ATOM     23  C   UNL     1      -5.542   0.226  -9.568  0.00  0.00    -0.050 A 
ATOM     24  C   UNL     1      -4.854  -0.381 -10.602  0.00  0.00    +0.003 A 
ATOM     25  C   UNL     1      -4.190  -1.573 -10.383  0.00  0.00    +0.004 A 
ATOM     26  C   UNL     1      -4.211  -2.157  -9.130  0.00  0.00    -0.047 A 
ATOM     27  C   UNL     1      -3.482  -3.454  -8.891  0.00  0.00    +0.044 C 
ATOM     28  C   UNL     1      -6.266   1.526  -9.806  0.00  0.00    +0.044 C 
ENDBRANCH  20  21
ENDBRANCH  19  20
ENDBRANCH  17  19
ENDBRANCH   5  15
BRANCH   1  29
ATOM     29  C   UNL     1       0.478  -0.229  -1.136  0.00  0.00    +0.105 C 
BRANCH  29  30
ATOM     30  C   UNL     1       1.885   0.304  -1.034  0.00  0.00    -0.036 A 
ATOM     31  C   UNL     1       2.688  -0.065   0.029  0.00  0.00    +0.004 A 
ATOM     32  C   UNL     1       3.978   0.424   0.122  0.00  0.00    +0.000 A 
ATOM     33  C   UNL     1       4.465   1.280  -0.848  0.00  0.00    +0.000 A 
ATOM     34  C   UNL     1       3.661   1.648  -1.911  0.00  0.00    +0.000 A 
ATOM     35  C   UNL     1       2.373   1.156  -2.007  0.00  0.00    +0.004 A 
ENDBRANCH  29  30
BRANCH  29  37
ATOM     36  C   UNL     1      -0.465   1.730   0.097  0.00  0.00    +0.005 C 
ATOM     37  C   UNL     1      -0.322   0.206   0.094  0.00  0.00    +0.014 C 
ENDBRANCH  29  37
ENDBRANCH   1  29
TORSDOF 7
