REMARK  Name = ZINC00866077
REMARK  9 active torsions:
REMARK  status: ('A' for Active; 'I' for Inactive)
REMARK    1  A    between atoms: C_1  and  O_2
REMARK    2  A    between atoms: O_2  and  C_3
REMARK    3  A    between atoms: C_6  and  C_11
REMARK    4  A    between atoms: C_8  and  O_9
REMARK    5  A    between atoms: O_9  and  C_10
REMARK    6  A    between atoms: C_14  and  C_35
REMARK    7  A    between atoms: C_18  and  C_21
REMARK    8  A    between atoms: N_23  and  C_24
REMARK    9  A    between atoms: C_28  and  C_30
REMARK                            x       y       z     vdW  Elec       q    Type
REMARK                         _______ _______ _______ _____ _____    ______ ____
ROOT
ATOM      1  C   UNL     1       2.505  -2.499  -4.387  0.00  0.00    +0.104 C 
ATOM      2  C   UNL     1       1.562  -2.506  -5.595  0.00  0.00    +0.063 C 
ATOM      3  C   UNL     1       1.145  -1.071  -5.937  0.00  0.00    +0.215 C 
ATOM      4  N   UNL     1       2.346  -0.233  -6.009  0.00  0.00    -0.238 N 
ATOM      5  C   UNL     1       3.532  -0.572  -5.451  0.00  0.00    +0.130 A 
ATOM      6  C   UNL     1       4.427   0.446  -5.720  0.00  0.00    +0.096 A 
ATOM      7  C   UNL     1       3.722   1.422  -6.470  0.00  0.00    +0.149 A 
ATOM      8  N   UNL     1       2.495   1.005  -6.631  0.00  0.00    -0.177 NA
ATOM      9  N   UNL     1       3.727  -1.753  -4.747  0.00  0.00    -0.322 N 
ATOM     10  H   UNL     1       4.611  -2.071  -4.507  0.00  0.00    +0.148 HD
ENDROOT
BRANCH   1  14
ATOM     11  C   UNL     1       0.584  -0.590  -1.077  0.00  0.00    +0.162 A 
ATOM     12  C   UNL     1       1.155   0.172  -2.084  0.00  0.00    +0.050 A 
ATOM     13  C   UNL     1       1.776  -0.448  -3.152  0.00  0.00    +0.009 A 
ATOM     14  C   UNL     1       1.828  -1.828  -3.220  0.00  0.00    -0.024 A 
ATOM     15  C   UNL     1       1.260  -2.594  -2.219  0.00  0.00    +0.054 A 
ATOM     16  C   UNL     1       0.641  -1.979  -1.142  0.00  0.00    +0.162 A 
BRANCH  11  18
ATOM     17  C   UNL     1      -0.047   1.447  -0.025  0.00  0.00    +0.277 C 
ATOM     18  O   UNL     1      -0.026   0.019  -0.025  0.00  0.00    -0.491 OA
ENDBRANCH  11  18
BRANCH  16  19
ATOM     19  O   UNL     1       0.087  -2.731  -0.154  0.00  0.00    -0.491 OA
ATOM     20  C   UNL     1       0.184  -4.150  -0.287  0.00  0.00    +0.277 C 
ENDBRANCH  16  19
ENDBRANCH   1  14
BRANCH   6  21
ATOM     21  C   UNL     1       5.835   0.507  -5.309  0.00  0.00    +0.253 C 
ATOM     22  O   UNL     1       6.320  -0.404  -4.664  0.00  0.00    -0.270 OA
ATOM     23  N   UNL     1       6.590   1.571  -5.647  0.00  0.00    -0.281 N 
ATOM     24  H   UNL     1       6.224   2.264  -6.218  0.00  0.00    +0.155 HD
BRANCH  23  25
ATOM     25  C   UNL     1       7.902   1.675  -5.175  0.00  0.00    +0.034 A 
ATOM     26  C   UNL     1       8.430   2.918  -4.853  0.00  0.00    +0.023 A 
ATOM     27  C   UNL     1       9.726   3.018  -4.387  0.00  0.00    +0.002 A 
ATOM     28  C   UNL     1      10.499   1.880  -4.240  0.00  0.00    +0.012 A 
ATOM     29  C   UNL     1       9.977   0.640  -4.560  0.00  0.00    +0.057 A 
ATOM     30  C   UNL     1       8.679   0.534  -5.021  0.00  0.00    +0.035 A 
BRANCH  29  31
ATOM     31  C   UNL     1      10.823  -0.597  -4.399  0.00  0.00    +0.417 C 
ATOM     32  F   UNL     1      12.086  -0.238  -3.916  0.00  0.00    -0.166 F 
ATOM     33  F   UNL     1      10.207  -1.468  -3.494  0.00  0.00    -0.166 F 
ATOM     34  F   UNL     1      10.960  -1.232  -5.638  0.00  0.00    -0.166 F 
ENDBRANCH  29  31
ENDBRANCH  23  25
ENDBRANCH   6  21
BRANCH   3  35
ATOM     35  C   UNL     1       0.423  -1.055  -7.287  0.00  0.00    +0.412 C 
ATOM     36  F   UNL     1      -0.714  -1.866  -7.217  0.00  0.00    -0.168 F 
ATOM     37  F   UNL     1       0.044   0.255  -7.597  0.00  0.00    -0.168 F 
ATOM     38  F   UNL     1       1.281  -1.540  -8.280  0.00  0.00    -0.168 F 
ENDBRANCH   3  35
TORSDOF 7
