REMARK  Name = ZINC36217079
REMARK  11 active torsions:
REMARK  status: ('A' for Active; 'I' for Inactive)
REMARK    1  A    between atoms: C_1  and  C_2
REMARK    2  A    between atoms: C_5  and  C_8
REMARK    3  A    between atoms: C_8  and  N_9
REMARK    4  A    between atoms: C_10  and  C_33
REMARK    5  A    between atoms: C_12  and  C_17
REMARK    6  A    between atoms: C_20  and  N_23
REMARK    7  A    between atoms: C_24  and  C_26
REMARK    8  A    between atoms: C_30  and  C_32
REMARK    9  A    between atoms: N_35  and  C_36
REMARK   10  A    between atoms: C_36  and  C_37
REMARK   11  A    between atoms: C_36  and  C_38
REMARK                            x       y       z     vdW  Elec       q    Type
REMARK                         _______ _______ _______ _____ _____    ______ ____
ROOT
ATOM      1  N   UNL     1       1.487  -4.834   0.148  0.00  0.00    -0.248 N 
ATOM      2  C   UNL     1       2.201  -5.150  -1.104  0.00  0.00    +0.210 C 
ATOM      3  C   UNL     1       3.682  -5.093  -0.660  0.00  0.00    +0.238 C 
ATOM      4  O   UNL     1       3.581  -5.352   0.754  0.00  0.00    -0.440 OA
ATOM      5  C   UNL     1       2.365  -4.952   1.162  0.00  0.00    +0.405 C 
ATOM      6  O   UNL     1       2.086  -4.724   2.323  0.00  0.00    -0.226 OA
ENDROOT
BRANCH   3   7
ATOM      7  C   UNL     1       4.492  -6.162  -1.347  0.00  0.00    -0.005 A 
ATOM      8  C   UNL     1       4.452  -7.464  -0.882  0.00  0.00    +0.009 A 
ATOM      9  C   UNL     1       5.192  -8.447  -1.509  0.00  0.00    +0.024 A 
ATOM     10  C   UNL     1       5.979  -8.126  -2.608  0.00  0.00    +0.034 A 
ATOM     11  C   UNL     1       6.017  -6.818  -3.073  0.00  0.00    +0.024 A 
ATOM     12  C   UNL     1       5.270  -5.841  -2.444  0.00  0.00    +0.009 A 
BRANCH  10  13
ATOM     13  N   UNL     1       6.730  -9.118  -3.245  0.00  0.00    -0.282 N 
ATOM     14  C   UNL     1       7.921  -8.811  -3.797  0.00  0.00    +0.248 C 
ATOM     15  O   UNL     1       8.386  -7.697  -3.659  0.00  0.00    -0.270 OA
ATOM     16  H   UNL     1       6.395 -10.027  -3.290  0.00  0.00    +0.155 HD
BRANCH  14  17
ATOM     17  C   UNL     1       8.661  -9.830  -4.571  0.00  0.00    +0.037 A 
ATOM     18  C   UNL     1       8.127 -11.109  -4.737  0.00  0.00    +0.013 A 
ATOM     19  C   UNL     1       8.823 -12.055  -5.460  0.00  0.00    +0.001 A 
ATOM     20  C   UNL     1      10.049 -11.739  -6.021  0.00  0.00    +0.003 A 
ATOM     21  C   UNL     1      10.583 -10.473  -5.860  0.00  0.00    -0.050 A 
ATOM     22  C   UNL     1       9.895  -9.515  -5.144  0.00  0.00    +0.016 A 
ATOM     23  C   UNL     1      11.918 -10.137  -6.474  0.00  0.00    +0.044 C 
ENDBRANCH  14  17
ENDBRANCH  10  13
ENDBRANCH   3   7
BRANCH   2  24
ATOM     24  C   UNL     1       1.837  -6.527  -1.597  0.00  0.00    +0.238 C 
ATOM     25  O   UNL     1       1.336  -7.330  -0.839  0.00  0.00    -0.274 OA
ATOM     26  N   UNL     1       2.070  -6.867  -2.880  0.00  0.00    -0.311 N 
ATOM     27  H   UNL     1       2.471  -6.225  -3.487  0.00  0.00    +0.149 HD
BRANCH  26  28
ATOM     28  C   UNL     1       1.716  -8.205  -3.359  0.00  0.00    +0.067 C 
ATOM     29  C   UNL     1       0.243  -8.226  -3.774  0.00  0.00    +0.027 C 
ATOM     30  C   UNL     1       2.589  -8.564  -4.563  0.00  0.00    +0.027 C 
ENDBRANCH  26  28
ENDBRANCH   2  24
BRANCH   1  31
ATOM     31  C   UNL     1       0.077  -4.455   0.266  0.00  0.00    +0.147 C 
BRANCH  31  36
ATOM     32  C   UNL     1      -0.416   1.288  -0.148  0.00  0.00    +0.044 C 
ATOM     33  C   UNL     1      -0.287  -0.210  -0.040  0.00  0.00    -0.050 A 
ATOM     34  C   UNL     1      -0.353  -0.993  -1.177  0.00  0.00    +0.003 A 
ATOM     35  C   UNL     1      -0.234  -2.367  -1.078  0.00  0.00    +0.005 A 
ATOM     36  C   UNL     1      -0.051  -2.957   0.158  0.00  0.00    -0.030 A 
ATOM     37  C   UNL     1       0.015  -2.174   1.295  0.00  0.00    +0.005 A 
ATOM     38  C   UNL     1      -0.098  -0.800   1.196  0.00  0.00    +0.003 A 
ENDBRANCH  31  36
ENDBRANCH   1  31
TORSDOF 7
