REMARK  Name = ZINC07987370
REMARK  9 active torsions:
REMARK  status: ('A' for Active; 'I' for Inactive)
REMARK    1  A    between atoms: C_1  and  C_2
REMARK    2  A    between atoms: C_2  and  N_52
REMARK    3  A    between atoms: C_8  and  N_15
REMARK    4  A    between atoms: C_9  and  C_10
REMARK    5  A    between atoms: C_10  and  O_12
REMARK    6  A    between atoms: O_12  and  C_13
REMARK    7  A    between atoms: C_13  and  C_14
REMARK    8  A    between atoms: N_18  and  C_19
REMARK    9  A    between atoms: C_22  and  C_25
REMARK                            x       y       z     vdW  Elec       q    Type
REMARK                         _______ _______ _______ _____ _____    ______ ____
ROOT
ATOM      1  C   UNL     1       6.867   9.619   1.141  0.00  0.00    -0.074 C 
ATOM      2  C   UNL     1       5.419   9.550   0.647  0.00  0.00    +0.018 C 
ATOM      3  C   UNL     1       5.032   8.081   0.513  0.00  0.00    -0.025 A 
ATOM      4  C   UNL     1       5.990   7.129   0.466  0.00  0.00    -0.021 A 
ATOM      5  S   UNL     1       5.106   5.605   0.313  0.00  0.00    -0.079 S 
ATOM      6  C   UNL     1       3.486   6.221   0.309  0.00  0.00    +0.087 A 
ATOM      7  C   UNL     1       3.668   7.594   0.421  0.00  0.00    +0.091 A 
ATOM      8  C   UNL     1       7.469   7.353   0.532  0.00  0.00    -0.035 C 
ATOM      9  N   UNL     1       7.723   8.790   0.268  0.00  0.00    +0.383 N 
ATOM     10  H   UNL     1       7.497   8.995  -0.712  0.00  0.00    -0.081 HD
ENDROOT
BRANCH   6  11
ATOM     11  N   UNL     1       2.297   5.515   0.212  0.00  0.00    -0.263 N 
ATOM     12  C   UNL     1       2.318   4.172   0.104  0.00  0.00    +0.308 C 
ATOM     13  O   UNL     1       3.379   3.579   0.091  0.00  0.00    -0.252 OA
ATOM     14  N   UNL     1       1.162   3.485   0.009  0.00  0.00    -0.269 N 
ATOM     15  H   UNL     1       1.450   5.988   0.222  0.00  0.00    +0.157 HD
ATOM     16  H   UNL     1       0.319   3.961  -0.058  0.00  0.00    +0.156 HD
BRANCH  14  17
ATOM     17  C   UNL     1       1.177   2.086   0.009  0.00  0.00    +0.035 A 
ATOM     18  C   UNL     1       2.133   1.400   0.746  0.00  0.00    +0.023 A 
ATOM     19  C   UNL     1       2.145   0.019   0.744  0.00  0.00    +0.005 A 
ATOM     20  C   UNL     1       1.206  -0.681   0.009  0.00  0.00    -0.050 A 
ATOM     21  C   UNL     1       0.252  -0.001  -0.727  0.00  0.00    +0.005 A 
ATOM     22  C   UNL     1       0.235   1.380  -0.729  0.00  0.00    +0.023 A 
ATOM     23  C   UNL     1       1.222  -2.188   0.008  0.00  0.00    +0.044 C 
ENDBRANCH  14  17
ENDBRANCH   6  11
BRANCH   9  25
ATOM     24  C   UNL     1       9.494   8.912   1.988  0.00  0.00    -0.017 C 
ATOM     25  C   UNL     1       9.147   9.105   0.510  0.00  0.00    -0.082 C 
ENDBRANCH   9  25
BRANCH   7  26
ATOM     26  C   UNL     1       2.529   8.512   0.450  0.00  0.00    +0.342 C 
ATOM     27  O   UNL     1       2.017   8.814   1.511  0.00  0.00    -0.245 OA
BRANCH  26  28
ATOM     28  O   UNL     1       2.046   9.024  -0.701  0.00  0.00    -0.461 OA
BRANCH  28  29
ATOM     29  C   UNL     1       0.914   9.928  -0.597  0.00  0.00    +0.229 C 
ATOM     30  C   UNL     1       0.511  10.403  -1.994  0.00  0.00    +0.048 C 
ENDBRANCH  28  29
ENDBRANCH  26  28
ENDBRANCH   7  26
TORSDOF 6
