REMARK  Name = ZINC11981010
REMARK  9 active torsions:
REMARK  status: ('A' for Active; 'I' for Inactive)
REMARK    1  A    between atoms: C_1  and  C_2
REMARK    2  A    between atoms: C_2  and  C_4
REMARK    3  A    between atoms: C_2  and  C_14
REMARK    4  A    between atoms: C_4  and  C_5
REMARK    5  A    between atoms: C_14  and  N_64
REMARK    6  A    between atoms: C_21  and  C_23
REMARK    7  A    between atoms: N_25  and  C_26
REMARK    8  A    between atoms: C_29  and  S_32
REMARK    9  A    between atoms: S_32  and  C_33
REMARK                            x       y       z     vdW  Elec       q    Type
REMARK                         _______ _______ _______ _____ _____    ______ ____
ROOT
ATOM      1  C   UNL     1       5.534  -1.172   6.133  0.00  0.00    -0.078 C 
ATOM      2  C   UNL     1       5.199  -0.435   7.434  0.00  0.00    -0.011 C 
ATOM      3  C   UNL     1       6.423  -0.485   8.354  0.00  0.00    -0.021 C 
ATOM      4  C   UNL     1       7.733  -0.028   7.704  0.00  0.00    -0.011 C 
ATOM      5  C   UNL     1       7.918  -0.789   6.386  0.00  0.00    -0.078 C 
ATOM      6  C   UNL     1       6.216  -0.176   9.835  0.00  0.00    +0.020 C 
ATOM      7  C   UNL     1       6.495  -1.611   9.383  0.00  0.00    +0.082 C 
ATOM      8  N   UNL     1       6.735  -0.554   5.529  0.00  0.00    +0.380 N 
ATOM      9  H   UNL     1       6.581   0.458   5.446  0.00  0.00    -0.082 HD
ENDROOT
BRANCH   7  10
ATOM     10  C   UNL     1       5.349  -2.589   9.426  0.00  0.00    +0.221 C 
ATOM     11  O   UNL     1       4.371  -2.348  10.101  0.00  0.00    -0.275 OA
ATOM     12  N   UNL     1       5.412  -3.732   8.714  0.00  0.00    -0.285 N 
ATOM     13  H   UNL     1       6.159  -3.891   8.117  0.00  0.00    +0.155 HD
BRANCH  12  14
ATOM     14  C   UNL     1       4.397  -4.691   8.838  0.00  0.00    +0.033 A 
ATOM     15  C   UNL     1       3.758  -4.872  10.057  0.00  0.00    +0.024 A 
ATOM     16  C   UNL     1       2.755  -5.813  10.178  0.00  0.00    +0.016 A 
ATOM     17  C   UNL     1       2.392  -6.586   9.081  0.00  0.00    +0.008 A 
ATOM     18  C   UNL     1       3.036  -6.408   7.863  0.00  0.00    +0.016 A 
ATOM     19  C   UNL     1       4.035  -5.463   7.742  0.00  0.00    +0.024 A 
BRANCH  17  20
ATOM     20  S   UNL     1       1.117  -7.792   9.236  0.00  0.00    -0.129 S 
ATOM     21  C   UNL     1       0.593  -7.657  10.968  0.00  0.00    +0.090 C 
ENDBRANCH  17  20
ENDBRANCH  12  14
ENDBRANCH   7  10
BRANCH   8  22
ATOM     22  C   UNL     1       6.968  -1.115   4.184  0.00  0.00    -0.075 C 
BRANCH  22  24
ATOM     23  C   UNL     1       5.335   0.518   3.232  0.00  0.00    +0.006 C 
ATOM     24  C   UNL     1       5.692  -0.964   3.354  0.00  0.00    -0.026 C 
BRANCH  24  25
ATOM     25  C   UNL     1       5.918  -1.550   1.959  0.00  0.00    +0.036 C 
BRANCH  25  26
ATOM     26  C   UNL     1       4.627  -1.513   1.183  0.00  0.00    -0.043 A 
ATOM     27  C   UNL     1       3.757  -2.586   1.240  0.00  0.00    +0.007 A 
ATOM     28  C   UNL     1       2.571  -2.557   0.530  0.00  0.00    +0.050 A 
ATOM     29  C   UNL     1       2.252  -1.451  -0.241  0.00  0.00    +0.166 A 
ATOM     30  C   UNL     1       3.129  -0.370  -0.299  0.00  0.00    +0.166 A 
ATOM     31  C   UNL     1       4.316  -0.407   0.415  0.00  0.00    +0.053 A 
ATOM     32  O   UNL     1       2.594   0.582  -1.117  0.00  0.00    -0.453 OA
ATOM     33  C   UNL     1       1.198   0.249  -1.234  0.00  0.00    +0.466 C 
ATOM     34  O   UNL     1       1.167  -1.175  -1.023  0.00  0.00    -0.453 OA
ENDBRANCH  25  26
ENDBRANCH  24  25
ENDBRANCH  22  24
ENDBRANCH   8  22
TORSDOF 7
