REMARK  Name = ZINC59169865
REMARK  14 active torsions:
REMARK  status: ('A' for Active; 'I' for Inactive)
REMARK    1  A    between atoms: C_1  and  C_2
REMARK    2  A    between atoms: C_6  and  N_9
REMARK    3  A    between atoms: C_7  and  C_8
REMARK    4  A    between atoms: N_9  and  C_10
REMARK    5  A    between atoms: C_10  and  N_12
REMARK    6  A    between atoms: N_12  and  C_13
REMARK    7  A    between atoms: N_12  and  C_22
REMARK    8  A    between atoms: C_13  and  C_14
REMARK    9  A    between atoms: C_17  and  O_20
REMARK   10  A    between atoms: O_20  and  C_21
REMARK   11  A    between atoms: C_24  and  C_30
REMARK   12  A    between atoms: C_24  and  C_31
REMARK   13  A    between atoms: C_26  and  C_28
REMARK   14  A    between atoms: C_26  and  C_29
REMARK                            x       y       z     vdW  Elec       q    Type
REMARK                         _______ _______ _______ _____ _____    ______ ____
ROOT
ATOM      1  N   UNL     1      -0.413  -4.766   3.572  0.00  0.00    -0.305 N 
ENDROOT
BRANCH   1   2
ATOM      2  C   UNL     1      -0.559  -4.020   4.828  0.00  0.00    +0.073 C 
ATOM      3  C   UNL     1      -1.680  -2.991   4.675  0.00  0.00    +0.009 C 
ATOM      4  C   UNL     1      -1.836  -2.197   5.971  0.00  0.00    -0.072 C 
ATOM      5  N   UNL     1      -0.582  -1.597   6.401  0.00  0.00    +0.386 N 
ATOM      6  C   UNL     1       0.607  -2.434   6.391  0.00  0.00    -0.072 C 
ATOM      7  C   UNL     1       0.741  -3.273   5.124  0.00  0.00    +0.009 C 
ATOM      8  C   UNL     1       1.836  -1.496   6.452  0.00  0.00    -0.010 C 
ATOM      9  C   UNL     1       0.673  -3.338   7.625  0.00  0.00    -0.010 C 
ATOM     10  C   UNL     1      -2.455  -3.077   7.058  0.00  0.00    -0.010 C 
ATOM     11  C   UNL     1      -2.832  -1.049   5.689  0.00  0.00    -0.010 C 
ATOM     12  H   UNL     1      -0.403  -0.776   5.816  0.00  0.00    -0.084 HD
ATOM     13  H   UNL     1      -0.710  -1.228   7.347  0.00  0.00    -0.084 HD
ENDBRANCH   1   2
BRANCH   1  14
ATOM     14  C   UNL     1      -0.236  -4.103   2.412  0.00  0.00    +0.138 C 
ATOM     15  S   UNL     1      -0.198  -4.963   0.932  0.00  0.00    -0.018 S 
BRANCH  14  16
ATOM     16  N   UNL     1      -0.088  -2.764   2.417  0.00  0.00    -0.297 N 
ATOM     17  H   UNL     1      -0.035  -2.285   3.258  0.00  0.00    +0.154 HD
BRANCH  16  23
ATOM     18  C   UNL     1      -1.596   0.953  -0.427  0.00  0.00    +0.044 C 
ATOM     19  C   UNL     1      -0.730  -0.259  -0.197  0.00  0.00    -0.046 A 
ATOM     20  C   UNL     1       0.144  -0.680  -1.184  0.00  0.00    +0.004 A 
ATOM     21  C   UNL     1       0.940  -1.792  -0.977  0.00  0.00    +0.002 A 
ATOM     22  C   UNL     1       0.866  -2.485   0.215  0.00  0.00    +0.023 A 
ATOM     23  C   UNL     1      -0.010  -2.064   1.208  0.00  0.00    +0.036 A 
ATOM     24  C   UNL     1      -0.805  -0.944   0.999  0.00  0.00    -0.026 A 
ATOM     25  C   UNL     1      -1.752  -0.480   2.076  0.00  0.00    +0.046 C 
ENDBRANCH  16  23
ENDBRANCH  14  16
ENDBRANCH   1  14
BRANCH   1  26
ATOM     26  C   UNL     1      -0.461  -6.230   3.579  0.00  0.00    +0.142 C 
BRANCH  26  27
ATOM     27  C   UNL     1       0.929  -6.777   3.771  0.00  0.00    -0.030 A 
ATOM     28  C   UNL     1       1.728  -7.034   2.672  0.00  0.00    +0.009 A 
ATOM     29  C   UNL     1       3.003  -7.536   2.846  0.00  0.00    +0.046 A 
ATOM     30  C   UNL     1       3.482  -7.782   4.125  0.00  0.00    +0.120 A 
ATOM     31  C   UNL     1       2.679  -7.524   5.226  0.00  0.00    +0.046 A 
ATOM     32  C   UNL     1       1.407  -7.017   5.047  0.00  0.00    +0.009 A 
BRANCH  30  33
ATOM     33  O   UNL     1       4.737  -8.277   4.298  0.00  0.00    -0.495 OA
ATOM     34  C   UNL     1       5.163  -8.506   5.642  0.00  0.00    +0.277 C 
ENDBRANCH  30  33
ENDBRANCH  26  27
ENDBRANCH   1  26
TORSDOF 7
