REMARK  Name = ZINC28396934
REMARK  10 active torsions:
REMARK  status: ('A' for Active; 'I' for Inactive)
REMARK    1  A    between atoms: C_1  and  C_2
REMARK    2  A    between atoms: C_2  and  N_3
REMARK    3  A    between atoms: C_4  and  C_6
REMARK    4  A    between atoms: C_9  and  C_12
REMARK    5  A    between atoms: C_12  and  C_30
REMARK    6  A    between atoms: N_22  and  C_23
REMARK    7  A    between atoms: C_23  and  C_24
REMARK    8  A    between atoms: C_33  and  C_36
REMARK    9  A    between atoms: N_38  and  C_39
REMARK   10  A    between atoms: N_38  and  C_40
REMARK                            x       y       z     vdW  Elec       q    Type
REMARK                         _______ _______ _______ _____ _____    ______ ____
ROOT
ATOM      1  C   UNL     1      -5.319   1.239   4.708  0.00  0.00    -0.012 C 
ATOM      2  C   UNL     1      -4.202   0.713   4.187  0.00  0.00    -0.064 C 
ATOM      3  C   UNL     1      -4.141  -0.746   3.782  0.00  0.00    +0.016 C 
ATOM      4  C   UNL     1      -3.477  -0.821   2.395  0.00  0.00    -0.064 C 
ATOM      5  C   UNL     1      -4.255   0.114   1.444  0.00  0.00    -0.016 C 
ATOM      6  C   UNL     1      -3.555   1.483   1.565  0.00  0.00    -0.016 C 
ATOM      7  C   UNL     1      -2.412   1.261   2.579  0.00  0.00    -0.064 C 
ATOM      8  C   UNL     1      -2.961   1.560   3.986  0.00  0.00    +0.016 C 
ATOM      9  N   UNL     1      -2.132  -0.198   2.512  0.00  0.00    +0.388 N 
ATOM     10  H   UNL     1      -1.567  -0.564   3.382  0.00  0.00    -0.080 HD
ENDROOT
BRANCH   1  14
ATOM     11  C   UNL     1      -5.420   5.343   5.826  0.00  0.00    +0.037 A 
ATOM     12  C   UNL     1      -6.233   4.880   4.788  0.00  0.00    +0.013 A 
ATOM     13  C   UNL     1      -6.200   3.553   4.427  0.00  0.00    +0.009 A 
ATOM     14  C   UNL     1      -5.354   2.668   5.097  0.00  0.00    -0.017 A 
ATOM     15  C   UNL     1      -4.545   3.127   6.138  0.00  0.00    +0.009 A 
ATOM     16  C   UNL     1      -4.574   4.456   6.497  0.00  0.00    +0.013 A 
BRANCH  11  18
ATOM     17  N   UNL     1      -4.671   7.212   7.216  0.00  0.00    -0.312 N 
ATOM     18  C   UNL     1      -5.455   6.767   6.214  0.00  0.00    +0.244 C 
ATOM     19  O   UNL     1      -6.192   7.538   5.631  0.00  0.00    -0.270 OA
ATOM     20  H   UNL     1      -4.004   6.515   7.744  0.00  0.00    +0.149 HD
BRANCH  17  22
ATOM     21  C   UNL     1      -3.729   8.864   8.754  0.00  0.00    +0.024 C 
ATOM     22  C   UNL     1      -4.706   8.625   7.601  0.00  0.00    +0.101 C 
ENDBRANCH  17  22
ENDBRANCH  11  18
ENDBRANCH   1  14
BRANCH   1  23
ATOM     23  C   UNL     1      -6.519   0.390   4.896  0.00  0.00    -0.017 A 
ATOM     24  C   UNL     1      -7.179  -0.139   3.786  0.00  0.00    +0.009 A 
ATOM     25  C   UNL     1      -8.291  -0.932   3.959  0.00  0.00    +0.013 A 
ATOM     26  C   UNL     1      -8.766  -1.197   5.246  0.00  0.00    +0.037 A 
ATOM     27  C   UNL     1      -8.108  -0.662   6.356  0.00  0.00    +0.013 A 
ATOM     28  C   UNL     1      -6.993   0.126   6.182  0.00  0.00    +0.009 A 
BRANCH  26  29
ATOM     29  C   UNL     1      -9.963  -2.042   5.433  0.00  0.00    +0.246 C 
ATOM     30  O   UNL     1     -10.062  -2.746   6.419  0.00  0.00    -0.270 OA
ATOM     31  N   UNL     1     -10.945  -2.032   4.510  0.00  0.00    -0.304 N 
ATOM     32  C   UNL     1     -12.174  -2.796   4.740  0.00  0.00    +0.132 C 
ATOM     33  C   UNL     1     -10.784  -1.257   3.277  0.00  0.00    +0.132 C 
ENDBRANCH  26  29
ENDBRANCH   1  23
BRANCH   9  34
ATOM     34  C   UNL     1      -1.299  -0.521   1.347  0.00  0.00    -0.022 C 
BRANCH  34  35
ATOM     35  C   UNL     1      -0.047   0.317   1.377  0.00  0.00    +0.025 A 
ATOM     36  C   UNL     1       1.108  -0.200   1.934  0.00  0.00    +0.021 A 
ATOM     37  C   UNL     1       2.256   0.577   1.952  0.00  0.00    +0.003 A 
ATOM     38  C   UNL     1       2.198   1.852   1.411  0.00  0.00    +0.020 A 
ATOM     39  C   UNL     1       1.007   2.303   0.876  0.00  0.00    +0.111 A 
ATOM     40  N   UNL     1      -0.066   1.536   0.876  0.00  0.00    -0.262 NA
ENDBRANCH  34  35
ENDBRANCH   9  34
TORSDOF 7
