REMARK  Name = ZINC28308880
REMARK  6 active torsions:
REMARK  status: ('A' for Active; 'I' for Inactive)
REMARK    1  A    between atoms: C_10  and  N_11
REMARK    2  A    between atoms: C_12  and  C_14
REMARK    3  A    between atoms: C_14  and  N_23
REMARK    4  A    between atoms: C_15  and  C_16
REMARK    5  A    between atoms: C_19  and  O_22
REMARK    6  A    between atoms: C_24  and  C_26
REMARK                            x       y       z     vdW  Elec       q    Type
REMARK                         _______ _______ _______ _____ _____    ______ ____
ROOT
ATOM      1  C   UNL     1      -5.030   3.576  -0.125  0.00  0.00    +0.097 C 
ATOM      2  C   UNL     1      -5.170   4.923  -0.108  0.00  0.00    +0.036 C 
ENDROOT
BRANCH   2   3
ATOM      3  C   UNL     1      -3.987   5.786  -0.226  0.00  0.00    -0.023 A 
ATOM      4  C   UNL     1      -2.745   5.344   0.245  0.00  0.00    +0.011 A 
ATOM      5  C   UNL     1      -1.638   6.155   0.128  0.00  0.00    +0.046 A 
ATOM      6  C   UNL     1      -1.755   7.415  -0.447  0.00  0.00    +0.117 A 
ATOM      7  C   UNL     1      -2.986   7.861  -0.912  0.00  0.00    +0.046 A 
ATOM      8  C   UNL     1      -4.098   7.056  -0.804  0.00  0.00    +0.011 A 
BRANCH   6   9
ATOM      9  O   UNL     1      -0.661   8.213  -0.554  0.00  0.00    -0.507 OA
ATOM     10  H   UNL     1      -0.751   9.210  -1.009  0.00  0.00    +0.292 HD
ENDBRANCH   6   9
ENDBRANCH   2   3
BRANCH   1  12
ATOM     11  N   UNL     1      -3.263   2.977  -1.695  0.00  0.00    -0.280 N 
ATOM     12  C   UNL     1      -3.725   2.977  -0.429  0.00  0.00    +0.262 C 
ATOM     13  O   UNL     1      -3.060   2.482   0.462  0.00  0.00    -0.268 OA
ATOM     14  H   UNL     1      -3.847   3.457  -2.494  0.00  0.00    +0.155 HD
BRANCH  11  24
ATOM     15  C   UNL     1      -1.148   1.120  -5.885  0.00  0.00    +0.001 A 
ATOM     16  C   UNL     1      -2.372   1.727  -5.610  0.00  0.00    +0.001 A 
ATOM     17  C   UNL     1      -2.682   2.139  -4.350  0.00  0.00    +0.010 A 
ATOM     18  C   UNL     1      -1.757   1.952  -3.310  0.00  0.00    +0.003 A 
ATOM     19  C   UNL     1      -0.512   1.336  -3.589  0.00  0.00    -0.016 A 
ATOM     20  C   UNL     1      -0.227   0.923  -4.902  0.00  0.00    +0.008 A 
ATOM     21  C   UNL     1       0.414   1.148  -2.549  0.00  0.00    +0.008 A 
ATOM     22  C   UNL     1       0.112   1.558  -1.286  0.00  0.00    +0.002 A 
ATOM     23  C   UNL     1      -1.110   2.159  -0.999  0.00  0.00    +0.024 A 
ATOM     24  C   UNL     1      -2.044   2.367  -1.992  0.00  0.00    +0.041 A 
ENDBRANCH  11  24
ENDBRANCH   1  12
BRANCH   1  25
ATOM     25  N   UNL     1      -6.130   2.755   0.147  0.00  0.00    -0.277 N 
ATOM     26  C   UNL     1      -6.021   1.418   0.019  0.00  0.00    +0.248 C 
ATOM     27  O   UNL     1      -4.945   0.919  -0.247  0.00  0.00    -0.270 OA
ATOM     28  H   UNL     1      -7.083   3.201   0.467  0.00  0.00    +0.155 HD
BRANCH  26  29
ATOM     29  C   UNL     1      -7.209   0.559   0.201  0.00  0.00    +0.037 A 
ATOM     30  C   UNL     1      -8.445   1.129   0.513  0.00  0.00    +0.014 A 
ATOM     31  C   UNL     1      -9.552   0.322   0.675  0.00  0.00    +0.016 A 
ATOM     32  C   UNL     1      -9.437  -1.051   0.543  0.00  0.00    +0.018 A 
ATOM     33  C   UNL     1      -8.213  -1.623   0.240  0.00  0.00    +0.016 A 
ATOM     34  C   UNL     1      -7.100  -0.827   0.069  0.00  0.00    +0.014 A 
ATOM     35 BR   UNL     1     -10.957  -2.151   0.776  0.00  0.00    -0.050 Br
ENDBRANCH  26  29
ENDBRANCH   1  25
TORSDOF 6
