REMARK  Name = ZINC09490678
REMARK  10 active torsions:
REMARK  status: ('A' for Active; 'I' for Inactive)
REMARK    1  A    between atoms: C_1  and  C_2
REMARK    2  A    between atoms: C_2  and  C_3
REMARK    3  A    between atoms: C_2  and  C_4
REMARK    4  A    between atoms: C_4  and  C_5
REMARK    5  A    between atoms: C_5  and  N_6
REMARK    6  A    between atoms: C_7  and  C_31
REMARK    7  A    between atoms: C_12  and  C_30
REMARK    8  A    between atoms: C_14  and  C_20
REMARK    9  A    between atoms: N_22  and  C_23
REMARK   10  A    between atoms: N_33  and  C_34
REMARK                            x       y       z     vdW  Elec       q    Type
REMARK                         _______ _______ _______ _____ _____    ______ ____
ROOT
ATOM      1  N   UNL     1       6.913   3.991  -1.101  0.00  0.00    -0.287 N 
ATOM      2  C   UNL     1       7.481   2.885  -1.933  0.00  0.00    +0.198 C 
ATOM      3  C   UNL     1       6.377   1.874  -1.897  0.00  0.00    +0.127 C 
ATOM      4  C   UNL     1       5.169   2.291  -2.716  0.00  0.00    +0.009 C 
ATOM      5  C   UNL     1       4.294   1.304  -2.595  0.00  0.00    +0.007 C 
ATOM      6  C   UNL     1       4.955   0.302  -1.639  0.00  0.00    +0.098 C 
ATOM      7  O   UNL     1       6.391   0.469  -1.991  0.00  0.00    -0.355 OA
ATOM      8  C   UNL     1       4.864   1.055  -0.255  0.00  0.00    +0.126 C 
ATOM      9  C   UNL     1       6.020   2.017  -0.363  0.00  0.00    +0.128 C 
ATOM     10  C   UNL     1       5.968   3.485  -0.241  0.00  0.00    +0.223 C 
ATOM     11  O   UNL     1       5.232   4.123   0.480  0.00  0.00    -0.275 OA
ATOM     12  C   UNL     1       4.416  -1.130  -1.662  0.00  0.00    +0.047 C 
ENDROOT
BRANCH   8  13
ATOM     13  C   UNL     1       3.557   1.792  -0.124  0.00  0.00    +0.224 C 
ATOM     14  O   UNL     1       3.543   3.005  -0.118  0.00  0.00    -0.275 OA
ATOM     15  N   UNL     1       2.403   1.105  -0.015  0.00  0.00    -0.285 N 
ATOM     16  H   UNL     1       2.419   0.137   0.047  0.00  0.00    +0.155 HD
BRANCH  15  17
ATOM     17  C   UNL     1       1.181   1.787   0.008  0.00  0.00    +0.034 A 
ATOM     18  C   UNL     1       0.059   1.225  -0.586  0.00  0.00    +0.026 A 
ATOM     19  C   UNL     1      -1.145   1.903  -0.568  0.00  0.00    +0.040 A 
ATOM     20  C   UNL     1      -1.236   3.137   0.054  0.00  0.00    +0.124 A 
ATOM     21  C   UNL     1      -0.118   3.700   0.647  0.00  0.00    +0.040 A 
ATOM     22  C   UNL     1       1.089   3.028   0.625  0.00  0.00    +0.026 A 
ATOM     23  F   UNL     1      -2.415   3.795   0.076  0.00  0.00    -0.205 F 
ENDBRANCH  15  17
ENDBRANCH   8  13
BRANCH   2  24
ATOM     24  C   UNL     1       8.737   2.332  -1.311  0.00  0.00    +0.237 C 
ATOM     25  O   UNL     1       9.030   2.626  -0.172  0.00  0.00    -0.274 OA
ATOM     26  N   UNL     1       9.536   1.511  -2.022  0.00  0.00    -0.311 N 
ATOM     27  H   UNL     1       9.302   1.276  -2.933  0.00  0.00    +0.149 HD
BRANCH  26  28
ATOM     28  C   UNL     1      10.758   0.974  -1.417  0.00  0.00    +0.073 C 
ATOM     29  C   UNL     1      11.895   1.984  -1.583  0.00  0.00    +0.022 C 
ATOM     30  C   UNL     1      13.171   1.423  -0.951  0.00  0.00    +0.002 C 
ATOM     31  C   UNL     1      13.548   0.112  -1.643  0.00  0.00    +0.000 C 
ATOM     32  C   UNL     1      12.411  -0.898  -1.478  0.00  0.00    +0.002 C 
ATOM     33  C   UNL     1      11.135  -0.337  -2.109  0.00  0.00    +0.022 C 
ENDBRANCH  26  28
ENDBRANCH   2  24
BRANCH   1  34
ATOM     34  C   UNL     1       7.305   5.400  -1.189  0.00  0.00    +0.109 C 
BRANCH  34  35
ATOM     35  C   UNL     1       6.418   6.113  -2.212  0.00  0.00    +0.022 C 
BRANCH  35  37
ATOM     36  C   UNL     1       8.249   7.684  -2.861  0.00  0.00    +0.007 C 
ATOM     37  C   UNL     1       6.827   7.584  -2.305  0.00  0.00    -0.016 C 
ATOM     38  C   UNL     1       5.863   8.325  -3.233  0.00  0.00    +0.007 C 
ENDBRANCH  35  37
ENDBRANCH  34  35
ENDBRANCH   1  34
TORSDOF 7
