REMARK  Name = ZINC17081835
REMARK  5 active torsions:
REMARK  status: ('A' for Active; 'I' for Inactive)
REMARK    1  A    between atoms: C_5  and  N_7
REMARK    2  A    between atoms: C_8  and  C_10
REMARK    3  A    between atoms: C_14  and  N_15
REMARK    4  A    between atoms: C_16  and  C_18
REMARK    5  A    between atoms: C_25  and  C_27
REMARK                            x       y       z     vdW  Elec       q    Type
REMARK                         _______ _______ _______ _____ _____    ______ ____
ROOT
ATOM      1  C   UNL     1       0.989  -4.430  -4.262  0.00  0.00    +0.065 A 
ATOM      2  C   UNL     1       0.867  -5.867  -4.189  0.00  0.00    +0.022 A 
ATOM      3  C   UNL     1       0.475  -6.391  -3.014  0.00  0.00    +0.048 A 
ATOM      4  S   UNL     1       0.270  -4.959  -1.974  0.00  0.00    -0.081 S 
ATOM      5  C   UNL     1       0.701  -3.718  -3.103  0.00  0.00    +0.084 A 
ENDROOT
BRANCH   1   7
ATOM      6  N   UNL     1       1.673  -4.478  -6.601  0.00  0.00    -0.279 N 
ATOM      7  C   UNL     1       1.401  -3.755  -5.496  0.00  0.00    +0.251 C 
ATOM      8  O   UNL     1       1.498  -2.542  -5.524  0.00  0.00    -0.270 OA
ATOM      9  H   UNL     1       1.542  -5.439  -6.596  0.00  0.00    +0.155 HD
BRANCH   6  14
ATOM     10  C   UNL     1       2.171  -1.938  -9.214  0.00  0.00    +0.002 A 
ATOM     11  C   UNL     1       3.076  -2.582 -10.038  0.00  0.00    +0.003 A 
ATOM     12  C   UNL     1       3.517  -3.854  -9.725  0.00  0.00    +0.040 A 
ATOM     13  C   UNL     1       3.058  -4.485  -8.582  0.00  0.00    +0.144 A 
ATOM     14  C   UNL     1       2.144  -3.841  -7.755  0.00  0.00    +0.069 A 
ATOM     15  C   UNL     1       1.704  -2.564  -8.075  0.00  0.00    +0.026 A 
ATOM     16  F   UNL     1       3.494  -5.726  -8.273  0.00  0.00    -0.204 F 
ENDBRANCH   6  14
ENDBRANCH   1   7
BRANCH   5  17
ATOM     17  N   UNL     1       0.743  -2.347  -2.902  0.00  0.00    -0.279 N 
ATOM     18  C   UNL     1       0.420  -1.833  -1.698  0.00  0.00    +0.222 C 
ATOM     19  O   UNL     1       0.094  -2.569  -0.792  0.00  0.00    -0.275 OA
ATOM     20  H   UNL     1       1.004  -1.758  -3.627  0.00  0.00    +0.155 HD
BRANCH  18  21
ATOM     21  C   UNL     1       0.466  -0.343  -1.479  0.00  0.00    +0.096 C 
ATOM     22  C   UNL     1      -0.105   0.023  -0.072  0.00  0.00    +0.025 C 
ATOM     23  C   UNL     1       1.160  -0.240   0.824  0.00  0.00    +0.016 C 
ATOM     24  C   UNL     1       2.058   0.763   0.012  0.00  0.00    +0.027 C 
ATOM     25  C   UNL     1       1.930   0.158  -1.423  0.00  0.00    +0.121 C 
ATOM     26  C   UNL     1       1.129   1.983  -0.013  0.00  0.00    -0.027 C 
ATOM     27  C   UNL     1      -0.117   1.557  -0.061  0.00  0.00    -0.027 C 
BRANCH  25  28
ATOM     28  C   UNL     1       2.890  -0.990  -1.601  0.00  0.00    +0.360 C 
ATOM     29  O   UNL     1       3.218  -1.657  -0.649  0.00  0.00    -0.246 OA
ATOM     30  O   UNL     1       3.380  -1.271  -2.819  0.00  0.00    -0.246 OA
ENDBRANCH  25  28
ENDBRANCH  18  21
ENDBRANCH   5  17
TORSDOF 5
