REMARK  Name = ZINC12785262
REMARK  8 active torsions:
REMARK  status: ('A' for Active; 'I' for Inactive)
REMARK    1  A    between atoms: C_1  and  C_2
REMARK    2  A    between atoms: C_5  and  C_8
REMARK    3  A    between atoms: C_8  and  C_10
REMARK    4  A    between atoms: C_8  and  N_15
REMARK    5  A    between atoms: C_16  and  C_18
REMARK    6  A    between atoms: C_18  and  N_19
REMARK    7  A    between atoms: C_22  and  C_26
REMARK    8  A    between atoms: C_22  and  C_27
REMARK                            x       y       z     vdW  Elec       q    Type
REMARK                         _______ _______ _______ _____ _____    ______ ____
ROOT
ATOM      1  C   UNL     1      -1.965   6.249   3.175  0.00  0.00    +0.213 C 
ENDROOT
BRANCH   1   2
ATOM      2  N   UNL     1      -2.310   5.889   4.553  0.00  0.00    -0.215 N 
ATOM      3  C   UNL     1      -1.461   5.298   5.417  0.00  0.00    +0.251 C 
ATOM      4  O   UNL     1      -0.311   4.976   5.208  0.00  0.00    -0.272 OA
ATOM      5  C   UNL     1      -2.243   5.119   6.703  0.00  0.00    +0.135 C 
ATOM      6  N   UNL     1      -3.567   5.683   6.384  0.00  0.00    -0.281 N 
ATOM      7  C   UNL     1      -3.506   6.110   5.110  0.00  0.00    +0.310 C 
ATOM      8  O   UNL     1      -4.436   6.635   4.529  0.00  0.00    -0.252 OA
ATOM      9  C   UNL     1      -1.587   5.898   7.844  0.00  0.00    +0.047 C 
ATOM     10  H   UNL     1      -4.331   5.737   6.979  0.00  0.00    +0.152 HD
BRANCH   5  11
ATOM     11  C   UNL     1      -2.356   3.659   7.056  0.00  0.00    -0.012 A 
ATOM     12  C   UNL     1      -1.357   2.779   6.682  0.00  0.00    +0.010 A 
ATOM     13  C   UNL     1      -1.456   1.439   7.004  0.00  0.00    +0.050 A 
ATOM     14  C   UNL     1      -2.558   0.973   7.703  0.00  0.00    +0.166 A 
ATOM     15  C   UNL     1      -3.564   1.858   8.079  0.00  0.00    +0.167 A 
ATOM     16  C   UNL     1      -3.456   3.201   7.757  0.00  0.00    +0.055 A 
ATOM     17  O   UNL     1      -4.530   1.163   8.748  0.00  0.00    -0.453 OA
ATOM     18  C   UNL     1      -4.302  -0.221   8.422  0.00  0.00    +0.466 C 
ATOM     19  O   UNL     1      -2.892  -0.278   8.136  0.00  0.00    -0.453 OA
ENDBRANCH   5  11
ENDBRANCH   1   2
BRANCH   1  21
ATOM     20  N   UNL     1      -2.046   5.201   0.937  0.00  0.00    -0.303 N 
ATOM     21  C   UNL     1      -2.283   5.096   2.259  0.00  0.00    +0.232 C 
ATOM     22  O   UNL     1      -2.752   4.073   2.712  0.00  0.00    -0.274 OA
ATOM     23  H   UNL     1      -1.671   6.019   0.575  0.00  0.00    +0.150 HD
BRANCH  20  24
ATOM     24  C   UNL     1      -2.355   4.080   0.046  0.00  0.00    +0.140 C 
BRANCH  24  29
ATOM     25  C   UNL     1      -3.280   6.066  -5.301  0.00  0.00    +0.044 C 
ATOM     26  C   UNL     1      -3.039   5.548  -3.907  0.00  0.00    -0.050 A 
ATOM     27  C   UNL     1      -3.830   4.534  -3.400  0.00  0.00    +0.004 A 
ATOM     28  C   UNL     1      -3.609   4.059  -2.120  0.00  0.00    +0.006 A 
ATOM     29  C   UNL     1      -2.596   4.598  -1.349  0.00  0.00    -0.022 A 
ATOM     30  C   UNL     1      -1.809   5.615  -1.854  0.00  0.00    +0.006 A 
ATOM     31  C   UNL     1      -2.028   6.088  -3.134  0.00  0.00    +0.004 A 
ENDBRANCH  24  29
BRANCH  24  32
ATOM     32  C   UNL     1      -1.196   3.116   0.030  0.00  0.00    +0.014 A 
ATOM     33  C   UNL     1      -1.213   1.761   0.017  0.00  0.00    +0.013 A 
ATOM     34  C   UNL     1      -0.013   1.076   0.008  0.00  0.00    +0.008 A 
ATOM     35  C   UNL     1       1.146   1.780   0.001  0.00  0.00    +0.045 A 
ATOM     36  S   UNL     1       0.555   3.464   0.015  0.00  0.00    -0.099 S 
ENDBRANCH  24  32
ENDBRANCH  20  24
ENDBRANCH   1  21
TORSDOF 6
