REMARK  Name = ZINC36887631
REMARK  4 active torsions:
REMARK  status: ('A' for Active; 'I' for Inactive)
REMARK    1  A    between atoms: C_1  and  C_2
REMARK    2  A    between atoms: N_8  and  C_9
REMARK    3  A    between atoms: C_12  and  C_16
REMARK    4  A    between atoms: N_17  and  O_18
REMARK                            x       y       z     vdW  Elec       q    Type
REMARK                         _______ _______ _______ _____ _____    ______ ____
ROOT
ATOM      1  C   UNL     1       1.136   0.392   2.182  0.00  0.00    +0.066 A 
ATOM      2  C   UNL     1       0.296   0.680   3.252  0.00  0.00    +0.027 A 
ATOM      3  C   UNL     1       0.706   1.554   4.235  0.00  0.00    +0.013 A 
ATOM      4  C   UNL     1       1.965   2.152   4.157  0.00  0.00    +0.021 A 
ATOM      5  C   UNL     1       2.807   1.861   3.083  0.00  0.00    +0.051 A 
ATOM      6  C   UNL     1       2.395   0.981   2.104  0.00  0.00    +0.145 A 
ATOM      7  F   UNL     1       3.211   0.695   1.066  0.00  0.00    -0.204 F 
ENDROOT
BRANCH   1  14
ATOM      8  C   UNL     1      -0.019   1.526   0.010  0.00  0.00    +0.028 C 
ATOM      9  C   UNL     1       0.002  -0.004   0.002  0.00  0.00    +0.070 C 
ATOM     10  C   UNL     1       0.725  -0.501  -1.254  0.00  0.00    +0.022 C 
ATOM     11  C   UNL     1       0.865  -2.023  -1.188  0.00  0.00    +0.003 C 
ATOM     12  C   UNL     1       1.701  -2.408   0.034  0.00  0.00    +0.019 C 
ATOM     13  C   UNL     1       0.989  -1.933   1.305  0.00  0.00    +0.105 C 
ATOM     14  N   UNL     1       0.718  -0.493   1.188  0.00  0.00    -0.325 N 
ENDBRANCH   1  14
BRANCH   4  15
ATOM     15  C   UNL     1       2.406   3.090   5.212  0.00  0.00    +0.162 C 
ATOM     16  N   UNL     1       1.619   3.360   6.213  0.00  0.00    -0.072 NA
ATOM     17  N   UNL     1       3.655   3.682   5.133  0.00  0.00    -0.340 N 
ATOM     18  H   UNL     1       4.241   3.481   4.387  0.00  0.00    +0.144 HD
ATOM     19  H   UNL     1       3.944   4.298   5.825  0.00  0.00    +0.144 HD
BRANCH  16  20
ATOM     20  O   UNL     1       2.042   4.259   7.222  0.00  0.00    -0.408 OA
ATOM     21  H   UNL     1       1.391   4.397   7.924  0.00  0.00    +0.328 HD
ENDBRANCH  16  20
ENDBRANCH   4  15
TORSDOF 3
