REMARK  Name = ZINC05295854
REMARK  6 active torsions:
REMARK  status: ('A' for Active; 'I' for Inactive)
REMARK    1  A    between atoms: C_1  and  C_2
REMARK    2  A    between atoms: C_5  and  O_36
REMARK    3  A    between atoms: C_17  and  C_35
REMARK    4  A    between atoms: C_23  and  C_29
REMARK    5  A    between atoms: C_25  and  C_27
REMARK    6  A    between atoms: C_25  and  C_28
REMARK                            x       y       z     vdW  Elec       q    Type
REMARK                         _______ _______ _______ _____ _____    ______ ____
ROOT
ATOM      1  C   UNL     1       0.329   1.898  -0.546  0.00  0.00    +0.016 C 
ATOM      2  C   UNL     1       0.214   0.378  -0.355  0.00  0.00    -0.008 C 
ATOM      3  C   UNL     1      -1.266   0.015  -0.335  0.00  0.00    +0.014 C 
ATOM      4  C   UNL     1      -1.752  -0.234   1.090  0.00  0.00    +0.032 C 
ATOM      5  C   UNL     1      -1.255   0.828   2.063  0.00  0.00    +0.119 C 
ATOM      6  C   UNL     1       0.269   0.757   2.199  0.00  0.00    +0.062 C 
ATOM      7  C   UNL     1       0.818   0.036   0.980  0.00  0.00    -0.065 C 
ATOM      8  C   UNL     1       1.772  -0.826   1.140  0.00  0.00    -0.027 C 
ATOM      9  C   UNL     1       2.401  -1.584   0.013  0.00  0.00    +0.031 C 
ATOM     10  C   UNL     1       1.416  -1.691  -1.163  0.00  0.00    +0.000 C 
ATOM     11  C   UNL     1       0.941  -0.282  -1.518  0.00  0.00    +0.003 C 
ATOM     12  C   UNL     1      -0.002  -0.374  -2.724  0.00  0.00    +0.005 C 
ATOM     13  C   UNL     1       0.776  -0.897  -3.928  0.00  0.00    +0.010 C 
ATOM     14  C   UNL     1       1.423  -2.233  -3.659  0.00  0.00    +0.008 C 
ATOM     15  C   UNL     1       2.189  -2.301  -2.336  0.00  0.00    +0.004 C 
ATOM     16  C   UNL     1       2.323  -3.824  -2.078  0.00  0.00    +0.039 C 
ATOM     17  C   UNL     1       1.056  -4.458  -2.685  0.00  0.00    +0.160 C 
ATOM     18  C   UNL     1       0.456  -3.419  -3.667  0.00  0.00    +0.145 C 
ATOM     19  O   UNL     1      -0.813  -3.065  -3.099  0.00  0.00    -0.334 OA
ATOM     20  C   UNL     1      -1.171  -4.132  -2.200  0.00  0.00    +0.166 C 
ATOM     21  O   UNL     1       0.071  -4.610  -1.647  0.00  0.00    -0.343 OA
ATOM     22  C   UNL     1      -1.900  -5.259  -2.938  0.00  0.00    +0.074 C 
ATOM     23  C   UNL     1      -2.072  -3.602  -1.077  0.00  0.00    +0.074 C 
ATOM     24  C   UNL     1       2.444  -2.472  -4.795  0.00  0.00    +0.015 C 
ENDROOT
BRANCH  18  25
ATOM     25  C   UNL     1       0.321  -3.983  -5.058  0.00  0.00    +0.071 A 
ATOM     26  C   UNL     1      -0.674  -3.716  -5.934  0.00  0.00    +0.047 A 
ATOM     27  C   UNL     1      -0.424  -4.439  -7.104  0.00  0.00    +0.134 A 
ATOM     28  N   UNL     1       0.683  -5.117  -6.937  0.00  0.00    -0.182 NA
ATOM     29  N   UNL     1       1.175  -4.841  -5.654  0.00  0.00    -0.279 N 
ATOM     30  H   UNL     1       1.985  -5.205  -5.264  0.00  0.00    +0.189 HD
ENDBRANCH  18  25
BRANCH   5  31
ATOM     31  O   UNL     1      -1.853   0.610   3.346  0.00  0.00    -0.391 OA
ATOM     32  H   UNL     1      -1.583   1.250   4.019  0.00  0.00    +0.210 HD
ENDBRANCH   5  31
TORSDOF 2
