REMARK  Name = ZINC00076371
REMARK  4 active torsions:
REMARK  status: ('A' for Active; 'I' for Inactive)
REMARK    1  A    between atoms: C_4  and  C_7
REMARK    2  A    between atoms: C_10  and  C_21
REMARK    3  A    between atoms: C_16  and  N_20
REMARK    4  A    between atoms: C_17  and  C_18
REMARK                            x       y       z     vdW  Elec       q    Type
REMARK                         _______ _______ _______ _____ _____    ______ ____
ROOT
ATOM      1  C   UNL     1       3.711  -0.707  -0.038  0.00  0.00    +0.102 C 
ATOM      2  C   UNL     1       3.789  -1.580  -1.264  0.00  0.00    +0.058 A 
ATOM      3  C   UNL     1       3.965  -1.216  -2.592  0.00  0.00    +0.173 A 
ATOM      4  N   UNL     1       3.970  -2.309  -3.317  0.00  0.00    -0.167 NA
ATOM      5  N   UNL     1       3.796  -3.409  -2.462  0.00  0.00    -0.246 N 
ATOM      6  H   UNL     1       3.761  -4.340  -2.729  0.00  0.00    +0.192 HD
ATOM      7  C   UNL     1       3.689  -2.942  -1.208  0.00  0.00    +0.223 A 
ATOM      8  O   UNL     1       3.514  -3.616  -0.044  0.00  0.00    -0.423 OA
ATOM      9  C   UNL     1       3.712  -2.939   1.106  0.00  0.00    +0.200 C 
ATOM     10  C   UNL     1       3.815  -1.593   1.179  0.00  0.00    +0.098 C 
ENDROOT
BRANCH   1  14
ATOM     11  C   UNL     1      -0.017   1.378   0.010  0.00  0.00    +0.000 A 
ATOM     12  C   UNL     1       1.171   2.086   0.002  0.00  0.00    +0.000 A 
ATOM     13  C   UNL     1       2.377   1.411  -0.013  0.00  0.00    +0.004 A 
ATOM     14  C   UNL     1       2.396   0.029  -0.020  0.00  0.00    -0.035 A 
ATOM     15  C   UNL     1       1.208  -0.679  -0.012  0.00  0.00    +0.004 A 
ATOM     16  C   UNL     1       0.002  -0.004   0.002  0.00  0.00    +0.000 A 
ENDBRANCH   1  14
BRANCH   3  17
ATOM     17  C   UNL     1       4.121   0.191  -3.111  0.00  0.00    +0.436 C 
ATOM     18  F   UNL     1       5.477   0.534  -3.124  0.00  0.00    -0.164 F 
ATOM     19  F   UNL     1       3.608   0.268  -4.410  0.00  0.00    -0.164 F 
ATOM     20  F   UNL     1       3.424   1.075  -2.280  0.00  0.00    -0.164 F 
ENDBRANCH   3  17
BRANCH   9  21
ATOM     21  N   UNL     1       3.816  -3.659   2.270  0.00  0.00    -0.328 N 
ATOM     22  H   UNL     1       3.745  -4.626   2.250  0.00  0.00    +0.145 HD
ATOM     23  H   UNL     1       3.958  -3.200   3.113  0.00  0.00    +0.145 HD
ENDBRANCH   9  21
BRANCH  10  24
ATOM     24  C   UNL     1       4.031  -0.985   2.458  0.00  0.00    +0.101 C 
ATOM     25  N   UNL     1       4.202  -0.503   3.472  0.00  0.00    -0.191 NA
ENDBRANCH  10  24
TORSDOF 4
