REMARK  Name = ZINC08964117
REMARK  8 active torsions:
REMARK  status: ('A' for Active; 'I' for Inactive)
REMARK    1  A    between atoms: C_1  and  N_2
REMARK    2  A    between atoms: C_9  and  C_11
REMARK    3  A    between atoms: C_11  and  C_13
REMARK    4  A    between atoms: C_11  and  N_60
REMARK    5  A    between atoms: C_13  and  N_14
REMARK    6  A    between atoms: C_15  and  C_17
REMARK    7  A    between atoms: N_19  and  C_20
REMARK    8  A    between atoms: C_23  and  C_26
REMARK                            x       y       z     vdW  Elec       q    Type
REMARK                         _______ _______ _______ _____ _____    ______ ____
ROOT
ATOM      1  C   UNL     1       3.486  -6.750   0.191  0.00  0.00    +0.094 C 
ENDROOT
BRANCH   1   2
ATOM      2  N   UNL     1       2.795  -7.246  -1.001  0.00  0.00    -0.309 N 
ATOM      3  C   UNL     1       1.498  -6.941  -1.205  0.00  0.00    +0.299 C 
ATOM      4  O   UNL     1       0.903  -6.254  -0.400  0.00  0.00    -0.265 OA
ATOM      5  H   UNL     1       3.270  -7.795  -1.645  0.00  0.00    +0.149 HD
BRANCH   3   6
ATOM      6  C   UNL     1       0.793  -7.447  -2.420  0.00  0.00    +0.303 C 
ATOM      7  O   UNL     1       1.388  -8.133  -3.225  0.00  0.00    -0.265 OA
ATOM      8  N   UNL     1      -0.504  -7.141  -2.623  0.00  0.00    -0.278 N 
ATOM      9  H   UNL     1      -0.960  -6.535  -2.019  0.00  0.00    +0.155 HD
BRANCH   8  10
ATOM     10  C   UNL     1      -1.192  -7.696  -3.705  0.00  0.00    +0.034 A 
ATOM     11  C   UNL     1      -0.883  -8.979  -4.142  0.00  0.00    +0.024 A 
ATOM     12  C   UNL     1      -1.565  -9.525  -5.211  0.00  0.00    +0.014 A 
ATOM     13  C   UNL     1      -2.554  -8.797  -5.848  0.00  0.00    +0.055 A 
ATOM     14  C   UNL     1      -2.864  -7.521  -5.415  0.00  0.00    +0.014 A 
ATOM     15  C   UNL     1      -2.186  -6.968  -4.347  0.00  0.00    +0.024 A 
BRANCH  13  16
ATOM     16  C   UNL     1      -3.296  -9.397  -7.014  0.00  0.00    +0.417 C 
ATOM     17  F   UNL     1      -4.424 -10.081  -6.548  0.00  0.00    -0.166 F 
ATOM     18  F   UNL     1      -3.695  -8.379  -7.886  0.00  0.00    -0.166 F 
ATOM     19  F   UNL     1      -2.457 -10.289  -7.692  0.00  0.00    -0.166 F 
ENDBRANCH  13  16
ENDBRANCH   8  10
ENDBRANCH   3   6
ENDBRANCH   1   2
BRANCH   1  20
ATOM     20  C   UNL     1       4.962  -7.150   0.129  0.00  0.00    -0.020 C 
BRANCH  20  29
ATOM     21  C   UNL     1       4.528 -13.531   1.066  0.00  0.00    +0.129 C 
ATOM     22  N   UNL     1       5.449 -12.799   0.186  0.00  0.00    -0.332 N 
ATOM     23  C   UNL     1       5.195 -13.122  -1.234  0.00  0.00    +0.109 C 
ATOM     24  C   UNL     1       5.585 -11.811  -1.955  0.00  0.00    +0.056 C 
ATOM     25  C   UNL     1       5.382 -10.762  -0.879  0.00  0.00    -0.025 A 
ATOM     26  C   UNL     1       5.302 -11.415   0.345  0.00  0.00    +0.033 A 
ATOM     27  C   UNL     1       5.104 -10.664   1.502  0.00  0.00    +0.023 A 
ATOM     28  C   UNL     1       4.999  -9.290   1.428  0.00  0.00    +0.004 A 
ATOM     29  C   UNL     1       5.079  -8.650   0.205  0.00  0.00    -0.059 A 
ATOM     30  C   UNL     1       5.272  -9.390  -0.949  0.00  0.00    +0.007 A 
ENDBRANCH  20  29
BRANCH  20  35
ATOM     31  C   UNL     1       7.118  -6.921   1.235  0.00  0.00    -0.078 C 
ATOM     32  C   UNL     1       7.784  -5.828   2.110  0.00  0.00    -0.020 C 
ATOM     33  C   UNL     1       6.989  -4.556   1.738  0.00  0.00    -0.020 C 
ATOM     34  C   UNL     1       5.650  -5.068   1.175  0.00  0.00    -0.078 C 
ATOM     35  N   UNL     1       5.700  -6.528   1.268  0.00  0.00    +0.385 N 
ATOM     36  H   UNL     1       5.276  -6.834   2.152  0.00  0.00    -0.081 HD
ENDBRANCH  20  35
ENDBRANCH   1  20
TORSDOF 7
