REMARK  Name = ZINC36698966
REMARK  12 active torsions:
REMARK  status: ('A' for Active; 'I' for Inactive)
REMARK    1  A    between atoms: C_1  and  C_2
REMARK    2  A    between atoms: C_7  and  C_8
REMARK    3  A    between atoms: N_12  and  C_13
REMARK    4  A    between atoms: C_13  and  C_14
REMARK    5  A    between atoms: C_14  and  C_15
REMARK    6  A    between atoms: C_15  and  N_16
REMARK    7  A    between atoms: N_16  and  C_17
REMARK    8  A    between atoms: N_16  and  C_18
REMARK    9  A    between atoms: C_19  and  C_21
REMARK   10  A    between atoms: C_24  and  S_27
REMARK   11  A    between atoms: S_27  and  N_30
REMARK   12  A    between atoms: C_35  and  C_37
REMARK                            x       y       z     vdW  Elec       q    Type
REMARK                         _______ _______ _______ _____ _____    ______ ____
ROOT
ATOM      1  C   UNL     1       3.050  -0.262   0.866  0.00  0.00    +0.044 C 
ATOM      2  C   UNL     1       2.854  -1.722   0.551  0.00  0.00    -0.045 A 
ATOM      3  C   UNL     1       2.434  -2.088  -0.701  0.00  0.00    +0.032 A 
ATOM      4  C   UNL     1       2.239  -3.449  -1.030  0.00  0.00    +0.081 A 
ATOM      5  C   UNL     1       2.502  -4.383  -0.001  0.00  0.00    +0.041 A 
ATOM      6  C   UNL     1       2.922  -4.008   1.250  0.00  0.00    +0.021 A 
ATOM      7  C   UNL     1       3.107  -2.667   1.535  0.00  0.00    -0.046 A 
ATOM      8  C   UNL     1       3.574  -2.237   2.902  0.00  0.00    +0.044 C 
ATOM      9  S   UNL     1       2.148  -5.931  -0.797  0.00  0.00    -0.052 S 
ATOM     10  C   UNL     1       1.689  -5.265  -2.391  0.00  0.00    +0.168 A 
ATOM     11  N   UNL     1       1.833  -3.973  -2.206  0.00  0.00    -0.224 NA
ATOM     12  N   UNL     1       1.285  -5.939  -3.530  0.00  0.00    -0.246 N 
ATOM     13  C   UNL     1       1.198  -7.284  -3.522  0.00  0.00    +0.252 C 
ATOM     14  O   UNL     1       1.421  -7.902  -2.499  0.00  0.00    -0.270 OA
ENDROOT
BRANCH  13  15
ATOM     15  C   UNL     1       0.833  -8.009  -4.757  0.00  0.00    +0.037 A 
ATOM     16  C   UNL     1       1.345  -7.597  -5.989  0.00  0.00    +0.015 A 
ATOM     17  C   UNL     1       1.000  -8.278  -7.138  0.00  0.00    +0.029 A 
ATOM     18  C   UNL     1       0.149  -9.367  -7.072  0.00  0.00    +0.106 A 
ATOM     19  C   UNL     1      -0.363  -9.780  -5.854  0.00  0.00    +0.029 A 
ATOM     20  C   UNL     1      -0.022  -9.111  -4.697  0.00  0.00    +0.015 A 
BRANCH  18  21
ATOM     21  S   UNL     1      -0.287 -10.231  -8.544  0.00  0.00    +0.061 S 
ATOM     22  O   UNL     1      -1.595 -10.747  -8.341  0.00  0.00    -0.153 OA
ATOM     23  O   UNL     1       0.032  -9.370  -9.629  0.00  0.00    -0.153 OA
BRANCH  21  24
ATOM     24  N   UNL     1       0.725 -11.537  -8.663  0.00  0.00    -0.174 NA
ATOM     25  C   UNL     1       0.286 -12.866  -8.218  0.00  0.00    +0.110 C 
ATOM     26  C   UNL     1       0.489 -13.862  -9.364  0.00  0.00    +0.017 C 
ATOM     27  C   UNL     1       1.945 -13.805  -9.831  0.00  0.00    +0.003 C 
ATOM     28  C   UNL     1       2.261 -12.400 -10.350  0.00  0.00    +0.020 C 
ATOM     29  C   UNL     1       2.076 -11.389  -9.221  0.00  0.00    +0.077 C 
ATOM     30  C   UNL     1       2.252  -9.972  -9.770  0.00  0.00    +0.026 C 
ENDBRANCH  21  24
ENDBRANCH  18  21
ENDBRANCH  13  15
BRANCH  12  31
ATOM     31  C   UNL     1       0.951  -5.191  -4.745  0.00  0.00    +0.114 C 
BRANCH  31  32
ATOM     32  C   UNL     1       2.237  -4.689  -5.404  0.00  0.00    +0.001 C 
BRANCH  32  33
ATOM     33  C   UNL     1       1.901  -4.044  -6.750  0.00  0.00    -0.078 C 
BRANCH  33  34
ATOM     34  N   UNL     1       3.136  -3.561  -7.383  0.00  0.00    +0.376 N 
ATOM     35  C   UNL     1       2.831  -3.050  -8.726  0.00  0.00    -0.097 C 
ATOM     36  C   UNL     1       3.715  -2.483  -6.569  0.00  0.00    -0.097 C 
ATOM     37  H   UNL     1       3.797  -4.320  -7.454  0.00  0.00    -0.083 HD
ENDBRANCH  33  34
ENDBRANCH  32  33
ENDBRANCH  31  32
ENDBRANCH  12  31
TORSDOF 7
