REMARK  Name = ZINC33259876
REMARK  6 active torsions:
REMARK  status: ('A' for Active; 'I' for Inactive)
REMARK    1  A    between atoms: C_4  and  N_7
REMARK    2  A    between atoms: N_10  and  C_13
REMARK    3  A    between atoms: C_16  and  N_22
REMARK    4  A    between atoms: C_17  and  C_19
REMARK    5  A    between atoms: N_22  and  S_23
REMARK    6  A    between atoms: S_23  and  C_26
REMARK                            x       y       z     vdW  Elec       q    Type
REMARK                         _______ _______ _______ _____ _____    ______ ____
ROOT
ATOM      1  C   UNL     1       4.881   2.224  -4.142  0.00  0.00    +0.031 A 
ATOM      2  C   UNL     1       5.343   2.260  -2.829  0.00  0.00    +0.025 A 
ATOM      3  C   UNL     1       5.165   1.173  -1.998  0.00  0.00    +0.027 A 
ATOM      4  C   UNL     1       4.523   0.033  -2.467  0.00  0.00    +0.062 A 
ATOM      5  C   UNL     1       4.061  -0.011  -3.792  0.00  0.00    +0.087 A 
ATOM      6  C   UNL     1       4.240   1.098  -4.624  0.00  0.00    +0.040 A 
ENDROOT
BRANCH   1  10
ATOM      7  N   UNL     1       6.601   5.256  -6.410  0.00  0.00    -0.327 N 
ATOM      8  C   UNL     1       5.879   5.633  -5.187  0.00  0.00    +0.124 C 
ATOM      9  C   UNL     1       5.766   4.414  -4.268  0.00  0.00    +0.124 C 
ATOM     10  N   UNL     1       5.067   3.333  -4.976  0.00  0.00    -0.327 N 
ATOM     11  C   UNL     1       5.789   2.956  -6.200  0.00  0.00    +0.124 C 
ATOM     12  C   UNL     1       5.902   4.175  -7.119  0.00  0.00    +0.124 C 
BRANCH   7  16
ATOM     13  C   UNL     1       7.153   8.552  -8.893  0.00  0.00    +0.000 A 
ATOM     14  C   UNL     1       7.631   7.313  -9.276  0.00  0.00    +0.002 A 
ATOM     15  C   UNL     1       7.450   6.217  -8.455  0.00  0.00    +0.023 A 
ATOM     16  C   UNL     1       6.786   6.362  -7.243  0.00  0.00    +0.030 A 
ATOM     17  C   UNL     1       6.303   7.608  -6.864  0.00  0.00    +0.023 A 
ATOM     18  C   UNL     1       6.492   8.700  -7.688  0.00  0.00    +0.002 A 
ENDBRANCH   7  16
ENDBRANCH   1  10
BRANCH   5  19
ATOM     19  C   UNL     1       3.385  -1.217  -4.300  0.00  0.00    +0.388 C 
ATOM     20  O   UNL     1       3.227  -2.177  -3.572  0.00  0.00    -0.241 OA
ATOM     21  O   UNL     1       2.942  -1.256  -5.572  0.00  0.00    -0.241 OA
ENDBRANCH   5  19
BRANCH   4  22
ATOM     22  N   UNL     1       4.345  -1.062  -1.629  0.00  0.00    -0.215 N 
ATOM     23  H   UNL     1       4.408  -2.082  -2.036  0.00  0.00    +0.174 HD
BRANCH  22  24
ATOM     24  S   UNL     1       4.038  -0.831  -0.018  0.00  0.00    +0.072 S 
ATOM     25  O   UNL     1       5.069   0.014   0.475  0.00  0.00    -0.150 OA
ATOM     26  O   UNL     1       3.775  -2.114   0.533  0.00  0.00    -0.150 OA
BRANCH  24  27
ATOM     27  C   UNL     1       2.538   0.086   0.100  0.00  0.00    +0.108 A 
ATOM     28  C   UNL     1       1.327  -0.577   0.174  0.00  0.00    +0.029 A 
ATOM     29  C   UNL     1       0.150   0.141   0.267  0.00  0.00    +0.002 A 
ATOM     30  C   UNL     1       0.183   1.523   0.285  0.00  0.00    +0.000 A 
ATOM     31  C   UNL     1       1.394   2.186   0.211  0.00  0.00    +0.002 A 
ATOM     32  C   UNL     1       2.571   1.467   0.118  0.00  0.00    +0.029 A 
ENDBRANCH  24  27
ENDBRANCH  22  24
ENDBRANCH   4  22
TORSDOF 6
