REMARK  Name = ZINC22508424
REMARK  6 active torsions:
REMARK  status: ('A' for Active; 'I' for Inactive)
REMARK    1  A    between atoms: C_6  and  N_26
REMARK    2  A    between atoms: C_7  and  C_11
REMARK    3  A    between atoms: N_13  and  C_14
REMARK    4  A    between atoms: C_18  and  N_20
REMARK    5  A    between atoms: N_26  and  S_27
REMARK    6  A    between atoms: S_27  and  C_30
REMARK                            x       y       z     vdW  Elec       q    Type
REMARK                         _______ _______ _______ _____ _____    ______ ____
ROOT
ATOM      1  C   UNL     1       2.541   6.415   1.153  0.00  0.00    +0.001 A 
ATOM      2  C   UNL     1       3.868   6.004   1.032  0.00  0.00    +0.001 A 
ATOM      3  C   UNL     1       4.177   4.727   0.679  0.00  0.00    +0.008 A 
ATOM      4  C   UNL     1       3.147   3.803   0.432  0.00  0.00    -0.016 A 
ATOM      5  C   UNL     1       3.436   2.478   0.067  0.00  0.00    +0.036 A 
ATOM      6  C   UNL     1       2.420   1.597  -0.168  0.00  0.00    +0.087 A 
ATOM      7  C   UNL     1       1.072   2.004  -0.047  0.00  0.00    +0.062 A 
ATOM      8  C   UNL     1       0.762   3.307   0.307  0.00  0.00    +0.023 A 
ATOM      9  C   UNL     1       1.796   4.220   0.556  0.00  0.00    -0.017 A 
ATOM     10  C   UNL     1       1.516   5.549   0.923  0.00  0.00    +0.008 A 
ENDROOT
BRANCH   7  11
ATOM     11  C   UNL     1      -0.011   1.037  -0.306  0.00  0.00    +0.250 C 
ATOM     12  O   UNL     1       0.257  -0.107  -0.622  0.00  0.00    -0.270 OA
ATOM     13  N   UNL     1      -1.298   1.422  -0.197  0.00  0.00    -0.281 N 
ATOM     14  H   UNL     1      -1.542   2.432   0.163  0.00  0.00    +0.155 HD
BRANCH  13  15
ATOM     15  C   UNL     1      -2.325   0.536  -0.541  0.00  0.00    +0.035 A 
ATOM     16  C   UNL     1      -2.187  -0.823  -0.285  0.00  0.00    +0.023 A 
ATOM     17  C   UNL     1      -3.200  -1.697  -0.624  0.00  0.00    +0.004 A 
ATOM     18  C   UNL     1      -4.354  -1.225  -1.220  0.00  0.00    +0.023 A 
ATOM     19  C   UNL     1      -4.498   0.132  -1.480  0.00  0.00    +0.038 A 
ATOM     20  C   UNL     1      -3.484   1.014  -1.135  0.00  0.00    +0.046 A 
BRANCH  19  21
ATOM     21  N   UNL     1      -5.667   0.609  -2.083  0.00  0.00    -0.271 N 
ATOM     22  C   UNL     1      -6.846  -0.215  -2.371  0.00  0.00    +0.114 C 
ATOM     23  C   UNL     1      -7.673   0.592  -3.396  0.00  0.00    +0.029 C 
ATOM     24  C   UNL     1      -7.225   2.040  -3.092  0.00  0.00    +0.098 C 
ATOM     25  C   UNL     1      -5.856   1.883  -2.467  0.00  0.00    +0.220 C 
ATOM     26  O   UNL     1      -5.046   2.776  -2.334  0.00  0.00    -0.275 OA
ENDBRANCH  19  21
ENDBRANCH  13  15
ENDBRANCH   7  11
BRANCH   6  27
ATOM     27  N   UNL     1       2.714   0.287  -0.531  0.00  0.00    -0.097 NA
BRANCH  27  28
ATOM     28  S   UNL     1       4.033  -0.476   0.118  0.00  0.00    +0.098 S 
ATOM     29  O   UNL     1       3.984  -1.824  -0.329  0.00  0.00    -0.148 OA
ATOM     30  O   UNL     1       5.150   0.368  -0.125  0.00  0.00    -0.148 OA
BRANCH  28  31
ATOM     31  C   UNL     1       3.804  -0.516   1.865  0.00  0.00    +0.148 A 
ATOM     32  C   UNL     1       3.200  -1.463   2.625  0.00  0.00    +0.037 A 
ATOM     33  C   UNL     1       3.136  -1.283   3.994  0.00  0.00    +0.010 A 
ATOM     34  C   UNL     1       3.680  -0.166   4.536  0.00  0.00    +0.047 A 
ATOM     35  S   UNL     1       4.314   0.674   3.094  0.00  0.00    -0.077 S 
ENDBRANCH  28  31
ENDBRANCH  27  28
ENDBRANCH   6  27
TORSDOF 6
