REMARK  Name = ZINC52607219
REMARK  9 active torsions:
REMARK  status: ('A' for Active; 'I' for Inactive)
REMARK    1  A    between atoms: C_1  and  C_2
REMARK    2  A    between atoms: C_2  and  C_3
REMARK    3  A    between atoms: C_7  and  C_37
REMARK    4  A    between atoms: C_9  and  C_36
REMARK    5  A    between atoms: N_12  and  C_13
REMARK    6  A    between atoms: C_13  and  C_14
REMARK    7  A    between atoms: N_22  and  C_23
REMARK    8  A    between atoms: C_23  and  C_25
REMARK    9  A    between atoms: C_23  and  C_31
REMARK                            x       y       z     vdW  Elec       q    Type
REMARK                         _______ _______ _______ _____ _____    ______ ____
ROOT
ATOM      1  C   UNL     1      -0.836  -5.441   4.810  0.00  0.00    -0.030 A 
ATOM      2  C   UNL     1      -1.212  -4.929   6.039  0.00  0.00    +0.007 A 
ATOM      3  C   UNL     1      -2.457  -4.361   6.203  0.00  0.00    +0.024 A 
ATOM      4  C   UNL     1      -3.348  -4.296   5.130  0.00  0.00    +0.034 A 
ATOM      5  C   UNL     1      -2.962  -4.811   3.903  0.00  0.00    -0.025 A 
ATOM      6  C   UNL     1      -1.711  -5.375   3.742  0.00  0.00    +0.010 A 
ATOM      7  C   UNL     1      -4.096  -4.617   2.921  0.00  0.00    +0.056 C 
ATOM      8  C   UNL     1      -5.197  -3.921   3.737  0.00  0.00    +0.111 C 
ATOM      9  N   UNL     1      -4.639  -3.768   5.084  0.00  0.00    -0.315 N 
ENDROOT
BRANCH   1  10
ATOM     10  C   UNL     1       0.526  -6.062   4.635  0.00  0.00    +0.143 C 
BRANCH  10  19
ATOM     11  C   UNL     1       2.298  -4.202   5.128  0.00  0.00    +0.160 C 
ATOM     12  N   UNL     1       3.091  -3.327   4.255  0.00  0.00    -0.323 N 
ATOM     13  C   UNL     1       2.749  -3.641   2.934  0.00  0.00    +0.070 A 
ATOM     14  C   UNL     1       3.199  -3.117   1.729  0.00  0.00    -0.025 A 
ATOM     15  C   UNL     1       2.677  -3.626   0.548  0.00  0.00    +0.026 A 
ATOM     16  C   UNL     1       1.733  -4.631   0.608  0.00  0.00    +0.015 A 
ATOM     17  N   UNL     1       1.322  -5.110   1.765  0.00  0.00    -0.346 N 
ATOM     18  C   UNL     1       1.793  -4.655   2.920  0.00  0.00    +0.122 A 
ATOM     19  N   UNL     1       1.484  -5.031   4.230  0.00  0.00    -0.292 N 
ATOM     20  C   UNL     1       1.161  -5.188  -0.671  0.00  0.00    +0.063 C 
ATOM     21  C   UNL     1       4.232  -2.019   1.704  0.00  0.00    +0.046 C 
ATOM     22  H   UNL     1       3.732  -2.657   4.540  0.00  0.00    +0.148 HD
ATOM     23  H   UNL     1       0.656  -5.816   1.773  0.00  0.00    +0.167 HD
BRANCH  11  25
ATOM     24  C   UNL     1       3.990  -4.215   6.966  0.00  0.00    +0.007 C 
ATOM     25  C   UNL     1       3.221  -5.085   5.970  0.00  0.00    +0.039 C 
ENDBRANCH  11  25
ENDBRANCH  10  19
ENDBRANCH   1  10
BRANCH   9  26
ATOM     26  C   UNL     1      -5.335  -3.152   6.216  0.00  0.00    +0.173 C 
BRANCH  26  27
ATOM     27  C   UNL     1      -5.789  -1.767   5.833  0.00  0.00    -0.020 A 
ATOM     28  C   UNL     1      -6.624  -1.589   4.745  0.00  0.00    +0.006 A 
ATOM     29  C   UNL     1      -7.040  -0.319   4.394  0.00  0.00    +0.000 A 
ATOM     30  C   UNL     1      -6.623   0.774   5.130  0.00  0.00    +0.000 A 
ATOM     31  C   UNL     1      -5.789   0.596   6.218  0.00  0.00    +0.000 A 
ATOM     32  C   UNL     1      -5.376  -0.675   6.572  0.00  0.00    +0.006 A 
ENDBRANCH  26  27
BRANCH  26  33
ATOM     33  C   UNL     1      -6.533  -3.989   6.585  0.00  0.00    +0.174 A 
ATOM     34  N   UNL     1      -7.193  -4.801   5.797  0.00  0.00    -0.111 NA
ATOM     35  N   UNL     1      -8.148  -5.331   6.481  0.00  0.00    -0.023 NA
ATOM     36  N   UNL     1      -8.114  -4.878   7.685  0.00  0.00    -0.047 NA
ATOM     37  N   UNL     1      -7.129  -4.051   7.790  0.00  0.00    -0.241 N 
ATOM     38  H   UNL     1      -6.868  -3.564   8.588  0.00  0.00    +0.192 HD
ENDBRANCH  26  33
ENDBRANCH   9  26
TORSDOF 6
