REMARK  Name = ZINC44491443
REMARK  9 active torsions:
REMARK  status: ('A' for Active; 'I' for Inactive)
REMARK    1  A    between atoms: C_1  and  C_2
REMARK    2  A    between atoms: C_17  and  C_39
REMARK    3  A    between atoms: C_19  and  O_37
REMARK    4  A    between atoms: C_22  and  C_36
REMARK    5  A    between atoms: C_23  and  C_24
REMARK    6  A    between atoms: C_23  and  O_28
REMARK    7  A    between atoms: C_24  and  C_26
REMARK    8  A    between atoms: O_28  and  C_29
REMARK    9  A    between atoms: C_29  and  C_31
REMARK                            x       y       z     vdW  Elec       q    Type
REMARK                         _______ _______ _______ _____ _____    ______ ____
ROOT
ATOM      1  C   UNL     1       0.428   1.768   0.116  0.00  0.00    +0.012 C 
ATOM      2  C   UNL     1       0.276   0.250   0.002  0.00  0.00    +0.038 C 
ATOM      3  C   UNL     1      -1.206  -0.120  -0.220  0.00  0.00    +0.012 C 
ATOM      4  C   UNL     1      -1.642  -0.864   1.054  0.00  0.00    +0.005 C 
ATOM      5  C   UNL     1      -2.776  -1.815   0.810  0.00  0.00    +0.018 C 
ATOM      6  C   UNL     1      -3.601  -2.043   2.084  0.00  0.00    +0.010 C 
ATOM      7  C   UNL     1      -5.012  -2.385   1.586  0.00  0.00    +0.032 C 
ATOM      8  C   UNL     1      -4.904  -3.576   0.667  0.00  0.00    -0.055 C 
ATOM      9  C   UNL     1      -6.058  -4.208   0.370  0.00  0.00    +0.051 C 
ATOM     10  C   UNL     1      -5.972  -5.394  -0.515  0.00  0.00    +0.179 C 
ATOM     11  O   UNL     1      -6.724  -6.349  -0.400  0.00  0.00    -0.288 OA
ATOM     12  C   UNL     1      -4.911  -5.346  -1.552  0.00  0.00    +0.047 C 
ATOM     13  C   UNL     1      -3.767  -4.719  -1.228  0.00  0.00    -0.011 C 
ATOM     14  C   UNL     1      -3.612  -4.089   0.128  0.00  0.00    +0.029 C 
ATOM     15  C   UNL     1      -2.426  -3.149   0.171  0.00  0.00    +0.086 C 
ATOM     16  C   UNL     1      -1.193  -3.759   0.827  0.00  0.00    +0.137 C 
ATOM     17  C   UNL     1      -0.028  -2.755   0.783  0.00  0.00    +0.044 C 
ATOM     18  C   UNL     1      -0.358  -1.512   1.599  0.00  0.00    +0.021 C 
ATOM     19  C   UNL     1       0.710  -0.424   1.316  0.00  0.00    +0.180 C 
ATOM     20  C   UNL     1      -0.453  -1.808   3.099  0.00  0.00    +0.016 C 
ATOM     21 CL   UNL     1      -1.990  -2.802  -1.560  0.00  0.00    -0.114 Cl
ATOM     22  C   UNL     1      -3.298  -5.269   1.048  0.00  0.00    +0.022 C 
ENDROOT
BRANCH  19  23
ATOM     23  C   UNL     1       2.087  -1.010   1.180  0.00  0.00    +0.192 C 
ATOM     24  O   UNL     1       2.225  -2.145   0.790  0.00  0.00    -0.292 OA
BRANCH  23  25
ATOM     25  C   UNL     1       3.296  -0.182   1.530  0.00  0.00    +0.187 C 
ATOM     26 CL   UNL     1       4.793  -1.099   1.117  0.00  0.00    -0.117 Cl
ENDBRANCH  23  25
ENDBRANCH  19  23
BRANCH  16  27
ATOM     27  O   UNL     1      -0.754  -4.908   0.083  0.00  0.00    -0.390 OA
ATOM     28  H   UNL     1       0.028  -5.340   0.452  0.00  0.00    +0.210 HD
ENDBRANCH  16  27
BRANCH  19  29
ATOM     29  O   UNL     1       0.701   0.543   2.374  0.00  0.00    -0.444 OA
BRANCH  29  30
ATOM     30  C   UNL     1       1.204   0.153   3.564  0.00  0.00    +0.376 C 
ATOM     31  O   UNL     1       1.732  -0.937   3.674  0.00  0.00    -0.241 OA
BRANCH  30  32
ATOM     32  C   UNL     1       1.112   1.042   4.724  0.00  0.00    +0.211 A 
ATOM     33  C   UNL     1       1.582   0.776   5.980  0.00  0.00    +0.056 A 
ATOM     34  C   UNL     1       1.282   1.896   6.769  0.00  0.00    +0.042 A 
ATOM     35  C   UNL     1       0.650   2.787   5.972  0.00  0.00    +0.196 A 
ATOM     36  O   UNL     1       0.554   2.271   4.740  0.00  0.00    -0.456 OA
ENDBRANCH  30  32
ENDBRANCH  29  30
ENDBRANCH  19  29
TORSDOF 6
