REMARK  Name = ZINC09781159
REMARK  8 active torsions:
REMARK  status: ('A' for Active; 'I' for Inactive)
REMARK    1  A    between atoms: C_1  and  C_2
REMARK    2  A    between atoms: C_7  and  N_8
REMARK    3  A    between atoms: C_9  and  C_11
REMARK    4  A    between atoms: C_12  and  C_35
REMARK    5  A    between atoms: C_16  and  S_27
REMARK    6  A    between atoms: C_19  and  C_21
REMARK    7  A    between atoms: S_27  and  C_28
REMARK    8  A    between atoms: C_28  and  C_29
REMARK                            x       y       z     vdW  Elec       q    Type
REMARK                         _______ _______ _______ _____ _____    ______ ____
ROOT
ATOM      1  C   UNL     1       0.022  -0.221   5.197  0.00  0.00    +0.061 C 
ATOM      2  C   UNL     1       0.165  -0.717   6.463  0.00  0.00    +0.026 C 
ATOM      3  N   UNL     1       0.283   0.074   7.517  0.00  0.00    -0.330 N 
ATOM      4  C   UNL     1       0.277   1.400   7.472  0.00  0.00    +0.215 C 
ATOM      5  N   UNL     1       0.384   2.322   8.438  0.00  0.00    -0.192 NA
ATOM      6  C   UNL     1       0.325   3.537   7.921  0.00  0.00    +0.174 C 
ATOM      7  N   UNL     1       0.173   3.434   6.565  0.00  0.00    -0.239 N 
ATOM      8  N   UNL     1       0.142   2.067   6.277  0.00  0.00    -0.207 N 
ATOM      9  C   UNL     1       0.010   1.289   5.040  0.00  0.00    +0.182 C 
ATOM     10  C   UNL     1       0.189  -2.211   6.665  0.00  0.00    +0.064 C 
ATOM     11  H   UNL     1       0.381  -0.345   8.386  0.00  0.00    +0.168 HD
ATOM     12  H   UNL     1       0.100   4.165   5.931  0.00  0.00    +0.172 HD
ENDROOT
BRANCH   9  13
ATOM     13  C   UNL     1      -1.287   1.683   4.381  0.00  0.00    +0.068 A 
ATOM     14  C   UNL     1      -2.183   2.486   5.060  0.00  0.00    +0.025 A 
ATOM     15  C   UNL     1      -3.373   2.842   4.445  0.00  0.00    +0.003 A 
ATOM     16  C   UNL     1      -3.618   2.375   3.162  0.00  0.00    +0.020 A 
ATOM     17  C   UNL     1      -2.675   1.575   2.545  0.00  0.00    +0.111 A 
ATOM     18  N   UNL     1      -1.551   1.261   3.160  0.00  0.00    -0.258 NA
ENDBRANCH   9  13
BRANCH   1  20
ATOM     19  N   UNL     1      -1.255  -1.741   3.875  0.00  0.00    -0.281 N 
ATOM     20  C   UNL     1      -0.103  -1.074   4.087  0.00  0.00    +0.248 C 
ATOM     21  O   UNL     1       0.830  -1.210   3.314  0.00  0.00    -0.270 OA
ATOM     22  H   UNL     1      -2.012  -1.600   4.465  0.00  0.00    +0.155 HD
BRANCH  19  29
ATOM     23  C   UNL     1      -3.101  -3.895   4.100  0.00  0.00    +0.045 C 
ATOM     24  C   UNL     1      -2.247  -3.701   2.873  0.00  0.00    -0.029 A 
ATOM     25  C   UNL     1      -2.351  -4.579   1.812  0.00  0.00    +0.005 A 
ATOM     26  C   UNL     1      -1.568  -4.402   0.687  0.00  0.00    +0.000 A 
ATOM     27  C   UNL     1      -0.678  -3.346   0.619  0.00  0.00    +0.002 A 
ATOM     28  C   UNL     1      -0.569  -2.464   1.676  0.00  0.00    +0.023 A 
ATOM     29  C   UNL     1      -1.359  -2.635   2.806  0.00  0.00    +0.037 A 
ENDBRANCH  19  29
ENDBRANCH   1  20
BRANCH   6  30
ATOM     30  S   UNL     1       0.425   5.043   8.830  0.00  0.00    -0.084 S 
BRANCH  30  31
ATOM     31  C   UNL     1       0.619   4.505  10.551  0.00  0.00    +0.112 C 
BRANCH  31  32
ATOM     32  C   UNL     1       0.719   5.713  11.447  0.00  0.00    -0.037 A 
ATOM     33  C   UNL     1       1.953   6.272  11.720  0.00  0.00    +0.004 A 
ATOM     34  C   UNL     1       2.044   7.380  12.541  0.00  0.00    +0.000 A 
ATOM     35  C   UNL     1       0.900   7.929  13.090  0.00  0.00    +0.000 A 
ATOM     36  C   UNL     1      -0.334   7.370  12.817  0.00  0.00    +0.000 A 
ATOM     37  C   UNL     1      -0.426   6.265  11.992  0.00  0.00    +0.004 A 
ENDBRANCH  31  32
ENDBRANCH  30  31
ENDBRANCH   6  30
TORSDOF 6
