REMARK  Name = ZINC33069412
REMARK  9 active torsions:
REMARK  status: ('A' for Active; 'I' for Inactive)
REMARK    1  A    between atoms: C_1  and  C_2
REMARK    2  A    between atoms: C_3  and  N_30
REMARK    3  A    between atoms: C_4  and  N_13
REMARK    4  A    between atoms: N_5  and  C_7
REMARK    5  A    between atoms: C_16  and  C_19
REMARK    6  A    between atoms: N_21  and  C_22
REMARK    7  A    between atoms: C_31  and  C_33
REMARK    8  A    between atoms: C_33  and  C_34
REMARK    9  A    between atoms: C_33  and  C_35
REMARK                            x       y       z     vdW  Elec       q    Type
REMARK                         _______ _______ _______ _____ _____    ______ ____
ROOT
ATOM      1  C   UNL     1      -0.705  -0.892  -0.829  0.00  0.00    +0.069 C 
ATOM      2  C   UNL     1      -1.795  -0.017  -0.266  0.00  0.00    +0.083 A 
ATOM      3  C   UNL     1      -1.844   1.381  -0.342  0.00  0.00    +0.097 A 
ATOM      4  C   UNL     1      -2.987   1.793   0.281  0.00  0.00    +0.147 A 
ATOM      5  N   UNL     1      -3.627   0.679   0.735  0.00  0.00    -0.216 N 
ATOM      6  N   UNL     1      -2.854  -0.434   0.380  0.00  0.00    -0.168 NA
ENDROOT
BRANCH   5   7
ATOM      7  C   UNL     1      -4.841   0.652   1.434  0.00  0.00    +0.067 A 
ATOM      8  C   UNL     1      -5.149   1.664   2.333  0.00  0.00    +0.028 A 
ATOM      9  C   UNL     1      -6.349   1.638   3.016  0.00  0.00    +0.002 A 
ATOM     10  C   UNL     1      -7.238   0.598   2.814  0.00  0.00    +0.000 A 
ATOM     11  C   UNL     1      -6.933  -0.414   1.923  0.00  0.00    +0.002 A 
ATOM     12  C   UNL     1      -5.737  -0.390   1.233  0.00  0.00    +0.028 A 
ENDBRANCH   5   7
BRANCH   4  13
ATOM     13  N   UNL     1      -3.420   3.111   0.425  0.00  0.00    -0.314 N 
ATOM     14  C   UNL     1      -2.429   4.052  -0.112  0.00  0.00    +0.107 C 
ATOM     15  C   UNL     1      -2.868   5.486   0.193  0.00  0.00    +0.032 C 
ATOM     16  C   UNL     1      -4.238   5.741  -0.441  0.00  0.00    +0.078 C 
ATOM     17  C   UNL     1      -5.240   4.717   0.099  0.00  0.00    +0.032 C 
ATOM     18  C   UNL     1      -4.733   3.305  -0.203  0.00  0.00    +0.107 C 
BRANCH  16  19
ATOM     19  C   UNL     1      -4.703   7.132  -0.093  0.00  0.00    +0.220 C 
ATOM     20  O   UNL     1      -5.734   7.290   0.525  0.00  0.00    -0.275 OA
ATOM     21  N   UNL     1      -3.973   8.200  -0.470  0.00  0.00    -0.283 N 
ATOM     22  H   UNL     1      -3.088   8.064  -1.110  0.00  0.00    +0.155 HD
BRANCH  21  23
ATOM     23  C   UNL     1      -4.340   9.484  -0.048  0.00  0.00    +0.072 A 
ATOM     24  C   UNL     1      -5.179   9.642   1.046  0.00  0.00    +0.064 A 
ATOM     25  C   UNL     1      -5.540  10.912   1.462  0.00  0.00    +0.125 A 
ATOM     26  C   UNL     1      -5.064  12.024   0.786  0.00  0.00    +0.041 A 
ATOM     27  C   UNL     1      -4.229  11.869  -0.304  0.00  0.00    +0.043 A 
ATOM     28  C   UNL     1      -3.860  10.603  -0.720  0.00  0.00    +0.145 A 
ATOM     29  F   UNL     1      -3.039  10.452  -1.783  0.00  0.00    -0.204 F 
ATOM     30  F   UNL     1      -6.356  11.067   2.527  0.00  0.00    -0.205 F 
ENDBRANCH  21  23
ENDBRANCH  16  19
ENDBRANCH   4  13
BRANCH   3  31
ATOM     31  N   UNL     1      -0.886   2.215  -0.958  0.00  0.00    -0.281 N 
ATOM     32  C   UNL     1       0.422   1.892  -0.904  0.00  0.00    +0.220 C 
ATOM     33  O   UNL     1       0.785   0.937  -0.250  0.00  0.00    -0.275 OA
ATOM     34  H   UNL     1      -1.206   3.127  -1.481  0.00  0.00    +0.155 HD
BRANCH  32  35
ATOM     35  C   UNL     1       1.433   2.715  -1.661  0.00  0.00    +0.069 C 
ATOM     36  C   UNL     1       2.831   2.136  -1.437  0.00  0.00    +0.017 C 
ATOM     37  C   UNL     1       1.100   2.684  -3.154  0.00  0.00    +0.017 C 
ENDBRANCH  32  35
ENDBRANCH   3  31
TORSDOF 6
