REMARK  Name = ZINC33630251
REMARK  8 active torsions:
REMARK  status: ('A' for Active; 'I' for Inactive)
REMARK    1  A    between atoms: C_1  and  C_2
REMARK    2  A    between atoms: C_7  and  N_8
REMARK    3  A    between atoms: C_13  and  C_31
REMARK    4  A    between atoms: C_16  and  C_21
REMARK    5  A    between atoms: C_16  and  C_28
REMARK    6  A    between atoms: C_21  and  C_22
REMARK    7  A    between atoms: C_34  and  O_41
REMARK    8  A    between atoms: O_41  and  C_42
REMARK                            x       y       z     vdW  Elec       q    Type
REMARK                         _______ _______ _______ _____ _____    ______ ____
ROOT
ATOM      1  N   UNL     1       0.187   0.173   2.373  0.00  0.00    -0.210 N 
ATOM      2  C   UNL     1      -0.990   0.478   3.012  0.00  0.00    +0.229 C 
ATOM      3  O   UNL     1      -2.104   0.088   2.736  0.00  0.00    -0.275 OA
ATOM      4  C   UNL     1      -0.608   1.365   4.083  0.00  0.00    +0.077 C 
ATOM      5  C   UNL     1      -1.103   1.863   5.378  0.00  0.00    -0.026 C 
ATOM      6  N   UNL     1       0.102   2.579   5.922  0.00  0.00    +0.396 N 
ATOM      7  C   UNL     1       1.311   2.006   5.258  0.00  0.00    +0.052 C 
ATOM      8  C   UNL     1       0.798   0.774   4.497  0.00  0.00    +0.086 C 
ATOM      9  C   UNL     1       1.288   0.533   3.097  0.00  0.00    +0.229 C 
ATOM     10  O   UNL     1       2.426   0.639   2.693  0.00  0.00    -0.275 OA
ATOM     11  H   UNL     1       0.035   3.565   5.718  0.00  0.00    -0.083 HD
ATOM     12  H   UNL     1       0.161   2.439   6.919  0.00  0.00    -0.083 HD
ENDROOT
BRANCH   5  13
ATOM     13  C   UNL     1      -2.254   2.817   5.183  0.00  0.00    -0.053 A 
ATOM     14  C   UNL     1      -2.494   3.355   3.955  0.00  0.00    +0.006 A 
ATOM     15  C   UNL     1      -3.551   4.238   3.753  0.00  0.00    +0.046 A 
ATOM     16  C   UNL     1      -4.379   4.590   4.782  0.00  0.00    +0.128 A 
ATOM     17  C   UNL     1      -4.160   4.051   6.066  0.00  0.00    +0.024 A 
ATOM     18  C   UNL     1      -3.086   3.149   6.265  0.00  0.00    -0.013 A 
ATOM     19  C   UNL     1      -2.870   2.608   7.544  0.00  0.00    +0.009 A 
ATOM     20  C   UNL     1      -3.696   2.952   8.570  0.00  0.00    +0.001 A 
ATOM     21  C   UNL     1      -4.755   3.835   8.371  0.00  0.00    +0.001 A 
ATOM     22  C   UNL     1      -4.987   4.388   7.149  0.00  0.00    +0.012 A 
BRANCH  16  23
ATOM     23  O   UNL     1      -5.405   5.453   4.569  0.00  0.00    -0.495 OA
ATOM     24  C   UNL     1      -5.564   5.958   3.241  0.00  0.00    +0.277 C 
ENDBRANCH  16  23
ENDBRANCH   5  13
BRANCH   1  31
ATOM     25  C   UNL     1       0.242   1.826   0.058  0.00  0.00    +0.045 C 
ATOM     26  C   UNL     1       0.280   0.323  -0.037  0.00  0.00    -0.029 A 
ATOM     27  C   UNL     1       0.349  -0.291  -1.273  0.00  0.00    +0.005 A 
ATOM     28  C   UNL     1       0.384  -1.670  -1.361  0.00  0.00    +0.000 A 
ATOM     29  C   UNL     1       0.350  -2.440  -0.212  0.00  0.00    +0.002 A 
ATOM     30  C   UNL     1       0.281  -1.832   1.026  0.00  0.00    +0.024 A 
ATOM     31  C   UNL     1       0.251  -0.447   1.118  0.00  0.00    +0.047 A 
ENDBRANCH   1  31
BRANCH   7  32
ATOM     32  C   UNL     1       2.322   1.583   6.292  0.00  0.00    +0.347 C 
ATOM     33  O   UNL     1       2.093   1.758   7.476  0.00  0.00    -0.248 OA
ATOM     34  O   UNL     1       3.370   1.066   5.944  0.00  0.00    -0.248 OA
ENDBRANCH   7  32
BRANCH   7  35
ATOM     35  C   UNL     1       1.926   3.031   4.303  0.00  0.00    +0.035 C 
BRANCH  35  36
ATOM     36  C   UNL     1       2.357   4.248   5.080  0.00  0.00    -0.048 A 
ATOM     37  C   UNL     1       1.474   5.294   5.273  0.00  0.00    +0.003 A 
ATOM     38  C   UNL     1       1.869   6.410   5.987  0.00  0.00    +0.000 A 
ATOM     39  C   UNL     1       3.147   6.480   6.508  0.00  0.00    +0.000 A 
ATOM     40  C   UNL     1       4.030   5.434   6.316  0.00  0.00    +0.000 A 
ATOM     41  C   UNL     1       3.634   4.316   5.606  0.00  0.00    +0.003 A 
ENDBRANCH  35  36
ENDBRANCH   7  35
TORSDOF 6
