REMARK  Name = ZINC25072353
REMARK  7 active torsions:
REMARK  status: ('A' for Active; 'I' for Inactive)
REMARK    1  A    between atoms: C_3  and  C_6
REMARK    2  A    between atoms: C_6  and  C_8
REMARK    3  A    between atoms: C_6  and  N_15
REMARK    4  A    between atoms: C_16  and  C_18
REMARK    5  A    between atoms: C_18  and  N_19
REMARK    6  A    between atoms: N_23  and  C_26
REMARK    7  A    between atoms: C_26  and  C_27
REMARK                            x       y       z     vdW  Elec       q    Type
REMARK                         _______ _______ _______ _____ _____    ______ ____
ROOT
ATOM      1  N   UNL     1       1.929  -2.490   0.859  0.00  0.00    -0.303 N 
ATOM      2  C   UNL     1       2.209  -2.483   2.177  0.00  0.00    +0.228 C 
ATOM      3  O   UNL     1       2.986  -1.669   2.628  0.00  0.00    -0.274 OA
ATOM      4  H   UNL     1       1.224  -3.229   0.450  0.00  0.00    +0.150 HD
ENDROOT
BRANCH   1   5
ATOM      5  C   UNL     1       2.565  -1.514  -0.030  0.00  0.00    +0.140 C 
BRANCH   5   6
ATOM      6  C   UNL     1       2.606  -2.064  -1.433  0.00  0.00    -0.022 A 
ATOM      7  C   UNL     1       1.527  -2.771  -1.929  0.00  0.00    +0.008 A 
ATOM      8  C   UNL     1       1.561  -3.271  -3.217  0.00  0.00    +0.038 A 
ATOM      9  C   UNL     1       2.682  -3.073  -4.006  0.00  0.00    +0.123 A 
ATOM     10  C   UNL     1       3.764  -2.369  -3.506  0.00  0.00    +0.038 A 
ATOM     11  C   UNL     1       3.725  -1.865  -2.220  0.00  0.00    +0.008 A 
ATOM     12  F   UNL     1       2.718  -3.566  -5.264  0.00  0.00    -0.205 F 
ENDBRANCH   5   6
BRANCH   5  15
ATOM     13  C   UNL     1       1.300   2.079   0.001  0.00  0.00    +0.008 A 
ATOM     14  C   UNL     1       2.220   1.048  -0.013  0.00  0.00    +0.013 A 
ATOM     15  C   UNL     1       1.773  -0.232  -0.016  0.00  0.00    +0.014 A 
ATOM     16  S   UNL     1       0.002  -0.004   0.002  0.00  0.00    -0.099 S 
ATOM     17  C   UNL     1      -0.022   1.781   0.012  0.00  0.00    +0.045 A 
ENDBRANCH   5  15
ENDBRANCH   1   5
BRANCH   2  18
ATOM     18  C   UNL     1       1.555  -3.487   3.091  0.00  0.00    +0.180 C 
BRANCH  18  19
ATOM     19  N   UNL     1       2.021  -3.272   4.468  0.00  0.00    -0.296 NA
ATOM     20  C   UNL     1       1.581  -2.037   4.960  0.00  0.00    +0.083 C 
ATOM     21  C   UNL     1       2.227  -1.708   6.324  0.00  0.00    -0.003 C 
ATOM     22  C   UNL     1       1.559  -2.533   7.394  0.00  0.00    -0.077 C 
ATOM     23  N   UNL     1       2.254  -3.814   7.654  0.00  0.00    +0.383 N 
ATOM     24  C   UNL     1       2.714  -4.501   6.429  0.00  0.00    -0.063 C 
ATOM     25  C   UNL     1       1.690  -4.429   5.325  0.00  0.00    +0.066 C 
ATOM     26  H   UNL     1       3.164  -3.560   8.218  0.00  0.00    -0.081 HD
BRANCH  23  27
ATOM     27  C   UNL     1       1.427  -4.705   8.478  0.00  0.00    -0.043 C 
BRANCH  27  28
ATOM     28  C   UNL     1       1.256  -4.106   9.850  0.00  0.00    -0.064 A 
ATOM     29  C   UNL     1       2.159  -4.406  10.852  0.00  0.00    +0.004 A 
ATOM     30  C   UNL     1       2.006  -3.853  12.109  0.00  0.00    +0.038 A 
ATOM     31  C   UNL     1       0.942  -3.006  12.368  0.00  0.00    +0.123 A 
ATOM     32  C   UNL     1       0.035  -2.710  11.364  0.00  0.00    +0.038 A 
ATOM     33  C   UNL     1       0.193  -3.260  10.107  0.00  0.00    +0.004 A 
ATOM     34  F   UNL     1       0.789  -2.469  13.598  0.00  0.00    -0.205 F 
ENDBRANCH  27  28
ENDBRANCH  23  27
ENDBRANCH  18  19
ENDBRANCH   2  18
TORSDOF 7
