REMARK  Name = ZINC38547528
REMARK  12 active torsions:
REMARK  status: ('A' for Active; 'I' for Inactive)
REMARK    1  A    between atoms: C_1  and  C_2
REMARK    2  A    between atoms: N_8  and  C_9
REMARK    3  A    between atoms: C_9  and  C_11
REMARK    4  A    between atoms: C_9  and  C_21
REMARK    5  A    between atoms: C_15  and  O_19
REMARK    6  A    between atoms: C_16  and  O_17
REMARK    7  A    between atoms: O_17  and  C_18
REMARK    8  A    between atoms: O_19  and  C_20
REMARK    9  A    between atoms: C_22  and  C_36
REMARK   10  A    between atoms: C_23  and  C_35
REMARK   11  A    between atoms: C_25  and  N_26
REMARK   12  A    between atoms: C_27  and  C_29
REMARK                            x       y       z     vdW  Elec       q    Type
REMARK                         _______ _______ _______ _____ _____    ______ ____
ROOT
ATOM      1  C   UNL     1      -0.209  -1.961   3.711  0.00  0.00    +0.138 C 
ENDROOT
BRANCH   1   9
ATOM      2  C   UNL     1       2.674  -6.174   4.208  0.00  0.00    +0.044 C 
ATOM      3  C   UNL     1       1.809  -5.595   3.118  0.00  0.00    -0.046 A 
ATOM      4  C   UNL     1       1.705  -6.223   1.884  0.00  0.00    +0.021 A 
ATOM      5  C   UNL     1       0.904  -5.667   0.908  0.00  0.00    +0.084 A 
ATOM      6  N   UNL     1       0.239  -4.550   1.133  0.00  0.00    -0.350 N 
ATOM      7  C   UNL     1       0.312  -3.920   2.295  0.00  0.00    +0.097 A 
ATOM      8  C   UNL     1       1.096  -4.428   3.327  0.00  0.00    +0.045 A 
ATOM      9  N   UNL     1      -0.405  -2.745   2.489  0.00  0.00    -0.319 N 
ATOM     10  H   UNL     1      -1.034  -2.445   1.815  0.00  0.00    +0.148 HD
ATOM     11  H   UNL     1      -0.317  -4.180   0.429  0.00  0.00    +0.166 HD
ENDBRANCH   1   9
BRANCH   1  12
ATOM     12  C   UNL     1       1.101  -1.221   3.629  0.00  0.00    +0.009 A 
ATOM     13  C   UNL     1       1.406  -0.451   2.522  0.00  0.00    -0.033 A 
ATOM     14  C   UNL     1       2.593   0.202   2.480  0.00  0.00    -0.008 A 
ATOM     15  S   UNL     1       3.329  -0.264   4.038  0.00  0.00    -0.078 S 
ATOM     16  C   UNL     1       2.004  -1.294   4.646  0.00  0.00    +0.078 A 
ATOM     17  C   UNL     1       3.148   1.091   1.397  0.00  0.00    +0.052 C 
ATOM     18  C   UNL     1       0.432  -0.339   1.377  0.00  0.00    +0.045 C 
BRANCH  16  19
ATOM     19  N   UNL     1       1.916  -1.995   5.851  0.00  0.00    -0.276 N 
ATOM     20  C   UNL     1       2.883  -1.860   6.781  0.00  0.00    +0.249 C 
ATOM     21  O   UNL     1       3.780  -1.057   6.613  0.00  0.00    -0.270 OA
ATOM     22  H   UNL     1       1.160  -2.579   6.019  0.00  0.00    +0.156 HD
BRANCH  20  23
ATOM     23  C   UNL     1       2.852  -2.687   8.005  0.00  0.00    +0.037 A 
ATOM     24  C   UNL     1       1.894  -3.693   8.147  0.00  0.00    +0.013 A 
ATOM     25  C   UNL     1       1.871  -4.463   9.292  0.00  0.00    +0.001 A 
ATOM     26  C   UNL     1       2.793  -4.239  10.298  0.00  0.00    +0.000 A 
ATOM     27  C   UNL     1       3.744  -3.243  10.164  0.00  0.00    +0.001 A 
ATOM     28  C   UNL     1       3.783  -2.470   9.022  0.00  0.00    +0.013 A 
ENDBRANCH  20  23
ENDBRANCH  16  19
ENDBRANCH   1  12
BRANCH   1  29
ATOM     29  C   UNL     1      -1.337  -0.972   3.858  0.00  0.00    +0.022 A 
ATOM     30  C   UNL     1      -2.060  -0.577   2.748  0.00  0.00    +0.009 A 
ATOM     31  C   UNL     1      -3.095   0.330   2.879  0.00  0.00    +0.004 A 
ATOM     32  C   UNL     1      -3.410   0.847   4.122  0.00  0.00    +0.049 A 
ATOM     33  C   UNL     1      -2.690   0.456   5.239  0.00  0.00    +0.162 A 
ATOM     34  C   UNL     1      -1.652  -0.462   5.107  0.00  0.00    +0.167 A 
BRANCH  34  35
ATOM     35  O   UNL     1      -0.945  -0.853   6.201  0.00  0.00    -0.491 OA
ATOM     36  C   UNL     1       0.112   0.006   6.632  0.00  0.00    +0.277 C 
ENDBRANCH  34  35
BRANCH  33  37
ATOM     37  O   UNL     1      -2.999   0.964   6.462  0.00  0.00    -0.491 OA
ATOM     38  C   UNL     1      -4.080   1.897   6.522  0.00  0.00    +0.277 C 
ENDBRANCH  33  37
ENDBRANCH   1  29
TORSDOF 7
