REMARK  Name = ZINC39665650
REMARK  9 active torsions:
REMARK  status: ('A' for Active; 'I' for Inactive)
REMARK    1  A    between atoms: C_1  and  C_2
REMARK    2  A    between atoms: C_2  and  C_4
REMARK    3  A    between atoms: C_2  and  O_28
REMARK    4  A    between atoms: C_4  and  N_5
REMARK    5  A    between atoms: C_6  and  C_8
REMARK    6  A    between atoms: C_19  and  C_21
REMARK    7  A    between atoms: O_28  and  C_29
REMARK    8  A    between atoms: C_32  and  O_35
REMARK    9  A    between atoms: O_35  and  C_36
REMARK                            x       y       z     vdW  Elec       q    Type
REMARK                         _______ _______ _______ _____ _____    ______ ____
ROOT
ATOM      1  C   UNL     1       1.732  -4.862   0.139  0.00  0.00    +0.100 C 
ATOM      2  C   UNL     1       2.576  -5.009  -1.147  0.00  0.00    +0.121 C 
ATOM      3  N   UNL     1       3.860  -5.590  -0.687  0.00  0.00    -0.296 N 
ATOM      4  C   UNL     1       3.469  -6.575   0.349  0.00  0.00    +0.115 C 
ATOM      5  C   UNL     1       2.318  -5.894   1.117  0.00  0.00    -0.004 C 
ATOM      6  C   UNL     1       1.258  -6.921   1.500  0.00  0.00    -0.010 C 
ATOM      7  C   UNL     1       1.847  -7.902   2.518  0.00  0.00    -0.082 C 
ATOM      8  N   UNL     1       2.296  -7.167   3.706  0.00  0.00    +0.379 N 
ATOM      9  C   UNL     1       3.381  -6.247   3.345  0.00  0.00    -0.082 C 
ATOM     10  C   UNL     1       2.857  -5.196   2.362  0.00  0.00    -0.010 C 
ATOM     11  C   UNL     1       5.102  -5.290  -1.115  0.00  0.00    +0.247 C 
ATOM     12  O   UNL     1       5.271  -4.377  -1.900  0.00  0.00    -0.270 OA
ATOM     13  H   UNL     1       1.524  -6.641   4.086  0.00  0.00    -0.086 HD
ATOM     14  H   UNL     1       2.628  -7.820   4.399  0.00  0.00    -0.086 HD
ENDROOT
BRANCH  11  15
ATOM     15  C   UNL     1       6.259  -6.072  -0.631  0.00  0.00    +0.037 A 
ATOM     16  C   UNL     1       6.072  -7.356  -0.116  0.00  0.00    +0.014 A 
ATOM     17  C   UNL     1       7.155  -8.080   0.335  0.00  0.00    +0.016 A 
ATOM     18  C   UNL     1       8.427  -7.537   0.277  0.00  0.00    +0.018 A 
ATOM     19  C   UNL     1       8.620  -6.264  -0.233  0.00  0.00    +0.016 A 
ATOM     20  C   UNL     1       7.545  -5.532  -0.692  0.00  0.00    +0.014 A 
ATOM     21 BR   UNL     1       9.908  -8.537   0.897  0.00  0.00    -0.050 Br
ENDBRANCH  11  15
BRANCH   1  23
ATOM     22  N   UNL     1       0.865  -2.932   1.420  0.00  0.00    -0.312 N 
ATOM     23  C   UNL     1       1.869  -3.470   0.701  0.00  0.00    +0.218 C 
ATOM     24  O   UNL     1       2.884  -2.834   0.505  0.00  0.00    -0.275 OA
ATOM     25  H   UNL     1       0.054  -3.440   1.577  0.00  0.00    +0.149 HD
BRANCH  22  26
ATOM     26  C   UNL     1       0.998  -1.579   1.966  0.00  0.00    +0.148 C 
BRANCH  26  28
ATOM     27  C   UNL     1      -0.133   0.202   3.305  0.00  0.00    +0.053 C 
ATOM     28  C   UNL     1      -0.272  -1.211   2.735  0.00  0.00    +0.187 C 
BRANCH  28  29
ATOM     29  O   UNL     1      -1.395  -1.260   1.852  0.00  0.00    -0.488 OA
BRANCH  29  30
ATOM     30  C   UNL     1      -2.613  -1.485   2.413  0.00  0.00    +0.121 A 
ATOM     31  C   UNL     1      -2.742  -1.533   3.793  0.00  0.00    +0.049 A 
ATOM     32  C   UNL     1      -3.979  -1.761   4.364  0.00  0.00    +0.049 A 
ATOM     33  C   UNL     1      -5.093  -1.941   3.556  0.00  0.00    +0.120 A 
ATOM     34  C   UNL     1      -4.963  -1.891   2.176  0.00  0.00    +0.049 A 
ATOM     35  C   UNL     1      -3.727  -1.659   1.606  0.00  0.00    +0.049 A 
BRANCH  33  36
ATOM     36  O   UNL     1      -6.310  -2.167   4.117  0.00  0.00    -0.495 OA
ATOM     37  C   UNL     1      -7.413  -2.343   3.226  0.00  0.00    +0.277 C 
ENDBRANCH  33  36
ENDBRANCH  29  30
ENDBRANCH  28  29
ENDBRANCH  26  28
ENDBRANCH  22  26
ENDBRANCH   1  23
TORSDOF 7
