REMARK  Name = ZINC40876413
REMARK  8 active torsions:
REMARK  status: ('A' for Active; 'I' for Inactive)
REMARK    1  A    between atoms: C_1  and  C_2
REMARK    2  A    between atoms: C_2  and  C_3
REMARK    3  A    between atoms: C_3  and  C_4
REMARK    4  A    between atoms: C_6  and  C_9
REMARK    5  A    between atoms: C_12  and  N_16
REMARK    6  A    between atoms: C_20  and  C_23
REMARK    7  A    between atoms: C_28  and  C_31
REMARK    8  A    between atoms: C_28  and  N_34
REMARK                            x       y       z     vdW  Elec       q    Type
REMARK                         _______ _______ _______ _____ _____    ______ ____
ROOT
ATOM      1  N   UNL     1      -2.842  -7.457  -3.727  0.00  0.00    -0.327 N 
ATOM      2  C   UNL     1      -3.707  -8.198  -2.798  0.00  0.00    +0.105 C 
ATOM      3  C   UNL     1      -5.028  -8.519  -3.504  0.00  0.00    +0.020 C 
ATOM      4  C   UNL     1      -4.736  -9.256  -4.813  0.00  0.00    +0.016 C 
ATOM      5  C   UNL     1      -3.903  -8.357  -5.731  0.00  0.00    +0.092 C 
ATOM      6  C   UNL     1      -2.575  -8.031  -5.053  0.00  0.00    +0.118 C 
ENDROOT
BRANCH   5   7
ATOM      7  C   UNL     1      -3.644  -9.070  -7.033  0.00  0.00    +0.220 C 
ATOM      8  O   UNL     1      -2.596  -9.654  -7.206  0.00  0.00    -0.275 OA
ATOM      9  N   UNL     1      -4.578  -9.059  -8.005  0.00  0.00    -0.301 N 
ATOM     10  C   UNL     1      -5.806  -8.267  -7.854  0.00  0.00    +0.107 C 
ATOM     11  C   UNL     1      -7.014  -9.182  -8.080  0.00  0.00    +0.016 C 
ATOM     12  C   UNL     1      -6.877  -9.876  -9.437  0.00  0.00    +0.015 C 
ATOM     13  C   UNL     1      -5.611 -10.736  -9.446  0.00  0.00    +0.016 C 
ATOM     14  C   UNL     1      -4.385  -9.834  -9.238  0.00  0.00    +0.107 C 
BRANCH  12  15
ATOM     15  N   UNL     1      -8.049 -10.729  -9.671  0.00  0.00    +0.389 N 
ATOM     16  C   UNL     1      -9.264  -9.906  -9.646  0.00  0.00    -0.077 C 
ATOM     17  C   UNL     1     -10.495 -10.800  -9.809  0.00  0.00    -0.019 C 
ATOM     18  C   UNL     1     -10.407 -11.542 -11.146  0.00  0.00    -0.004 C 
ATOM     19  C   UNL     1      -9.100 -12.339 -11.191  0.00  0.00    -0.019 C 
ATOM     20  C   UNL     1      -7.921 -11.387 -10.977  0.00  0.00    -0.077 C 
ATOM     21  H   UNL     1      -8.105 -11.429  -8.947  0.00  0.00    -0.080 HD
ENDBRANCH  12  15
BRANCH  12  22
ATOM     22  C   UNL     1      -6.786  -8.838 -10.525  0.00  0.00    +0.200 C 
ATOM     23  O   UNL     1      -7.121  -7.694 -10.301  0.00  0.00    -0.278 OA
ATOM     24  N   UNL     1      -6.332  -9.180 -11.747  0.00  0.00    -0.330 N 
ATOM     25  H   UNL     1      -6.132 -10.108 -11.948  0.00  0.00    +0.145 HD
ATOM     26  H   UNL     1      -6.206  -8.499 -12.426  0.00  0.00    +0.145 HD
ENDBRANCH  12  22
ENDBRANCH   5   7
BRANCH   1  30
ATOM     27  C   UNL     1      -1.194  -3.790  -2.627  0.00  0.00    +0.025 A 
ATOM     28  C   UNL     1      -2.439  -3.838  -3.252  0.00  0.00    +0.013 A 
ATOM     29  C   UNL     1      -2.982  -5.052  -3.616  0.00  0.00    +0.027 A 
ATOM     30  C   UNL     1      -2.290  -6.229  -3.359  0.00  0.00    +0.065 A 
ATOM     31  C   UNL     1      -1.046  -6.185  -2.734  0.00  0.00    +0.145 A 
ATOM     32  C   UNL     1      -0.497  -4.971  -2.374  0.00  0.00    +0.052 A 
ATOM     33  F   UNL     1      -0.375  -7.331  -2.484  0.00  0.00    -0.204 F 
BRANCH  27  36
ATOM     34  C   UNL     1      -0.401  -0.342  -1.966  0.00  0.00    +0.228 A 
ATOM     35  N   UNL     1      -1.179  -1.281  -2.424  0.00  0.00    -0.191 NA
ATOM     36  C   UNL     1      -0.609  -2.485  -2.236  0.00  0.00    +0.202 A 
ATOM     37  N   UNL     1       0.550  -2.312  -1.649  0.00  0.00    -0.056 NA
ATOM     38  O   UNL     1       0.705  -0.912  -1.470  0.00  0.00    -0.338 OA
BRANCH  34  39
ATOM     39  C   UNL     1      -0.694   1.136  -1.995  0.00  0.00    +0.098 C 
BRANCH  39  41
ATOM     40  C   UNL     1      -1.721   3.037  -0.742  0.00  0.00    +0.004 C 
ATOM     41  C   UNL     1      -1.424   1.537  -0.712  0.00  0.00    +0.006 C 
ENDBRANCH  39  41
ENDBRANCH  34  39
ENDBRANCH  27  36
ENDBRANCH   1  30
TORSDOF 7
