REMARK  Name = ZINC67288959
REMARK  6 active torsions:
REMARK  status: ('A' for Active; 'I' for Inactive)
REMARK    1  A    between atoms: C_1  and  S_2
REMARK    2  A    between atoms: S_2  and  C_3
REMARK    3  A    between atoms: C_6  and  C_9
REMARK    4  A    between atoms: N_17  and  C_21
REMARK    5  A    between atoms: C_21  and  C_22
REMARK    6  A    between atoms: N_24  and  C_25
REMARK                            x       y       z     vdW  Elec       q    Type
REMARK                         _______ _______ _______ _____ _____    ______ ____
ROOT
ATOM      1  C   UNL     1       2.905  -1.396  -5.104  0.00  0.00    +0.144 C 
ATOM      2  C   UNL     1       4.359  -1.654  -4.772  0.00  0.00    +0.082 C 
ATOM      3  C   UNL     1       4.873  -2.862  -5.088  0.00  0.00    +0.065 C 
ATOM      4  C   UNL     1       6.318  -2.833  -4.647  0.00  0.00    +0.284 C 
ATOM      5  O   UNL     1       6.517  -1.531  -4.081  0.00  0.00    -0.455 OA
ATOM      6  C   UNL     1       5.352  -0.861  -4.168  0.00  0.00    +0.339 C 
ATOM      7  O   UNL     1       5.181   0.279  -3.776  0.00  0.00    -0.245 OA
ATOM      8  N   UNL     1       4.107  -3.819  -5.688  0.00  0.00    -0.247 N 
ATOM      9  C   UNL     1       2.817  -3.645  -6.004  0.00  0.00    +0.307 C 
ATOM     10  O   UNL     1       2.215  -4.556  -6.537  0.00  0.00    -0.252 OA
ATOM     11  N   UNL     1       2.166  -2.494  -5.751  0.00  0.00    -0.288 N 
ATOM     12  H   UNL     1       1.231  -2.390  -5.989  0.00  0.00    +0.151 HD
ENDROOT
BRANCH   1  16
ATOM     13  C   UNL     1       0.878  -0.399  -1.476  0.00  0.00    +0.008 A 
ATOM     14  C   UNL     1       1.340   0.608  -2.315  0.00  0.00    +0.015 A 
ATOM     15  C   UNL     1       1.995   0.282  -3.486  0.00  0.00    +0.007 A 
ATOM     16  C   UNL     1       2.191  -1.044  -3.825  0.00  0.00    -0.022 A 
ATOM     17  C   UNL     1       1.732  -2.049  -2.993  0.00  0.00    +0.007 A 
ATOM     18  C   UNL     1       1.082  -1.731  -1.817  0.00  0.00    +0.015 A 
BRANCH  13  20
ATOM     19  C   UNL     1       0.020   1.826   0.026  0.00  0.00    +0.090 C 
ATOM     20  S   UNL     1       0.043   0.012   0.020  0.00  0.00    -0.129 S 
ENDBRANCH  13  20
ENDBRANCH   1  16
BRANCH   8  21
ATOM     21  C   UNL     1       4.730  -5.107  -6.003  0.00  0.00    +0.211 C 
BRANCH  21  22
ATOM     22  C   UNL     1       4.564  -6.045  -4.835  0.00  0.00    +0.235 C 
ATOM     23  O   UNL     1       3.982  -5.674  -3.838  0.00  0.00    -0.274 OA
ATOM     24  N   UNL     1       5.061  -7.296  -4.899  0.00  0.00    -0.284 N 
ATOM     25  H   UNL     1       5.466  -7.615  -5.721  0.00  0.00    +0.155 HD
BRANCH  24  26
ATOM     26  C   UNL     1       4.992  -8.135  -3.781  0.00  0.00    +0.034 A 
ATOM     27  C   UNL     1       6.022  -9.028  -3.517  0.00  0.00    +0.025 A 
ATOM     28  C   UNL     1       5.952  -9.854  -2.413  0.00  0.00    +0.022 A 
ATOM     29  C   UNL     1       4.856  -9.793  -1.569  0.00  0.00    +0.041 A 
ATOM     30  C   UNL     1       3.828  -8.903  -1.830  0.00  0.00    +0.022 A 
ATOM     31  C   UNL     1       3.897  -8.071  -2.930  0.00  0.00    +0.025 A 
ATOM     32 CL   UNL     1       4.770 -10.833  -0.182  0.00  0.00    -0.084 Cl
ENDBRANCH  24  26
ENDBRANCH  21  22
ENDBRANCH   8  21
TORSDOF 5
