REMARK  Name = ZINC09631028
REMARK  7 active torsions:
REMARK  status: ('A' for Active; 'I' for Inactive)
REMARK    1  A    between atoms: C_4  and  N_7
REMARK    2  A    between atoms: C_9  and  C_17
REMARK    3  A    between atoms: C_10  and  C_12
REMARK    4  A    between atoms: C_18  and  C_19
REMARK    5  A    between atoms: C_18  and  C_21
REMARK    6  A    between atoms: N_23  and  C_24
REMARK    7  A    between atoms: C_29  and  N_30
REMARK                            x       y       z     vdW  Elec       q    Type
REMARK                         _______ _______ _______ _____ _____    ______ ____
ROOT
ATOM      1  C   UNL     1       5.689  -3.531   0.030  0.00  0.00    +0.036 C 
ATOM      2  C   UNL     1       4.902  -4.695  -0.019  0.00  0.00    +0.118 C 
ENDROOT
BRANCH   1   5
ATOM      3  N   UNL     1       3.879  -0.807  -1.397  0.00  0.00    -0.239 N 
ATOM      4  C   UNL     1       4.034  -2.121  -1.209  0.00  0.00    +0.123 A 
ATOM      5  C   UNL     1       5.162  -2.311  -0.411  0.00  0.00    +0.023 A 
ATOM      6  C   UNL     1       5.691  -0.954  -0.126  0.00  0.00    +0.107 A 
ATOM      7  N   UNL     1       4.891  -0.101  -0.742  0.00  0.00    -0.165 NA
BRANCH   3  11
ATOM      8  C   UNL     1       0.828   0.934  -3.632  0.00  0.00    +0.000 A 
ATOM      9  C   UNL     1       1.780   1.733  -3.023  0.00  0.00    +0.002 A 
ATOM     10  C   UNL     1       2.793   1.160  -2.281  0.00  0.00    +0.028 A 
ATOM     11  C   UNL     1       2.856  -0.223  -2.146  0.00  0.00    +0.065 A 
ATOM     12  C   UNL     1       1.898  -1.023  -2.759  0.00  0.00    +0.028 A 
ATOM     13  C   UNL     1       0.888  -0.442  -3.500  0.00  0.00    +0.002 A 
ENDBRANCH   3  11
BRANCH   6  14
ATOM     14  C   UNL     1       6.868  -0.625   0.675  0.00  0.00    +0.040 A 
ATOM     15  C   UNL     1       7.793   0.414   0.499  0.00  0.00    +0.018 A 
ATOM     16  C   UNL     1       8.802   0.470   1.418  0.00  0.00    +0.008 A 
ATOM     17  C   UNL     1       8.839  -0.470   2.422  0.00  0.00    +0.046 A 
ATOM     18  S   UNL     1       7.496  -1.438   2.132  0.00  0.00    -0.095 S 
ENDBRANCH   6  14
ENDBRANCH   1   5
BRANCH   2  19
ATOM     19  C   UNL     1       5.483  -5.952   0.252  0.00  0.00    +0.288 C 
ATOM     20  O   UNL     1       6.796  -6.037   0.559  0.00  0.00    -0.264 OA
ATOM     21  N   UNL     1       4.739  -7.052   0.205  0.00  0.00    -0.206 NA
BRANCH  21  22
ATOM     22  C   UNL     1       5.303  -8.248   0.390  0.00  0.00    +0.102 A 
ATOM     23  C   UNL     1       6.434  -8.633  -0.367  0.00  0.00    +0.079 A 
ATOM     24  C   UNL     1       7.004  -9.856  -0.168  0.00  0.00    +0.164 A 
ATOM     25  C   UNL     1       6.478 -10.743   0.789  0.00  0.00    +0.164 A 
ATOM     26  C   UNL     1       5.356 -10.390   1.550  0.00  0.00    +0.084 A 
ATOM     27  C   UNL     1       4.763  -9.178   1.383  0.00  0.00    +0.155 A 
ATOM     28  O   UNL     1       7.051 -11.954   0.993  0.00  0.00    -0.485 OA
ATOM     29  C   UNL     1       7.925 -12.435  -0.033  0.00  0.00    +0.270 C 
ATOM     30  C   UNL     1       8.876 -11.298  -0.428  0.00  0.00    +0.270 C 
ATOM     31  O   UNL     1       8.090 -10.204  -0.911  0.00  0.00    -0.485 OA
BRANCH  27  32
ATOM     32  N   UNL     1       3.581  -8.805   2.193  0.00  0.00    +0.059 N 
ATOM     33  O   UNL     1       3.101  -9.648   3.084  0.00  0.00    -0.126 OA
ATOM     34  O   UNL     1       3.009  -7.632   2.021  0.00  0.00    -0.126 OA
ENDBRANCH  27  32
ENDBRANCH  21  22
ENDBRANCH   2  19
BRANCH   2  35
ATOM     35  C   UNL     1       3.510  -4.604  -0.345  0.00  0.00    +0.105 C 
ATOM     36  N   UNL     1       2.406  -4.533  -0.603  0.00  0.00    -0.191 NA
ENDBRANCH   2  35
TORSDOF 7
