REMARK  Name = ZINC28308920
REMARK  5 active torsions:
REMARK  status: ('A' for Active; 'I' for Inactive)
REMARK    1  A    between atoms: C_6  and  N_11
REMARK    2  A    between atoms: C_12  and  C_14
REMARK    3  A    between atoms: C_14  and  N_25
REMARK    4  A    between atoms: C_15  and  C_16
REMARK    5  A    between atoms: C_26  and  C_28
REMARK                            x       y       z     vdW  Elec       q    Type
REMARK                         _______ _______ _______ _____ _____    ______ ____
ROOT
ATOM      1  C   UNL     1       2.376   9.532   0.327  0.00  0.00    +0.097 C 
ATOM      2  C   UNL     1       1.198  10.116   0.005  0.00  0.00    +0.036 C 
ENDROOT
BRANCH   2   3
ATOM      3  C   UNL     1      -0.061   9.380   0.185  0.00  0.00    -0.019 A 
ATOM      4  C   UNL     1      -0.102   7.997  -0.028  0.00  0.00    +0.012 A 
ATOM      5  C   UNL     1      -1.282   7.308   0.146  0.00  0.00    +0.050 A 
ATOM      6  C   UNL     1      -2.436   7.982   0.523  0.00  0.00    +0.166 A 
ATOM      7  C   UNL     1      -2.405   9.362   0.732  0.00  0.00    +0.167 A 
ATOM      8  C   UNL     1      -1.224  10.059   0.565  0.00  0.00    +0.057 A 
ATOM      9  O   UNL     1      -3.655   9.776   1.092  0.00  0.00    -0.453 OA
ATOM     10  C   UNL     1      -4.353   8.584   1.498  0.00  0.00    +0.466 C 
ATOM     11  O   UNL     1      -3.705   7.537   0.752  0.00  0.00    -0.453 OA
ENDBRANCH   2   3
BRANCH   1  13
ATOM     12  N   UNL     1       2.180   8.354   2.454  0.00  0.00    -0.280 N 
ATOM     13  C   UNL     1       2.391   8.299   1.124  0.00  0.00    +0.262 C 
ATOM     14  O   UNL     1       2.594   7.228   0.583  0.00  0.00    -0.268 OA
ATOM     15  H   UNL     1       1.933   9.313   2.932  0.00  0.00    +0.155 HD
BRANCH  12  21
ATOM     16  C   UNL     1       2.950   3.770   6.794  0.00  0.00    +0.001 A 
ATOM     17  C   UNL     1       3.272   4.998   7.370  0.00  0.00    +0.001 A 
ATOM     18  C   UNL     1       3.198   6.150   6.649  0.00  0.00    +0.008 A 
ATOM     19  C   UNL     1       2.781   6.106   5.307  0.00  0.00    -0.016 A 
ATOM     20  C   UNL     1       2.688   7.275   4.536  0.00  0.00    +0.031 A 
ATOM     21  C   UNL     1       2.274   7.192   3.224  0.00  0.00    +0.034 A 
ATOM     22  C   UNL     1       1.948   5.954   2.656  0.00  0.00    +0.024 A 
ATOM     23  C   UNL     1       2.030   4.809   3.382  0.00  0.00    +0.010 A 
ATOM     24  C   UNL     1       2.448   4.857   4.724  0.00  0.00    -0.018 A 
ATOM     25  C   UNL     1       2.542   3.689   5.498  0.00  0.00    +0.008 A 
ENDBRANCH  12  21
ENDBRANCH   1  13
BRANCH   1  26
ATOM     26  N   UNL     1       3.580  10.104  -0.100  0.00  0.00    -0.277 N 
ATOM     27  C   UNL     1       4.743   9.451   0.097  0.00  0.00    +0.248 C 
ATOM     28  O   UNL     1       4.737   8.320   0.542  0.00  0.00    -0.270 OA
ATOM     29  H   UNL     1       3.577  11.085  -0.597  0.00  0.00    +0.155 HD
BRANCH  27  30
ATOM     30  C   UNL     1       6.024  10.111  -0.228  0.00  0.00    +0.037 A 
ATOM     31  C   UNL     1       6.034  11.408  -0.745  0.00  0.00    +0.014 A 
ATOM     32  C   UNL     1       7.233  12.021  -1.040  0.00  0.00    +0.016 A 
ATOM     33  C   UNL     1       8.426  11.348  -0.837  0.00  0.00    +0.018 A 
ATOM     34  C   UNL     1       8.423  10.059  -0.330  0.00  0.00    +0.016 A 
ATOM     35  C   UNL     1       7.231   9.438  -0.024  0.00  0.00    +0.014 A 
ATOM     36 BR   UNL     1      10.066  12.193  -1.253  0.00  0.00    -0.050 Br
ENDBRANCH  27  30
ENDBRANCH   1  26
TORSDOF 5
