REMARK  Name = ZINC66856611
REMARK  4 active torsions:
REMARK  status: ('A' for Active; 'I' for Inactive)
REMARK    1  A    between atoms: C_3  and  C_6
REMARK    2  A    between atoms: C_8  and  C_12
REMARK    3  A    between atoms: N_14  and  C_15
REMARK    4  A    between atoms: C_18  and  C_21
REMARK                            x       y       z     vdW  Elec       q    Type
REMARK                         _______ _______ _______ _____ _____    ______ ____
ROOT
ATOM      1  C   UNL     1       6.995  -0.745   0.461  0.00  0.00    +0.268 C 
ATOM      2  O   UNL     1       6.990  -1.862   0.941  0.00  0.00    -0.268 OA
ATOM      3  N   UNL     1       8.124  -0.251  -0.084  0.00  0.00    -0.280 N 
ATOM      4  H   UNL     1       8.112   0.612  -0.526  0.00  0.00    +0.155 HD
ENDROOT
BRANCH   1   7
ATOM      5  C   UNL     1       3.685   0.757   0.796  0.00  0.00    +0.101 A 
ATOM      6  C   UNL     1       4.514  -0.312   1.008  0.00  0.00    +0.065 A 
ATOM      7  C   UNL     1       5.764   0.070   0.475  0.00  0.00    +0.148 A 
ATOM      8  N   UNL     1       5.630   1.290  -0.007  0.00  0.00    -0.169 NA
ATOM      9  N   UNL     1       4.428   1.711   0.162  0.00  0.00    -0.273 N 
ATOM     10  H   UNL     1       4.098   2.580  -0.117  0.00  0.00    +0.189 HD
BRANCH   5  13
ATOM     11  C   UNL     1       0.185   1.586   1.469  0.00  0.00    +0.042 A 
ATOM     12  C   UNL     1       1.450   1.924   0.949  0.00  0.00    +0.051 A 
ATOM     13  C   UNL     1       2.264   0.856   1.172  0.00  0.00    +0.152 A 
ATOM     14  O   UNL     1       1.543  -0.096   1.798  0.00  0.00    -0.461 OA
ATOM     15  C   UNL     1       0.286   0.343   1.978  0.00  0.00    +0.196 A 
ENDBRANCH   5  13
ENDBRANCH   1   7
BRANCH   3  16
ATOM     16  C   UNL     1       9.312  -0.983  -0.014  0.00  0.00    +0.034 A 
ATOM     17  C   UNL     1       9.279  -2.370  -0.101  0.00  0.00    +0.024 A 
ATOM     18  C   UNL     1      10.449  -3.094  -0.031  0.00  0.00    +0.013 A 
ATOM     19  C   UNL     1      11.669  -2.434   0.127  0.00  0.00    +0.019 A 
ATOM     20  C   UNL     1      11.699  -1.041   0.214  0.00  0.00    +0.013 A 
ATOM     21  C   UNL     1      10.526  -0.322   0.139  0.00  0.00    +0.024 A 
BRANCH  19  22
ATOM     22  C   UNL     1      12.926  -3.208   0.203  0.00  0.00    +0.164 A 
ATOM     23  N   UNL     1      14.087  -2.781   0.659  0.00  0.00    -0.129 NA
ATOM     24  N   UNL     1      14.962  -3.724   0.577  0.00  0.00    -0.134 NA
ATOM     25  C   UNL     1      14.417  -4.790   0.072  0.00  0.00    +0.134 A 
ATOM     26  N   UNL     1      13.107  -4.502  -0.178  0.00  0.00    -0.311 N 
ATOM     27  C   UNL     1      12.140  -5.437  -0.749  0.00  0.00    +0.125 C 
ATOM     28  C   UNL     1      12.903  -6.600  -1.395  0.00  0.00    +0.022 C 
ATOM     29  C   UNL     1      13.927  -7.158  -0.401  0.00  0.00    +0.009 C 
ATOM     30  C   UNL     1      15.052  -6.129  -0.206  0.00  0.00    +0.076 C 
ENDBRANCH  19  22
ENDBRANCH   3  16
TORSDOF 4
