REMARK  Name = ZINC66758505
REMARK  4 active torsions:
REMARK  status: ('A' for Active; 'I' for Inactive)
REMARK    1  A    between atoms: C_1  and  C_2
REMARK    2  A    between atoms: C_3  and  C_17
REMARK    3  A    between atoms: N_6  and  C_7
REMARK    4  A    between atoms: N_19  and  C_20
REMARK                            x       y       z     vdW  Elec       q    Type
REMARK                         _______ _______ _______ _____ _____    ______ ____
ROOT
ATOM      1  C   UNL     1      -0.024   1.502   0.011  0.00  0.00    +0.068 C 
ATOM      2  C   UNL     1       0.007  -0.004   0.002  0.00  0.00    +0.074 A 
ATOM      3  C   UNL     1       0.015  -0.813  -1.099  0.00  0.00    +0.170 A 
ATOM      4  N   UNL     1       0.045  -2.092  -0.688  0.00  0.00    -0.124 NA
ATOM      5  N   UNL     1       0.057  -2.132   0.599  0.00  0.00    -0.060 NA
ATOM      6  N   UNL     1       0.039  -0.816   1.082  0.00  0.00    -0.216 N 
ENDROOT
BRANCH   6   7
ATOM      7  C   UNL     1       0.049  -0.418   2.426  0.00  0.00    +0.068 A 
ATOM      8  C   UNL     1       0.722   0.750   2.797  0.00  0.00    +0.030 A 
ATOM      9  C   UNL     1       0.750   1.161   4.093  0.00  0.00    +0.030 A 
ATOM     10  C   UNL     1       0.093   0.406   5.081  0.00  0.00    +0.071 A 
ATOM     11  C   UNL     1      -0.590  -0.778   4.706  0.00  0.00    +0.002 A 
ATOM     12  C   UNL     1      -0.605  -1.174   3.359  0.00  0.00    +0.038 A 
ATOM     13  C   UNL     1      -1.246  -1.531   5.698  0.00  0.00    +0.011 A 
ATOM     14  C   UNL     1      -1.193  -1.083   6.987  0.00  0.00    +0.020 A 
ATOM     15  C   UNL     1      -0.504   0.089   7.288  0.00  0.00    +0.111 A 
ATOM     16  N   UNL     1       0.106   0.789   6.361  0.00  0.00    -0.255 NA
ENDBRANCH   6   7
BRANCH   3  17
ATOM     17  C   UNL     1      -0.006  -0.359  -2.502  0.00  0.00    +0.270 C 
ATOM     18  O   UNL     1      -0.034   0.830  -2.756  0.00  0.00    -0.268 OA
ATOM     19  N   UNL     1       0.004  -1.261  -3.503  0.00  0.00    -0.280 N 
ATOM     20  H   UNL     1       0.093  -2.206  -3.303  0.00  0.00    +0.155 HD
BRANCH  19  21
ATOM     21  C   UNL     1      -0.113  -0.835  -4.832  0.00  0.00    +0.034 A 
ATOM     22  C   UNL     1       0.469   0.370  -5.229  0.00  0.00    +0.025 A 
ATOM     23  C   UNL     1       0.366   0.803  -6.519  0.00  0.00    +0.029 A 
ATOM     24  C   UNL     1      -0.326   0.042  -7.458  0.00  0.00    +0.066 A 
ATOM     25  C   UNL     1      -0.917  -1.175  -7.069  0.00  0.00    +0.021 A 
ATOM     26  C   UNL     1      -0.800  -1.611  -5.744  0.00  0.00    +0.035 A 
ATOM     27  C   UNL     1      -1.555  -1.722  -8.262  0.00  0.00    +0.142 A 
ATOM     28  N   UNL     1      -1.345  -0.891  -9.242  0.00  0.00    -0.181 NA
ATOM     29  N   UNL     1      -0.597   0.202  -8.794  0.00  0.00    -0.277 N 
ATOM     30  H   UNL     1      -0.315   0.953  -9.339  0.00  0.00    +0.189 HD
ENDBRANCH  19  21
ENDBRANCH   3  17
TORSDOF 3
