REMARK  Name = ZINC03764216
REMARK  10 active torsions:
REMARK  status: ('A' for Active; 'I' for Inactive)
REMARK    1  A    between atoms: C_1  and  C_2
REMARK    2  A    between atoms: C_6  and  N_8
REMARK    3  A    between atoms: C_9  and  C_11
REMARK    4  A    between atoms: C_11  and  S_12
REMARK    5  A    between atoms: S_12  and  C_13
REMARK    6  A    between atoms: C_16  and  C_21
REMARK    7  A    between atoms: N_17  and  C_18
REMARK    8  A    between atoms: C_18  and  C_19
REMARK    9  A    between atoms: C_24  and  N_27
REMARK   10  A    between atoms: C_28  and  C_30
REMARK                            x       y       z     vdW  Elec       q    Type
REMARK                         _______ _______ _______ _____ _____    ______ ____
ROOT
ATOM      1  C   UNL     1      -0.047   3.598   0.208  0.00  0.00    +0.193 A 
ATOM      2  N   UNL     1       1.262   3.489   0.160  0.00  0.00    -0.122 NA
ATOM      3  N   UNL     1       1.600   2.249   0.124  0.00  0.00    -0.128 NA
ATOM      4  C   UNL     1       0.528   1.491   0.147  0.00  0.00    +0.165 A 
ATOM      5  N   UNL     1      -0.560   2.332   0.195  0.00  0.00    -0.298 N 
ENDROOT
BRANCH   4   6
ATOM      6  C   UNL     1       0.496   0.014   0.120  0.00  0.00    +0.019 A 
ATOM      7  C   UNL     1      -0.637  -0.670   0.564  0.00  0.00    +0.013 A 
ATOM      8  C   UNL     1      -0.665  -2.047   0.533  0.00  0.00    +0.024 A 
ATOM      9  C   UNL     1       0.437  -2.756   0.070  0.00  0.00    +0.034 A 
ATOM     10  C   UNL     1       1.569  -2.079  -0.368  0.00  0.00    +0.024 A 
ATOM     11  C   UNL     1       1.602  -0.701  -0.344  0.00  0.00    +0.013 A 
BRANCH   9  12
ATOM     12  N   UNL     1       0.407  -4.153   0.044  0.00  0.00    -0.281 N 
ATOM     13  C   UNL     1       1.530  -4.856   0.292  0.00  0.00    +0.249 C 
ATOM     14  O   UNL     1       2.546  -4.279   0.633  0.00  0.00    -0.270 OA
ATOM     15  H   UNL     1      -0.422  -4.617  -0.151  0.00  0.00    +0.155 HD
BRANCH  13  16
ATOM     16  C   UNL     1       1.528  -6.321   0.150  0.00  0.00    +0.047 A 
ATOM     17  C   UNL     1       0.390  -6.997  -0.229  0.00  0.00    +0.058 A 
ATOM     18  S   UNL     1       0.900  -8.653  -0.251  0.00  0.00    -0.101 S 
ATOM     19  C   UNL     1       2.586  -8.435   0.242  0.00  0.00    -0.006 A 
ATOM     20  C   UNL     1       2.724  -7.100   0.410  0.00  0.00    -0.025 A 
ATOM     21  C   UNL     1       4.054  -6.497   0.843  0.00  0.00    +0.037 C 
ATOM     22  C   UNL     1       4.918  -7.601   1.455  0.00  0.00    +0.005 C 
ATOM     23  C   UNL     1       5.007  -8.789   0.493  0.00  0.00    +0.005 C 
ATOM     24  C   UNL     1       3.638  -9.483   0.436  0.00  0.00    +0.043 C 
ENDBRANCH  13  16
ENDBRANCH   9  12
ENDBRANCH   4   6
BRANCH   1  25
ATOM     25  S   UNL     1      -0.968   5.099   0.269  0.00  0.00    -0.077 S 
BRANCH  25  26
ATOM     26  C   UNL     1       0.385   6.300   0.245  0.00  0.00    +0.173 C 
BRANCH  26  28
ATOM     27  N   UNL     1       0.647   8.759   0.284  0.00  0.00    -0.285 N 
ATOM     28  C   UNL     1      -0.181   7.696   0.292  0.00  0.00    +0.227 C 
ATOM     29  O   UNL     1      -1.382   7.862   0.337  0.00  0.00    -0.275 OA
ATOM     30  H   UNL     1       1.606   8.628   0.333  0.00  0.00    +0.155 HD
BRANCH  27  36
ATOM     31  C   UNL     1       1.092  13.570   1.195  0.00  0.00    +0.044 C 
ATOM     32  C   UNL     1       0.316  12.404   0.639  0.00  0.00    -0.049 A 
ATOM     33  C   UNL     1      -0.917  12.614   0.048  0.00  0.00    +0.003 A 
ATOM     34  C   UNL     1      -1.631  11.547  -0.464  0.00  0.00    +0.002 A 
ATOM     35  C   UNL     1      -1.113  10.268  -0.392  0.00  0.00    +0.023 A 
ATOM     36  C   UNL     1       0.122  10.054   0.205  0.00  0.00    +0.034 A 
ATOM     37  C   UNL     1       0.837  11.128   0.718  0.00  0.00    +0.026 A 
ENDBRANCH  27  36
ENDBRANCH  26  28
ENDBRANCH  25  26
ENDBRANCH   1  25
BRANCH   5  38
ATOM     38  C   UNL     1      -1.974   1.949   0.230  0.00  0.00    +0.152 C 
BRANCH  38  39
ATOM     39  C   UNL     1      -2.448   1.906   1.659  0.00  0.00    -0.013 C 
ATOM     40  C   UNL     1      -3.491   2.608   2.025  0.00  0.00    +0.005 C 
ENDBRANCH  38  39
ENDBRANCH   5  38
TORSDOF 9
