REMARK  Name = ZINC07739930
REMARK  9 active torsions:
REMARK  status: ('A' for Active; 'I' for Inactive)
REMARK    1  A    between atoms: C_1  and  O_2
REMARK    2  A    between atoms: O_2  and  C_3
REMARK    3  A    between atoms: C_6  and  C_11
REMARK    4  A    between atoms: C_7  and  O_9
REMARK    5  A    between atoms: O_9  and  C_10
REMARK    6  A    between atoms: N_16  and  C_17
REMARK    7  A    between atoms: C_17  and  C_18
REMARK    8  A    between atoms: N_20  and  C_21
REMARK    9  A    between atoms: C_22  and  C_26
REMARK                            x       y       z     vdW  Elec       q    Type
REMARK                         _______ _______ _______ _____ _____    ______ ____
ROOT
ATOM      1  C   UNL     1       2.593  -2.541   4.316  0.00  0.00    -0.033 C 
ATOM      2  C   UNL     1       1.568  -2.879   5.420  0.00  0.00    -0.012 C 
ATOM      3  C   UNL     1       2.355  -2.594   6.726  0.00  0.00    -0.020 C 
ATOM      4  C   UNL     1       3.212  -1.371   6.315  0.00  0.00    -0.077 C 
ATOM      5  N   UNL     1       3.591  -1.631   4.906  0.00  0.00    +0.390 N 
ATOM      6  H   UNL     1       3.604  -0.763   4.392  0.00  0.00    -0.080 HD
ENDROOT
BRANCH   1  10
ATOM      7  C   UNL     1       0.626  -0.618   1.042  0.00  0.00    +0.124 A 
ATOM      8  C   UNL     1       1.127   0.135   2.094  0.00  0.00    +0.046 A 
ATOM      9  C   UNL     1       1.761  -0.489   3.151  0.00  0.00    +0.009 A 
ATOM     10  C   UNL     1       1.899  -1.864   3.163  0.00  0.00    -0.019 A 
ATOM     11  C   UNL     1       1.400  -2.621   2.113  0.00  0.00    +0.125 A 
ATOM     12  C   UNL     1       0.757  -1.998   1.054  0.00  0.00    +0.091 A 
BRANCH   7  14
ATOM     13  C   UNL     1      -0.098   1.421   0.056  0.00  0.00    +0.277 C 
ATOM     14  O   UNL     1       0.002  -0.004   0.002  0.00  0.00    -0.495 OA
ENDBRANCH   7  14
BRANCH  11  15
ATOM     15  O   UNL     1       1.536  -3.974   2.125  0.00  0.00    -0.495 OA
ATOM     16  C   UNL     1       0.999  -4.689   1.011  0.00  0.00    +0.277 C 
ENDBRANCH  11  15
ENDBRANCH   1  10
BRANCH   5  17
ATOM     17  C   UNL     1       4.920  -2.254   4.856  0.00  0.00    +0.020 C 
BRANCH  17  18
ATOM     18  C   UNL     1       5.954  -1.273   5.346  0.00  0.00    +0.201 C 
ATOM     19  O   UNL     1       5.617  -0.164   5.702  0.00  0.00    -0.278 OA
ATOM     20  N   UNL     1       7.253  -1.629   5.388  0.00  0.00    -0.281 N 
ATOM     21  H   UNL     1       7.523  -2.516   5.104  0.00  0.00    +0.155 HD
BRANCH  20  22
ATOM     22  C   UNL     1       8.204  -0.727   5.839  0.00  0.00    +0.084 A 
ATOM     23  C   UNL     1       9.575  -0.914   5.946  0.00  0.00    +0.065 A 
ATOM     24  C   UNL     1      10.342   0.201   6.451  0.00  0.00    +0.022 A 
ATOM     25  C   UNL     1       9.638   1.304   6.764  0.00  0.00    +0.048 A 
ATOM     26  S   UNL     1       7.963   0.845   6.375  0.00  0.00    -0.081 S 
BRANCH  23  27
ATOM     27  C   UNL     1      10.212  -2.179   5.566  0.00  0.00    +0.244 C 
ATOM     28  O   UNL     1       9.535  -3.098   5.144  0.00  0.00    -0.270 OA
ATOM     29  N   UNL     1      11.546  -2.323   5.683  0.00  0.00    -0.325 N 
ATOM     30  H   UNL     1      12.086  -1.591   6.019  0.00  0.00    +0.145 HD
ATOM     31  H   UNL     1      11.968  -3.160   5.432  0.00  0.00    +0.145 HD
ENDBRANCH  23  27
ENDBRANCH  20  22
ENDBRANCH  17  18
ENDBRANCH   5  17
TORSDOF 7
