REMARK  Name = ZINC63531329
REMARK  12 active torsions:
REMARK  status: ('A' for Active; 'I' for Inactive)
REMARK    1  A    between atoms: C_1  and  C_2
REMARK    2  A    between atoms: C_5  and  S_8
REMARK    3  A    between atoms: S_8  and  C_9
REMARK    4  A    between atoms: C_13  and  O_33
REMARK    5  A    between atoms: C_17  and  C_19
REMARK    6  A    between atoms: N_21  and  C_22
REMARK    7  A    between atoms: C_22  and  C_23
REMARK    8  A    between atoms: C_26  and  O_29
REMARK    9  A    between atoms: O_29  and  C_30
REMARK   10  A    between atoms: C_30  and  C_31
REMARK   11  A    between atoms: C_30  and  C_32
REMARK   12  A    between atoms: O_33  and  C_34
REMARK                            x       y       z     vdW  Elec       q    Type
REMARK                         _______ _______ _______ _____ _____    ______ ____
ROOT
ATOM      1  C   UNL     1      -1.397  -5.279   1.762  0.00  0.00    +0.030 C 
ATOM      2  C   UNL     1      -1.736  -4.566   2.905  0.00  0.00    +0.010 A 
ATOM      3  C   UNL     1      -2.032  -3.201   3.122  0.00  0.00    +0.014 A 
ATOM      4  C   UNL     1      -2.337  -2.768   4.370  0.00  0.00    +0.046 A 
ATOM      5  C   UNL     1      -2.368  -3.646   5.463  0.00  0.00    +0.122 A 
ATOM      6  C   UNL     1      -2.093  -4.973   5.322  0.00  0.00    +0.071 A 
ATOM      7  C   UNL     1      -1.768  -5.493   4.048  0.00  0.00    +0.048 A 
ATOM      8  N   UNL     1      -1.466  -6.719   3.656  0.00  0.00    -0.369 N 
ATOM      9  C   UNL     1      -1.215  -6.712   2.211  0.00  0.00    +0.204 C 
ATOM     10  H   UNL     1      -1.423  -7.499   4.231  0.00  0.00    +0.161 HD
ENDROOT
BRANCH   9  11
ATOM     11  C   UNL     1      -2.201  -7.606   1.505  0.00  0.00    +0.241 C 
ATOM     12  O   UNL     1      -3.214  -7.958   2.072  0.00  0.00    -0.273 OA
ATOM     13  N   UNL     1      -1.958  -8.014   0.244  0.00  0.00    -0.309 N 
ATOM     14  H   UNL     1      -1.148  -7.733  -0.209  0.00  0.00    +0.149 HD
BRANCH  13  15
ATOM     15  C   UNL     1      -2.917  -8.884  -0.442  0.00  0.00    +0.139 C 
BRANCH  15  16
ATOM     16  C   UNL     1      -2.413  -9.192  -1.829  0.00  0.00    -0.030 A 
ATOM     17  C   UNL     1      -2.750  -8.366  -2.885  0.00  0.00    +0.009 A 
ATOM     18  C   UNL     1      -2.289  -8.646  -4.157  0.00  0.00    +0.046 A 
ATOM     19  C   UNL     1      -1.488  -9.758  -4.374  0.00  0.00    +0.121 A 
ATOM     20  C   UNL     1      -1.152 -10.585  -3.312  0.00  0.00    +0.046 A 
ATOM     21  C   UNL     1      -1.611 -10.297  -2.041  0.00  0.00    +0.009 A 
BRANCH  19  22
ATOM     22  O   UNL     1      -1.035 -10.037  -5.624  0.00  0.00    -0.489 OA
BRANCH  22  23
ATOM     23  C   UNL     1      -1.331  -9.085  -6.649  0.00  0.00    +0.167 C 
ATOM     24  C   UNL     1      -0.284  -9.190  -7.760  0.00  0.00    +0.051 C 
ATOM     25  C   UNL     1      -2.718  -9.373  -7.226  0.00  0.00    +0.051 C 
ENDBRANCH  22  23
ENDBRANCH  19  22
ENDBRANCH  15  16
ENDBRANCH  13  15
ENDBRANCH   9  11
BRANCH   5  26
ATOM     26  O   UNL     1      -2.679  -3.162   6.691  0.00  0.00    -0.495 OA
ATOM     27  C   UNL     1      -2.958  -1.763   6.786  0.00  0.00    +0.277 C 
ENDBRANCH   5  26
BRANCH   1  28
ATOM     28  S   UNL     1      -1.232  -4.683   0.222  0.00  0.00    -0.091 S 
BRANCH  28  33
ATOM     29  C   UNL     1       4.671  -5.207  -0.923  0.00  0.00    +0.044 C 
ATOM     30  C   UNL     1       3.197  -5.076  -0.637  0.00  0.00    -0.050 A 
ATOM     31  C   UNL     1       2.338  -4.641  -1.630  0.00  0.00    +0.004 A 
ATOM     32  C   UNL     1       0.987  -4.520  -1.371  0.00  0.00    +0.015 A 
ATOM     33  C   UNL     1       0.491  -4.837  -0.113  0.00  0.00    +0.013 A 
ATOM     34  C   UNL     1       1.357  -5.274   0.882  0.00  0.00    +0.015 A 
ATOM     35  C   UNL     1       2.706  -5.398   0.615  0.00  0.00    +0.004 A 
ENDBRANCH  28  33
ENDBRANCH   1  28
TORSDOF 8
