REMARK  Name = ZINC39637720
REMARK  8 active torsions:
REMARK  status: ('A' for Active; 'I' for Inactive)
REMARK    1  A    between atoms: C_1  and  O_2
REMARK    2  A    between atoms: O_2  and  C_3
REMARK    3  A    between atoms: C_6  and  C_13
REMARK    4  A    between atoms: C_8  and  C_9
REMARK    5  A    between atoms: C_17  and  C_26
REMARK    6  A    between atoms: N_28  and  C_29
REMARK    7  A    between atoms: C_29  and  C_30
REMARK    8  A    between atoms: C_30  and  C_31
REMARK                            x       y       z     vdW  Elec       q    Type
REMARK                         _______ _______ _______ _____ _____    ______ ____
ROOT
ATOM      1  C   UNL     1       2.574  -2.542   4.294  0.00  0.00    +0.247 C 
ATOM      2  O   UNL     1       2.534  -3.753   4.399  0.00  0.00    -0.270 OA
ATOM      3  N   UNL     1       3.220  -1.806   5.219  0.00  0.00    -0.296 N 
ATOM      4  C   UNL     1       3.269  -0.329   5.332  0.00  0.00    +0.121 C 
ATOM      5  C   UNL     1       3.185  -0.051   6.850  0.00  0.00    +0.100 C 
ATOM      6  C   UNL     1       3.696  -1.341   7.514  0.00  0.00    -0.004 C 
ATOM      7  C   UNL     1       4.038  -2.291   6.357  0.00  0.00    +0.115 C 
ATOM      8  C   UNL     1       2.605  -1.954   8.386  0.00  0.00    -0.010 C 
ATOM      9  C   UNL     1       3.155  -3.203   9.081  0.00  0.00    -0.082 C 
ATOM     10  N   UNL     1       4.317  -2.838   9.900  0.00  0.00    +0.379 N 
ATOM     11  C   UNL     1       5.397  -2.336   9.042  0.00  0.00    -0.082 C 
ATOM     12  C   UNL     1       4.942  -1.050   8.346  0.00  0.00    -0.010 C 
ATOM     13  H   UNL     1       4.051  -2.122  10.558  0.00  0.00    -0.086 HD
ATOM     14  H   UNL     1       4.640  -3.651  10.403  0.00  0.00    -0.086 HD
ENDROOT
BRANCH   1  18
ATOM     15  C   UNL     1       0.674  -0.635   1.010  0.00  0.00    +0.132 A 
ATOM     16  C   UNL     1       1.731  -0.008   1.659  0.00  0.00    +0.047 A 
ATOM     17  C   UNL     1       2.349  -0.623   2.724  0.00  0.00    +0.016 A 
ATOM     18  C   UNL     1       1.913  -1.879   3.152  0.00  0.00    +0.038 A 
ATOM     19  C   UNL     1       0.850  -2.506   2.498  0.00  0.00    +0.029 A 
ATOM     20  C   UNL     1       0.233  -1.882   1.436  0.00  0.00    +0.097 A 
BRANCH  20  21
ATOM     21  C   UNL     1      -0.917  -2.555   0.732  0.00  0.00    +0.421 C 
ATOM     22  F   UNL     1      -1.175  -3.790   1.337  0.00  0.00    -0.166 F 
ATOM     23  F   UNL     1      -2.055  -1.746   0.820  0.00  0.00    -0.166 F 
ATOM     24  F   UNL     1      -0.589  -2.754  -0.613  0.00  0.00    -0.166 F 
ENDBRANCH  20  21
BRANCH  15  26
ATOM     25  C   UNL     1       0.569   1.256  -0.426  0.00  0.00    +0.277 C 
ATOM     26  O   UNL     1       0.067  -0.025  -0.040  0.00  0.00    -0.495 OA
ENDBRANCH  15  26
ENDBRANCH   1  18
BRANCH   5  27
ATOM     27  C   UNL     1       1.760   0.221   7.255  0.00  0.00    +0.218 C 
ATOM     28  O   UNL     1       0.850  -0.363   6.705  0.00  0.00    -0.275 OA
ATOM     29  N   UNL     1       1.495   1.114   8.230  0.00  0.00    -0.315 N 
ATOM     30  H   UNL     1       2.222   1.581   8.671  0.00  0.00    +0.149 HD
BRANCH  29  31
ATOM     31  C   UNL     1       0.109   1.379   8.624  0.00  0.00    +0.109 C 
BRANCH  31  32
ATOM     32  C   UNL     1       0.087   2.423   9.742  0.00  0.00    +0.054 C 
BRANCH  32  33
ATOM     33  C   UNL     1      -1.338   2.696  10.147  0.00  0.00    -0.043 A 
ATOM     34  C   UNL     1      -2.059   3.690   9.512  0.00  0.00    +0.004 A 
ATOM     35  C   UNL     1      -3.367   3.941   9.883  0.00  0.00    +0.003 A 
ATOM     36  C   UNL     1      -3.955   3.199  10.889  0.00  0.00    +0.038 A 
ATOM     37  C   UNL     1      -3.234   2.203  11.526  0.00  0.00    +0.124 A 
ATOM     38  C   UNL     1      -1.926   1.948  11.149  0.00  0.00    +0.042 A 
ATOM     39  F   UNL     1      -3.808   1.477  12.510  0.00  0.00    -0.205 F 
ENDBRANCH  32  33
ENDBRANCH  31  32
ENDBRANCH  29  31
ENDBRANCH   5  27
TORSDOF 7
