REMARK  Name = ZINC61886227
REMARK  4 active torsions:
REMARK  status: ('A' for Active; 'I' for Inactive)
REMARK    1  A    between atoms: C_5  and  C_6
REMARK    2  A    between atoms: N_8  and  C_9
REMARK    3  A    between atoms: C_14  and  C_16
REMARK    4  A    between atoms: N_17  and  O_18
REMARK                            x       y       z     vdW  Elec       q    Type
REMARK                         _______ _______ _______ _____ _____    ______ ____
ROOT
ATOM      1  C   UNL     1      -2.079  -3.040   0.096  0.00  0.00    +0.084 C 
ATOM      2  C   UNL     1      -2.609  -3.160  -1.348  0.00  0.00    +0.023 C 
ATOM      3  C   UNL     1      -2.072  -4.528  -1.837  0.00  0.00    +0.003 C 
ATOM      4  C   UNL     1      -2.195  -5.415  -0.573  0.00  0.00    +0.013 C 
ATOM      5  C   UNL     1      -1.816  -4.473   0.590  0.00  0.00    +0.076 C 
ENDROOT
BRANCH   5   6
ATOM      6  C   UNL     1      -2.672  -4.769   1.795  0.00  0.00    +0.136 C 
ATOM      7  N   UNL     1      -2.209  -5.504   2.751  0.00  0.00    -0.076 NA
ATOM      8  N   UNL     1      -3.947  -4.255   1.877  0.00  0.00    -0.344 N 
ATOM      9  H   UNL     1      -4.294  -3.703   1.159  0.00  0.00    +0.144 HD
ATOM     10  H   UNL     1      -4.497  -4.445   2.652  0.00  0.00    +0.144 HD
BRANCH   7  11
ATOM     11  O   UNL     1      -0.863  -5.942   2.719  0.00  0.00    -0.408 OA
ATOM     12  H   UNL     1      -0.608  -6.487   3.476  0.00  0.00    +0.328 HD
ENDBRANCH   7  11
ENDBRANCH   5   6
BRANCH   1  15
ATOM     13  C   UNL     1      -0.876  -0.923   0.201  0.00  0.00    +0.280 C 
ATOM     14  O   UNL     1      -1.948  -0.351   0.270  0.00  0.00    -0.267 OA
ATOM     15  N   UNL     1      -0.834  -2.268   0.111  0.00  0.00    -0.305 N 
ATOM     16  H   UNL     1       0.020  -2.724   0.055  0.00  0.00    +0.149 HD
BRANCH  13  21
ATOM     17  C   UNL     1       0.470   1.208   0.303  0.00  0.00    +0.056 A 
ATOM     18  C   UNL     1       1.839   1.514   0.284  0.00  0.00    +0.058 A 
ATOM     19  C   UNL     1       2.507   0.342   0.187  0.00  0.00    +0.171 A 
ATOM     20  O   UNL     1       1.618  -0.659   0.146  0.00  0.00    -0.444 OA
ATOM     21  C   UNL     1       0.369  -0.151   0.216  0.00  0.00    +0.191 A 
ATOM     22 BR   UNL     1       4.387   0.149   0.119  0.00  0.00    -0.008 Br
ENDBRANCH  13  21
ENDBRANCH   1  15
TORSDOF 4
