REMARK  Name = ZINC67547936
REMARK  6 active torsions:
REMARK  status: ('A' for Active; 'I' for Inactive)
REMARK    1  A    between atoms: C_1  and  C_2
REMARK    2  A    between atoms: C_9  and  C_11
REMARK    3  A    between atoms: C_11  and  C_13
REMARK    4  A    between atoms: C_11  and  N_14
REMARK    5  A    between atoms: N_17  and  C_18
REMARK    6  A    between atoms: C_21  and  N_24
REMARK                            x       y       z     vdW  Elec       q    Type
REMARK                         _______ _______ _______ _____ _____    ______ ____
ROOT
ATOM      1  N   UNL     1       2.979   0.967   3.741  0.00  0.00    -0.288 N 
ATOM      2  C   UNL     1       3.381   0.777   5.014  0.00  0.00    +0.304 C 
ATOM      3  O   UNL     1       3.317  -0.329   5.513  0.00  0.00    -0.252 OA
ATOM      4  N   UNL     1       3.853   1.815   5.732  0.00  0.00    -0.269 N 
ATOM      5  H   UNL     1       3.030   1.849   3.342  0.00  0.00    +0.151 HD
ATOM      6  H   UNL     1       3.836   2.711   5.360  0.00  0.00    +0.156 HD
ENDROOT
BRANCH   4   7
ATOM      7  C   UNL     1       4.370   1.600   7.017  0.00  0.00    +0.035 A 
ATOM      8  C   UNL     1       4.206   2.565   8.002  0.00  0.00    +0.025 A 
ATOM      9  C   UNL     1       4.715   2.353   9.268  0.00  0.00    +0.025 A 
ATOM     10  C   UNL     1       5.389   1.174   9.556  0.00  0.00    +0.040 A 
ATOM     11  C   UNL     1       5.553   0.209   8.572  0.00  0.00    +0.025 A 
ATOM     12  C   UNL     1       5.039   0.419   7.308  0.00  0.00    +0.025 A 
BRANCH  10  13
ATOM     13  N   UNL     1       5.905   0.959  10.841  0.00  0.00    -0.234 N 
ATOM     14  C   UNL     1       6.646  -0.235  11.293  0.00  0.00    +0.158 C 
ATOM     15  C   UNL     1       7.270   0.250  12.623  0.00  0.00    +0.253 C 
ATOM     16  O   UNL     1       6.376   1.315  13.003  0.00  0.00    -0.448 OA
ATOM     17  C   UNL     1       5.819   1.807  11.884  0.00  0.00    +0.407 C 
ATOM     18  O   UNL     1       5.291   2.899  11.820  0.00  0.00    -0.226 OA
ENDBRANCH  10  13
ENDBRANCH   4   7
BRANCH   1  19
ATOM     19  C   UNL     1       2.466  -0.161   2.960  0.00  0.00    +0.157 C 
ATOM     20  C   UNL     1       3.635  -0.916   2.324  0.00  0.00    +0.038 C 
BRANCH  19  28
ATOM     21  C   UNL     1       0.027   1.490  -0.022  0.00  0.00    +0.028 C 
ATOM     22  C   UNL     1      -0.031  -0.037   0.051  0.00  0.00    +0.073 C 
ATOM     23  C   UNL     1      -1.480  -0.486   0.269  0.00  0.00    +0.022 C 
ATOM     24  C   UNL     1      -1.514  -2.001   0.479  0.00  0.00    +0.003 C 
ATOM     25  C   UNL     1      -0.703  -2.363   1.725  0.00  0.00    +0.019 C 
ATOM     26  C   UNL     1       0.754  -1.936   1.524  0.00  0.00    +0.108 C 
ATOM     27  N   UNL     1       0.788  -0.508   1.176  0.00  0.00    -0.297 N 
ATOM     28  C   UNL     1       1.552   0.352   1.877  0.00  0.00    +0.236 C 
ATOM     29  O   UNL     1       1.503   1.540   1.638  0.00  0.00    -0.274 OA
ENDBRANCH  19  28
ENDBRANCH   1  19
TORSDOF 4
