REMARK  Name = ZINC20876958
REMARK  10 active torsions:
REMARK  status: ('A' for Active; 'I' for Inactive)
REMARK    1  A    between atoms: C_1  and  O_2
REMARK    2  A    between atoms: O_2  and  C_3
REMARK    3  A    between atoms: C_5  and  C_24
REMARK    4  A    between atoms: C_8  and  O_9
REMARK    5  A    between atoms: O_9  and  C_10
REMARK    6  A    between atoms: C_10  and  C_11
REMARK    7  A    between atoms: C_11  and  C_13
REMARK    8  A    between atoms: C_11  and  O_22
REMARK    9  A    between atoms: C_24  and  N_25
REMARK   10  A    between atoms: N_25  and  C_26
REMARK                            x       y       z     vdW  Elec       q    Type
REMARK                         _______ _______ _______ _____ _____    ______ ____
ROOT
ATOM      1  C   UNL     1      -1.222   1.752   0.017  0.00  0.00    +0.163 A 
ATOM      2  C   UNL     1      -0.013   1.076   0.008  0.00  0.00    +0.051 A 
ATOM      3  C   UNL     1       1.175   1.783   0.000  0.00  0.00    -0.060 A 
ATOM      4  C   UNL     1       1.160   3.166   0.007  0.00  0.00    +0.021 A 
ATOM      5  C   UNL     1      -0.043   3.847   0.022  0.00  0.00    +0.063 A 
ATOM      6  C   UNL     1      -1.238   3.143   0.030  0.00  0.00    +0.176 A 
ATOM      7 BR   UNL     1      -0.059   5.738   0.032  0.00  0.00    -0.046 Br
ENDROOT
BRANCH   1   9
ATOM      8  C   UNL     1      -2.299  -0.368   0.011  0.00  0.00    +0.277 C 
ATOM      9  O   UNL     1      -2.391   1.058   0.019  0.00  0.00    -0.491 OA
ENDBRANCH   1   9
BRANCH   6  10
ATOM     10  O   UNL     1      -2.422   3.811   0.045  0.00  0.00    -0.484 OA
BRANCH  10  11
ATOM     11  C   UNL     1      -3.000   4.137  -1.221  0.00  0.00    +0.265 C 
BRANCH  11  12
ATOM     12  C   UNL     1      -4.319   4.881  -1.004  0.00  0.00    +0.182 C 
BRANCH  12  13
ATOM     13  C   UNL     1      -4.867   5.331  -2.333  0.00  0.00    -0.012 A 
ATOM     14  C   UNL     1      -5.627   4.464  -3.096  0.00  0.00    +0.010 A 
ATOM     15  C   UNL     1      -6.135   4.874  -4.314  0.00  0.00    +0.050 A 
ATOM     16  C   UNL     1      -5.875   6.153  -4.779  0.00  0.00    +0.166 A 
ATOM     17  C   UNL     1      -5.104   7.025  -4.014  0.00  0.00    +0.167 A 
ATOM     18  C   UNL     1      -4.602   6.609  -2.791  0.00  0.00    +0.055 A 
ATOM     19  O   UNL     1      -4.992   8.209  -4.682  0.00  0.00    -0.453 OA
ATOM     20  C   UNL     1      -6.038   8.193  -5.671  0.00  0.00    +0.466 C 
ATOM     21  O   UNL     1      -6.245   6.792  -5.927  0.00  0.00    -0.453 OA
ENDBRANCH  12  13
BRANCH  12  22
ATOM     22  O   UNL     1      -5.259   4.009  -0.372  0.00  0.00    -0.384 OA
ATOM     23  H   UNL     1      -6.271   4.371  -0.134  0.00  0.00    +0.210 HD
ENDBRANCH  12  22
ENDBRANCH  11  12
ENDBRANCH  10  11
ENDBRANCH   6  10
BRANCH   3  24
ATOM     24  C   UNL     1       2.489   1.046  -0.016  0.00  0.00    -0.046 C 
BRANCH  24  25
ATOM     25  N   UNL     1       2.903   0.813  -1.406  0.00  0.00    +0.384 N 
ATOM     26  H   UNL     1       2.139   0.212  -1.921  0.00  0.00    -0.085 HD
ATOM     27  H   UNL     1       3.018   1.779  -1.921  0.00  0.00    -0.085 HD
BRANCH  25  28
ATOM     28  C   UNL     1       4.183   0.095  -1.462  0.00  0.00    -0.071 C 
ATOM     29  C   UNL     1       5.335   1.096  -1.355  0.00  0.00    -0.016 C 
ATOM     30  C   UNL     1       6.668   0.348  -1.413  0.00  0.00    -0.002 C 
ATOM     31  C   UNL     1       6.771  -0.409  -2.738  0.00  0.00    -0.000 C 
ATOM     32  C   UNL     1       5.619  -1.411  -2.845  0.00  0.00    -0.002 C 
ATOM     33  C   UNL     1       4.286  -0.662  -2.787  0.00  0.00    -0.016 C 
ENDBRANCH  25  28
ENDBRANCH  24  25
ENDBRANCH   3  24
TORSDOF 9
