REMARK  Name = ZINC13592431
REMARK  8 active torsions:
REMARK  status: ('A' for Active; 'I' for Inactive)
REMARK    1  A    between atoms: C_1  and  C_2
REMARK    2  A    between atoms: C_2  and  C_3
REMARK    3  A    between atoms: N_9  and  S_10
REMARK    4  A    between atoms: S_10  and  C_13
REMARK    5  A    between atoms: C_16  and  C_19
REMARK    6  A    between atoms: C_24  and  C_27
REMARK    7  A    between atoms: C_32  and  O_36
REMARK    8  A    between atoms: O_36  and  C_37
REMARK                            x       y       z     vdW  Elec       q    Type
REMARK                         _______ _______ _______ _____ _____    ______ ____
ROOT
ATOM      1  C   UNL     1       0.736   2.294   0.108  0.00  0.00    +0.250 C 
ATOM      2  O   UNL     1       1.627   3.076   0.375  0.00  0.00    -0.270 OA
ATOM      3  N   UNL     1       1.028   1.008  -0.171  0.00  0.00    -0.261 N 
ATOM      4  C   UNL     1       2.347   0.576  -0.153  0.00  0.00    +0.165 A 
ATOM      5  N   UNL     1       2.834  -0.627  -0.389  0.00  0.00    -0.221 NA
ATOM      6  C   UNL     1       4.142  -0.865  -0.331  0.00  0.00    +0.115 A 
ATOM      7  C   UNL     1       4.994   0.159  -0.009  0.00  0.00    +0.080 A 
ATOM      8  S   UNL     1       3.834   1.502   0.203  0.00  0.00    -0.060 S 
ATOM      9  H   UNL     1       0.316   0.385  -0.385  0.00  0.00    +0.157 HD
ENDROOT
BRANCH   6  10
ATOM     10  C   UNL     1       4.669  -2.218  -0.604  0.00  0.00    +0.155 A 
ATOM     11  C   UNL     1       3.916  -3.297  -0.924  0.00  0.00    +0.060 A 
ATOM     12  C   UNL     1       4.854  -4.408  -1.108  0.00  0.00    +0.021 A 
ATOM     13  C   UNL     1       4.711  -5.756  -1.442  0.00  0.00    +0.015 A 
ATOM     14  C   UNL     1       5.817  -6.554  -1.530  0.00  0.00    +0.046 A 
ATOM     15  C   UNL     1       7.084  -6.030  -1.289  0.00  0.00    +0.124 A 
ATOM     16  C   UNL     1       7.243  -4.696  -0.956  0.00  0.00    +0.092 A 
ATOM     17  C   UNL     1       6.130  -3.871  -0.862  0.00  0.00    +0.139 A 
ATOM     18  O   UNL     1       5.971  -2.565  -0.566  0.00  0.00    -0.453 OA
BRANCH  15  19
ATOM     19  O   UNL     1       8.175  -6.836  -1.381  0.00  0.00    -0.495 OA
ATOM     20  C   UNL     1       7.944  -8.203  -1.728  0.00  0.00    +0.277 C 
ENDBRANCH  15  19
ENDBRANCH   6  10
BRANCH   1  24
ATOM     21  C   UNL     1      -3.299   3.619   0.035  0.00  0.00    +0.106 A 
ATOM     22  C   UNL     1      -2.287   4.510   0.345  0.00  0.00    +0.029 A 
ATOM     23  C   UNL     1      -0.974   4.086   0.371  0.00  0.00    +0.015 A 
ATOM     24  C   UNL     1      -0.668   2.755   0.083  0.00  0.00    +0.037 A 
ATOM     25  C   UNL     1      -1.694   1.863  -0.235  0.00  0.00    +0.015 A 
ATOM     26  C   UNL     1      -3.002   2.298  -0.252  0.00  0.00    +0.029 A 
BRANCH  21  27
ATOM     27  S   UNL     1      -4.973   4.169   0.005  0.00  0.00    +0.061 S 
ATOM     28  O   UNL     1      -5.772   3.057   0.384  0.00  0.00    -0.153 OA
ATOM     29  O   UNL     1      -5.007   5.405   0.705  0.00  0.00    -0.153 OA
BRANCH  27  35
ATOM     30  C   UNL     1      -4.958   5.788  -2.177  0.00  0.00    +0.080 C 
ATOM     31  C   UNL     1      -6.194   6.451  -2.780  0.00  0.00    +0.021 C 
ATOM     32  C   UNL     1      -6.870   5.478  -3.749  0.00  0.00    +0.003 C 
ATOM     33  C   UNL     1      -7.314   4.226  -2.991  0.00  0.00    +0.017 C 
ATOM     34  C   UNL     1      -6.085   3.535  -2.391  0.00  0.00    +0.110 C 
ATOM     35  N   UNL     1      -5.349   4.507  -1.572  0.00  0.00    -0.174 NA
BRANCH  30  37
ATOM     36  C   UNL     1      -3.804   7.965  -1.762  0.00  0.00    +0.005 C 
ATOM     37  C   UNL     1      -4.361   6.700  -1.104  0.00  0.00    +0.017 C 
ENDBRANCH  30  37
ENDBRANCH  27  35
ENDBRANCH  21  27
ENDBRANCH   1  24
TORSDOF 6
