REMARK  Name = ZINC39675425
REMARK  14 active torsions:
REMARK  status: ('A' for Active; 'I' for Inactive)
REMARK    1  A    between atoms: C_1  and  C_2
REMARK    2  A    between atoms: C_2  and  C_3
REMARK    3  A    between atoms: C_3  and  C_4
REMARK    4  A    between atoms: C_4  and  C_5
REMARK    5  A    between atoms: C_5  and  C_7
REMARK    6  A    between atoms: C_5  and  C_8
REMARK    7  A    between atoms: C_12  and  C_21
REMARK    8  A    between atoms: N_23  and  C_24
REMARK    9  A    between atoms: C_24  and  C_26
REMARK   10  A    between atoms: C_24  and  C_27
REMARK   11  A    between atoms: C_27  and  C_28
REMARK   12  A    between atoms: C_28  and  C_29
REMARK   13  A    between atoms: C_32  and  O_35
REMARK   14  A    between atoms: O_35  and  C_36
REMARK                            x       y       z     vdW  Elec       q    Type
REMARK                         _______ _______ _______ _____ _____    ______ ____
ROOT
ATOM      1  C   UNL     1      -2.969  -3.825   0.033  0.00  0.00    +0.218 C 
ATOM      2  O   UNL     1      -1.864  -4.322  -0.017  0.00  0.00    -0.275 OA
ATOM      3  N   UNL     1      -4.064  -4.608  -0.035  0.00  0.00    -0.300 N 
ATOM      4  C   UNL     1      -5.484  -4.187   0.003  0.00  0.00    +0.121 C 
ATOM      5  C   UNL     1      -6.188  -5.099  -1.027  0.00  0.00    +0.100 C 
ATOM      6  C   UNL     1      -5.289  -6.342  -1.130  0.00  0.00    -0.004 C 
ATOM      7  C   UNL     1      -4.119  -6.083  -0.170  0.00  0.00    +0.115 C 
ATOM      8  C   UNL     1      -6.059  -7.588  -0.703  0.00  0.00    -0.010 C 
ATOM      9  C   UNL     1      -5.162  -8.818  -0.870  0.00  0.00    -0.082 C 
ATOM     10  N   UNL     1      -4.743  -8.934  -2.272  0.00  0.00    +0.379 N 
ATOM     11  C   UNL     1      -3.925  -7.775  -2.647  0.00  0.00    -0.082 C 
ATOM     12  C   UNL     1      -4.769  -6.501  -2.556  0.00  0.00    -0.010 C 
ATOM     13  H   UNL     1      -4.203  -9.778  -2.391  0.00  0.00    -0.086 HD
ATOM     14  H   UNL     1      -5.559  -8.974  -2.863  0.00  0.00    -0.086 HD
ENDROOT
BRANCH   5  15
ATOM     15  C   UNL     1      -6.285  -4.406  -2.362  0.00  0.00    +0.218 C 
ATOM     16  O   UNL     1      -5.434  -3.607  -2.693  0.00  0.00    -0.275 OA
ATOM     17  N   UNL     1      -7.316  -4.674  -3.187  0.00  0.00    -0.312 N 
ATOM     18  H   UNL     1      -7.996  -5.313  -2.922  0.00  0.00    +0.149 HD
BRANCH  17  19
ATOM     19  C   UNL     1      -7.409  -4.000  -4.485  0.00  0.00    +0.070 C 
ATOM     20  C   UNL     1      -6.576  -4.762  -5.517  0.00  0.00    +0.028 C 
BRANCH  19  21
ATOM     21  C   UNL     1      -8.871  -3.963  -4.936  0.00  0.00    +0.026 C 
BRANCH  21  22
ATOM     22  C   UNL     1      -9.681  -3.096  -3.970  0.00  0.00    +0.037 C 
BRANCH  22  23
ATOM     23  C   UNL     1     -11.121  -3.060  -4.415  0.00  0.00    -0.047 A 
ATOM     24  C   UNL     1     -11.547  -2.083  -5.295  0.00  0.00    +0.007 A 
ATOM     25  C   UNL     1     -12.866  -2.047  -5.703  0.00  0.00    +0.046 A 
ATOM     26  C   UNL     1     -13.763  -2.994  -5.231  0.00  0.00    +0.120 A 
ATOM     27  C   UNL     1     -13.333  -3.974  -4.348  0.00  0.00    +0.046 A 
ATOM     28  C   UNL     1     -12.012  -4.009  -3.947  0.00  0.00    +0.007 A 
BRANCH  26  29
ATOM     29  O   UNL     1     -15.062  -2.961  -5.631  0.00  0.00    -0.495 OA
ATOM     30  C   UNL     1     -15.929  -3.967  -5.104  0.00  0.00    +0.277 C 
ENDBRANCH  26  29
ENDBRANCH  22  23
ENDBRANCH  21  22
ENDBRANCH  19  21
ENDBRANCH  17  19
ENDBRANCH   5  15
BRANCH   1  31
ATOM     31  C   UNL     1      -3.117  -2.332   0.171  0.00  0.00    +0.072 C 
ATOM     32  C   UNL     1      -3.880  -2.011   1.457  0.00  0.00    +0.017 C 
BRANCH  31  33
ATOM     33  C   UNL     1      -1.732  -1.684   0.225  0.00  0.00    +0.012 C 
BRANCH  33  34
ATOM     34  C   UNL     1      -1.881  -0.162   0.238  0.00  0.00    +0.000 C 
BRANCH  34  36
ATOM     35  C   UNL     1      -0.645   2.009   0.306  0.00  0.00    +0.004 C 
ATOM     36  C   UNL     1      -0.496   0.486   0.292  0.00  0.00    -0.003 C 
ENDBRANCH  34  36
ENDBRANCH  33  34
ENDBRANCH  31  33
ENDBRANCH   1  31
TORSDOF 10
