REMARK  Name = ZINC23707280
REMARK  6 active torsions:
REMARK  status: ('A' for Active; 'I' for Inactive)
REMARK    1  A    between atoms: C_4  and  N_11
REMARK    2  A    between atoms: C_5  and  C_7
REMARK    3  A    between atoms: C_12  and  C_14
REMARK    4  A    between atoms: C_14  and  N_15
REMARK    5  A    between atoms: C_21  and  C_23
REMARK    6  A    between atoms: C_23  and  N_24
REMARK                            x       y       z     vdW  Elec       q    Type
REMARK                         _______ _______ _______ _____ _____    ______ ____
ROOT
ATOM      1  N   UNL     1       0.419  -0.401  -0.399  0.00  0.00    +0.387 N 
ATOM      2  C   UNL     1       1.110  -0.814  -1.627  0.00  0.00    -0.059 C 
ATOM      3  C   UNL     1       1.377  -2.322  -1.577  0.00  0.00    +0.089 C 
ATOM      4  N   UNL     1       0.105  -3.013  -1.317  0.00  0.00    -0.304 N 
ATOM      5  C   UNL     1      -0.713  -2.562  -0.181  0.00  0.00    +0.089 C 
ATOM      6  C   UNL     1      -0.897  -1.044  -0.286  0.00  0.00    -0.059 C 
ATOM      7  C   UNL     1      -0.301  -4.032  -2.100  0.00  0.00    +0.233 C 
ATOM      8  O   UNL     1      -1.353  -4.591  -1.871  0.00  0.00    -0.274 OA
ATOM      9  H   UNL     1       1.028  -0.733   0.456  0.00  0.00    -0.081 HD
ENDROOT
BRANCH   1  10
ATOM     10  C   UNL     1       0.298   1.061  -0.329  0.00  0.00    +0.019 C 
BRANCH  10  12
ATOM     11  N   UNL     1       1.804   3.012  -0.119  0.00  0.00    -0.287 N 
ATOM     12  C   UNL     1       1.669   1.673  -0.200  0.00  0.00    +0.201 C 
ATOM     13  O   UNL     1       2.650   0.961  -0.170  0.00  0.00    -0.278 OA
ATOM     14  H   UNL     1       0.912   3.653  -0.066  0.00  0.00    +0.155 HD
BRANCH  11  18
ATOM     15  C   UNL     1       5.603   4.721  -0.071  0.00  0.00    +0.001 A 
ATOM     16  C   UNL     1       5.374   3.570  -0.801  0.00  0.00    +0.002 A 
ATOM     17  C   UNL     1       4.117   2.998  -0.815  0.00  0.00    +0.024 A 
ATOM     18  C   UNL     1       3.080   3.586  -0.103  0.00  0.00    +0.045 A 
ATOM     19  C   UNL     1       3.313   4.742   0.630  0.00  0.00    +0.076 A 
ATOM     20  C   UNL     1       4.574   5.307   0.643  0.00  0.00    +0.014 A 
BRANCH  19  21
ATOM     21  C   UNL     1       2.193   5.380   1.409  0.00  0.00    +0.419 C 
ATOM     22  F   UNL     1       2.669   6.524   2.060  0.00  0.00    -0.166 F 
ATOM     23  F   UNL     1       1.161   5.737   0.535  0.00  0.00    -0.166 F 
ATOM     24  F   UNL     1       1.708   4.473   2.357  0.00  0.00    -0.166 F 
ENDBRANCH  19  21
ENDBRANCH  11  18
ENDBRANCH  10  12
ENDBRANCH   1  10
BRANCH   7  25
ATOM     25  C   UNL     1       0.552  -4.479  -3.259  0.00  0.00    +0.201 C 
BRANCH  25  26
ATOM     26  N   UNL     1      -0.105  -5.596  -3.949  0.00  0.00    -0.319 N 
ATOM     27  C   UNL     1      -0.111  -6.792  -3.118  0.00  0.00    +0.116 C 
ATOM     28  C   UNL     1      -0.534  -7.999  -3.972  0.00  0.00    +0.093 C 
ATOM     29  S   UNL     1      -2.301  -7.774  -4.348  0.00  0.00    -0.122 S 
ATOM     30  C   UNL     1      -2.394  -6.054  -4.740  0.00  0.00    +0.029 A 
ATOM     31  C   UNL     1      -1.325  -5.201  -4.488  0.00  0.00    +0.044 A 
ATOM     32  C   UNL     1      -1.466  -3.845  -4.794  0.00  0.00    +0.024 A 
ATOM     33  C   UNL     1      -2.635  -3.364  -5.346  0.00  0.00    +0.002 A 
ATOM     34  C   UNL     1      -3.687  -4.222  -5.606  0.00  0.00    +0.001 A 
ATOM     35  C   UNL     1      -3.566  -5.564  -5.303  0.00  0.00    +0.016 A 
ENDBRANCH  25  26
ENDBRANCH   7  25
TORSDOF 6
