REMARK  Name = ZINC51089847
REMARK  4 active torsions:
REMARK  status: ('A' for Active; 'I' for Inactive)
REMARK    1  A    between atoms: C_5  and  N_7
REMARK    2  A    between atoms: C_8  and  C_10
REMARK    3  A    between atoms: C_15  and  N_16
REMARK    4  A    between atoms: N_16  and  N_17
REMARK                            x       y       z     vdW  Elec       q    Type
REMARK                         _______ _______ _______ _____ _____    ______ ____
ROOT
ATOM      1  N   UNL     1       1.242  -2.074  -0.028  0.00  0.00    -0.281 N 
ATOM      2  C   UNL     1       0.189  -2.760  -0.513  0.00  0.00    +0.252 C 
ATOM      3  O   UNL     1      -0.739  -2.166  -1.028  0.00  0.00    -0.270 OA
ATOM      4  H   UNL     1       2.018  -2.549   0.309  0.00  0.00    +0.155 HD
ENDROOT
BRANCH   1   9
ATOM      5  C   UNL     1      -0.019   1.373   0.032  0.00  0.00    +0.002 A 
ATOM      6  C   UNL     1       1.166   2.079   0.020  0.00  0.00    +0.004 A 
ATOM      7  C   UNL     1       2.387   1.415  -0.007  0.00  0.00    -0.042 A 
ATOM      8  C   UNL     1       2.415   0.040  -0.018  0.00  0.00    -0.023 A 
ATOM      9  C   UNL     1       1.218  -0.675  -0.010  0.00  0.00    +0.037 A 
ATOM     10  C   UNL     1       0.003  -0.008   0.015  0.00  0.00    +0.023 A 
ATOM     11  C   UNL     1       3.701  -0.745  -0.031  0.00  0.00    +0.037 C 
ATOM     12  C   UNL     1       4.867   0.141  -0.467  0.00  0.00    +0.005 C 
ATOM     13  C   UNL     1       4.850   1.416   0.384  0.00  0.00    +0.005 C 
ATOM     14  C   UNL     1       3.639   2.252  -0.026  0.00  0.00    +0.035 C 
ENDBRANCH   1   9
BRANCH   2  15
ATOM     15  C   UNL     1       0.162  -4.231  -0.420  0.00  0.00    +0.078 A 
ATOM     16  C   UNL     1       1.170  -4.921   0.264  0.00  0.00    +0.018 A 
ATOM     17  C   UNL     1       1.098  -6.301   0.323  0.00  0.00    +0.021 A 
ATOM     18  C   UNL     1       0.044  -6.955  -0.289  0.00  0.00    +0.113 A 
ATOM     19  N   UNL     1      -0.895  -6.288  -0.930  0.00  0.00    -0.239 NA
ATOM     20  C   UNL     1      -0.879  -4.966  -1.012  0.00  0.00    +0.144 A 
BRANCH  20  21
ATOM     21  N   UNL     1      -1.888  -4.307  -1.689  0.00  0.00    -0.267 N 
ATOM     22  H   UNL     1      -1.918  -3.337  -1.691  0.00  0.00    +0.167 HD
BRANCH  21  23
ATOM     23  N   UNL     1      -2.844  -5.021  -2.354  0.00  0.00    -0.255 NA
ATOM     24  H   UNL     1      -3.511  -4.407  -2.797  0.00  0.00    +0.140 HD
ATOM     25  H   UNL     1      -2.426  -5.646  -3.026  0.00  0.00    +0.140 HD
ENDBRANCH  21  23
ENDBRANCH  20  21
ENDBRANCH   2  15
TORSDOF 4
