REMARK  Name = ZINC66683231
REMARK  7 active torsions:
REMARK  status: ('A' for Active; 'I' for Inactive)
REMARK    1  A    between atoms: C_1  and  C_2
REMARK    2  A    between atoms: C_4  and  N_14
REMARK    3  A    between atoms: C_7  and  C_8
REMARK    4  A    between atoms: N_10  and  C_11
REMARK    5  A    between atoms: C_11  and  C_12
REMARK    6  A    between atoms: C_11  and  C_13
REMARK    7  A    between atoms: C_21  and  C_25
REMARK                            x       y       z     vdW  Elec       q    Type
REMARK                         _______ _______ _______ _____ _____    ______ ____
ROOT
ATOM      1  N   UNL     1      -0.208  -2.645  -2.461  0.00  0.00    -0.269 N 
ATOM      2  C   UNL     1      -0.185  -3.976  -2.672  0.00  0.00    +0.306 C 
ATOM      3  O   UNL     1       0.018  -4.735  -1.745  0.00  0.00    -0.252 OA
ATOM      4  N   UNL     1      -0.388  -4.465  -3.912  0.00  0.00    -0.285 N 
ATOM      5  C   UNL     1      -0.496  -3.517  -5.038  0.00  0.00    +0.109 C 
ATOM      6  C   UNL     1       0.269  -4.003  -6.282  0.00  0.00    +0.020 C 
ATOM      7  C   UNL     1       1.586  -4.616  -5.874  0.00  0.00    +0.010 C 
ATOM      8  C   UNL     1       1.404  -6.117  -5.669  0.00  0.00    +0.021 C 
ATOM      9  C   UNL     1       0.919  -6.491  -4.331  0.00  0.00    +0.027 C 
ATOM     10  C   UNL     1      -0.484  -5.897  -4.084  0.00  0.00    +0.110 C 
ATOM     11  H   UNL     1      -0.302  -2.036  -3.211  0.00  0.00    +0.156 HD
ENDROOT
BRANCH   1  15
ATOM     12  C   UNL     1      -1.418   0.768   0.855  0.00  0.00    +0.044 C 
ATOM     13  C   UNL     1      -0.676  -0.486   0.470  0.00  0.00    -0.037 A 
ATOM     14  C   UNL     1      -0.783  -0.985  -0.809  0.00  0.00    +0.027 A 
ATOM     15  C   UNL     1      -0.098  -2.142  -1.165  0.00  0.00    +0.035 A 
ATOM     16  C   UNL     1       0.696  -2.800  -0.231  0.00  0.00    +0.024 A 
ATOM     17  C   UNL     1       0.807  -2.308   1.050  0.00  0.00    +0.015 A 
ATOM     18  C   UNL     1       0.125  -1.142   1.409  0.00  0.00    +0.040 A 
BRANCH  18  19
ATOM     19  C   UNL     1       0.246  -0.607   2.780  0.00  0.00    +0.245 C 
ATOM     20  O   UNL     1      -0.343   0.411   3.089  0.00  0.00    -0.270 OA
ATOM     21  N   UNL     1       1.008  -1.248   3.688  0.00  0.00    -0.309 N 
ATOM     22  H   UNL     1       1.478  -2.060   3.441  0.00  0.00    +0.149 HD
BRANCH  21  23
ATOM     23  C   UNL     1       1.128  -0.717   5.048  0.00  0.00    +0.067 C 
ATOM     24  C   UNL     1      -0.043  -1.217   5.896  0.00  0.00    +0.027 C 
ATOM     25  C   UNL     1       2.445  -1.192   5.667  0.00  0.00    +0.027 C 
ENDBRANCH  21  23
ENDBRANCH  18  19
ENDBRANCH   1  15
BRANCH   8  26
ATOM     26  C   UNL     1       2.729  -6.796  -5.902  0.00  0.00    -0.044 A 
ATOM     27  C   UNL     1       3.819  -6.472  -5.117  0.00  0.00    +0.004 A 
ATOM     28  C   UNL     1       5.034  -7.095  -5.330  0.00  0.00    +0.000 A 
ATOM     29  C   UNL     1       5.159  -8.042  -6.330  0.00  0.00    +0.000 A 
ATOM     30  C   UNL     1       4.069  -8.367  -7.114  0.00  0.00    +0.000 A 
ATOM     31  C   UNL     1       2.852  -7.747  -6.898  0.00  0.00    +0.004 A 
ENDBRANCH   8  26
TORSDOF 4
