REMARK  Name = ZINC08905665
REMARK  7 active torsions:
REMARK  status: ('A' for Active; 'I' for Inactive)
REMARK    1  A    between atoms: C_1  and  C_2
REMARK    2  A    between atoms: C_6  and  N_8
REMARK    3  A    between atoms: C_10  and  C_15
REMARK    4  A    between atoms: C_21  and  S_23
REMARK    5  A    between atoms: S_23  and  C_24
REMARK    6  A    between atoms: C_24  and  C_25
REMARK    7  A    between atoms: N_27  and  C_28
REMARK                            x       y       z     vdW  Elec       q    Type
REMARK                         _______ _______ _______ _____ _____    ______ ____
ROOT
ATOM      1  C   UNL     1      13.014  -3.031   7.089  0.00  0.00    +0.224 C 
ATOM      2  O   UNL     1      12.876  -1.935   6.587  0.00  0.00    -0.275 OA
ATOM      3  N   UNL     1      12.043  -3.957   6.965  0.00  0.00    -0.263 N 
ATOM      4  C   UNL     1      10.880  -3.656   6.259  0.00  0.00    +0.189 A 
ATOM      5  N   UNL     1      10.525  -2.542   5.640  0.00  0.00    -0.125 NA
ATOM      6  N   UNL     1       9.423  -2.434   5.036  0.00  0.00    -0.133 NA
ATOM      7  C   UNL     1       8.548  -3.428   4.993  0.00  0.00    +0.160 A 
ATOM      8  S   UNL     1       9.439  -4.666   5.932  0.00  0.00    -0.024 S 
ATOM      9  H   UNL     1      12.153  -4.832   7.366  0.00  0.00    +0.157 HD
ENDROOT
BRANCH   1  12
ATOM     10  N   UNL     1      16.600  -2.798   7.718  0.00  0.00    -0.271 N 
ATOM     11  C   UNL     1      15.271  -2.179   7.799  0.00  0.00    +0.127 C 
ATOM     12  C   UNL     1      14.272  -3.356   7.852  0.00  0.00    +0.102 C 
ATOM     13  C   UNL     1      15.070  -4.480   7.151  0.00  0.00    +0.110 C 
ATOM     14  C   UNL     1      16.517  -4.088   7.351  0.00  0.00    +0.221 C 
ATOM     15  O   UNL     1      17.465  -4.831   7.203  0.00  0.00    -0.275 OA
BRANCH  10  21
ATOM     16  C   UNL     1      18.939   1.239   9.270  0.00  0.00    +0.044 C 
ATOM     17  C   UNL     1      18.962  -0.173   8.743  0.00  0.00    -0.049 A 
ATOM     18  C   UNL     1      20.171  -0.809   8.525  0.00  0.00    +0.003 A 
ATOM     19  C   UNL     1      20.197  -2.103   8.041  0.00  0.00    +0.002 A 
ATOM     20  C   UNL     1      19.014  -2.768   7.778  0.00  0.00    +0.023 A 
ATOM     21  C   UNL     1      17.799  -2.130   7.989  0.00  0.00    +0.037 A 
ATOM     22  C   UNL     1      17.777  -0.829   8.476  0.00  0.00    +0.027 A 
ENDBRANCH  10  21
ENDBRANCH   1  12
BRANCH   7  23
ATOM     23  S   UNL     1       6.964  -3.511   4.225  0.00  0.00    -0.088 S 
BRANCH  23  24
ATOM     24  C   UNL     1       6.755  -1.873   3.473  0.00  0.00    +0.172 C 
BRANCH  24  25
ATOM     25  C   UNL     1       5.422  -1.808   2.774  0.00  0.00    +0.227 C 
ATOM     26  O   UNL     1       4.685  -2.772   2.782  0.00  0.00    -0.275 OA
ATOM     27  N   UNL     1       5.048  -0.680   2.139  0.00  0.00    -0.285 N 
ATOM     28  H   UNL     1       5.667   0.064   2.067  0.00  0.00    +0.155 HD
BRANCH  27  29
ATOM     29  C   UNL     1       3.766  -0.580   1.585  0.00  0.00    +0.037 A 
ATOM     30  C   UNL     1       3.566   0.156   0.425  0.00  0.00    +0.027 A 
ATOM     31  C   UNL     1       2.302   0.256  -0.124  0.00  0.00    +0.051 A 
ATOM     32  C   UNL     1       1.230  -0.379   0.482  0.00  0.00    +0.166 A 
ATOM     33  C   UNL     1       1.426  -1.119   1.646  0.00  0.00    +0.168 A 
ATOM     34  C   UNL     1       2.694  -1.217   2.195  0.00  0.00    +0.072 A 
ATOM     35  O   UNL     1       0.228  -1.639   2.041  0.00  0.00    -0.453 OA
ATOM     36  C   UNL     1      -0.629  -1.551   0.886  0.00  0.00    +0.466 C 
ATOM     37  O   UNL     1      -0.094  -0.437   0.147  0.00  0.00    -0.453 OA
ENDBRANCH  27  29
ENDBRANCH  24  25
ENDBRANCH  23  24
ENDBRANCH   7  23
TORSDOF 6
