REMARK  Name = ZINC40826138
REMARK  10 active torsions:
REMARK  status: ('A' for Active; 'I' for Inactive)
REMARK    1  A    between atoms: C_1  and  C_2
REMARK    2  A    between atoms: C_2  and  O_3
REMARK    3  A    between atoms: O_3  and  C_4
REMARK    4  A    between atoms: C_4  and  C_6
REMARK    5  A    between atoms: C_9  and  N_12
REMARK    6  A    between atoms: C_13  and  C_15
REMARK    7  A    between atoms: C_16  and  C_36
REMARK    8  A    between atoms: N_24  and  N_25
REMARK    9  A    between atoms: N_25  and  S_26
REMARK   10  A    between atoms: S_26  and  C_29
REMARK                            x       y       z     vdW  Elec       q    Type
REMARK                         _______ _______ _______ _____ _____    ______ ____
ROOT
ATOM      1  C   UNL     1      -8.186  -5.968  -0.159  0.00  0.00    +0.193 A 
ATOM      2  C   UNL     1      -8.484  -7.298  -0.261  0.00  0.00    +0.009 A 
ATOM      3  C   UNL     1      -9.880  -7.382  -0.332  0.00  0.00    +0.042 A 
ATOM      4  C   UNL     1     -10.374  -6.101  -0.272  0.00  0.00    +0.115 A 
ATOM      5  O   UNL     1      -9.342  -5.267  -0.161  0.00  0.00    -0.454 OA
ATOM      6  C   UNL     1     -11.848  -5.787  -0.325  0.00  0.00    +0.075 C 
ATOM      7  C   UNL     1     -12.597  -6.966  -0.953  0.00  0.00    +0.014 C 
ATOM      8  C   UNL     1     -12.250  -8.273  -0.231  0.00  0.00    +0.058 C 
ATOM      9  C   UNL     1     -10.771  -8.559  -0.448  0.00  0.00    +0.071 C 
ATOM     10  N   UNL     1     -10.325  -9.747  -0.715  0.00  0.00    -0.170 NA
ATOM     11  C   UNL     1      -7.507  -8.445  -0.292  0.00  0.00    +0.048 C 
ENDROOT
BRANCH   1  13
ATOM     12  N   UNL     1      -6.678  -4.063   0.043  0.00  0.00    -0.279 N 
ATOM     13  C   UNL     1      -6.838  -5.397  -0.058  0.00  0.00    +0.284 C 
ATOM     14  O   UNL     1      -5.866  -6.128  -0.067  0.00  0.00    -0.266 OA
ATOM     15  H   UNL     1      -7.453  -3.486   0.127  0.00  0.00    +0.155 HD
BRANCH  12  19
ATOM     16  C   UNL     1      -2.853  -2.417  -0.002  0.00  0.00    +0.059 A 
ATOM     17  C   UNL     1      -3.132  -3.562  -0.755  0.00  0.00    +0.017 A 
ATOM     18  C   UNL     1      -4.397  -4.103  -0.738  0.00  0.00    +0.024 A 
ATOM     19  C   UNL     1      -5.398  -3.512   0.028  0.00  0.00    +0.034 A 
ATOM     20  C   UNL     1      -5.123  -2.373   0.779  0.00  0.00    +0.024 A 
ATOM     21  C   UNL     1      -3.859  -1.830   0.771  0.00  0.00    +0.017 A 
BRANCH  16  22
ATOM     22  C   UNL     1      -1.498  -1.835  -0.018  0.00  0.00    +0.339 C 
ATOM     23  O   UNL     1      -1.255  -0.843   0.641  0.00  0.00    -0.245 OA
BRANCH  22  24
ATOM     24  O   UNL     1      -0.529  -2.402  -0.763  0.00  0.00    -0.461 OA
BRANCH  24  26
ATOM     25  C   UNL     1       1.720  -2.563  -1.632  0.00  0.00    +0.048 C 
ATOM     26  C   UNL     1       0.759  -1.785  -0.732  0.00  0.00    +0.229 C 
ENDBRANCH  24  26
ENDBRANCH  22  24
ENDBRANCH  16  22
ENDBRANCH  12  19
ENDBRANCH   1  13
BRANCH  10  27
ATOM     27  N   UNL     1     -11.215 -10.824  -0.813  0.00  0.00    -0.136 N 
ATOM     28  H   UNL     1     -12.165 -10.682  -0.681  0.00  0.00    +0.197 HD
BRANCH  27  29
ATOM     29  S   UNL     1     -10.644 -12.341  -1.155  0.00  0.00    +0.086 S 
ATOM     30  O   UNL     1     -11.751 -13.225  -1.044  0.00  0.00    -0.149 OA
ATOM     31  O   UNL     1      -9.875 -12.227  -2.344  0.00  0.00    -0.149 OA
BRANCH  29  32
ATOM     32  C   UNL     1      -9.521 -12.777   0.132  0.00  0.00    +0.110 A 
ATOM     33  C   UNL     1      -8.180 -12.463   0.013  0.00  0.00    +0.031 A 
ATOM     34  C   UNL     1      -7.299 -12.803   1.021  0.00  0.00    +0.040 A 
ATOM     35  C   UNL     1      -7.759 -13.460   2.150  0.00  0.00    +0.124 A 
ATOM     36  C   UNL     1      -9.102 -13.774   2.268  0.00  0.00    +0.040 A 
ATOM     37  C   UNL     1      -9.983 -13.427   1.260  0.00  0.00    +0.031 A 
ATOM     38  F   UNL     1      -6.898 -13.794   3.136  0.00  0.00    -0.205 F 
ENDBRANCH  29  32
ENDBRANCH  27  29
ENDBRANCH  10  27
TORSDOF 8
