REMARK  Name = ZINC35692948
REMARK  11 active torsions:
REMARK  status: ('A' for Active; 'I' for Inactive)
REMARK    1  A    between atoms: C_1  and  C_2
REMARK    2  A    between atoms: C_2  and  O_3
REMARK    3  A    between atoms: O_3  and  C_4
REMARK    4  A    between atoms: C_4  and  C_6
REMARK    5  A    between atoms: C_7  and  C_34
REMARK    6  A    between atoms: C_11  and  C_13
REMARK    7  A    between atoms: C_18  and  C_19
REMARK    8  A    between atoms: C_20  and  C_23
REMARK    9  A    between atoms: C_24  and  N_26
REMARK   10  A    between atoms: N_26  and  C_27
REMARK   11  A    between atoms: C_27  and  C_28
REMARK                            x       y       z     vdW  Elec       q    Type
REMARK                         _______ _______ _______ _____ _____    ______ ____
ROOT
ATOM      1  C   UNL     1      -2.764  -2.030  -0.033  0.00  0.00    +0.087 C 
ATOM      2  C   UNL     1      -2.943  -3.413  -0.052  0.00  0.00    +0.086 C 
ATOM      3  N   UNL     1      -4.170  -3.929  -0.013  0.00  0.00    -0.224 NA
ATOM      4  C   UNL     1      -5.278  -3.222   0.045  0.00  0.00    +0.166 C 
ATOM      5  N   UNL     1      -5.315  -1.856   0.073  0.00  0.00    -0.267 N 
ATOM      6  C   UNL     1      -4.000  -1.162   0.040  0.00  0.00    +0.150 C 
ATOM      7  C   UNL     1      -6.562  -1.264   0.135  0.00  0.00    +0.048 C 
ATOM      8  C   UNL     1      -7.641  -2.077   0.163  0.00  0.00    +0.072 C 
ATOM      9  S   UNL     1      -6.889  -3.691   0.101  0.00  0.00    -0.060 S 
ENDROOT
BRANCH   6  10
ATOM     10  C   UNL     1      -3.892  -0.304   1.274  0.00  0.00    -0.019 A 
ATOM     11  C   UNL     1      -4.411  -0.751   2.475  0.00  0.00    +0.006 A 
ATOM     12  C   UNL     1      -4.311   0.036   3.606  0.00  0.00    +0.000 A 
ATOM     13  C   UNL     1      -3.693   1.271   3.537  0.00  0.00    +0.000 A 
ATOM     14  C   UNL     1      -3.173   1.717   2.337  0.00  0.00    +0.004 A 
ATOM     15  C   UNL     1      -3.269   0.928   1.206  0.00  0.00    -0.045 A 
ATOM     16  C   UNL     1      -2.697   1.413  -0.102  0.00  0.00    +0.044 C 
ENDBRANCH   6  10
BRANCH   2  17
ATOM     17  C   UNL     1      -1.767  -4.310  -0.117  0.00  0.00    +0.001 A 
ATOM     18  C   UNL     1      -0.692  -4.120   0.753  0.00  0.00    +0.010 A 
ATOM     19  C   UNL     1       0.401  -4.959   0.688  0.00  0.00    +0.001 A 
ATOM     20  C   UNL     1       0.433  -5.987  -0.238  0.00  0.00    +0.000 A 
ATOM     21  C   UNL     1      -0.629  -6.180  -1.103  0.00  0.00    +0.001 A 
ATOM     22  C   UNL     1      -1.731  -5.352  -1.043  0.00  0.00    +0.010 A 
ENDBRANCH   2  17
BRANCH   7  23
ATOM     23  C   UNL     1      -6.710   0.198   0.170  0.00  0.00    +0.091 C 
ATOM     24  C   UNL     1      -7.922   0.748   0.377  0.00  0.00    +0.239 C 
ATOM     25  O   UNL     1      -8.980  -0.041   0.686  0.00  0.00    -0.271 OA
BRANCH  24  26
ATOM     26  N   UNL     1      -8.087   2.118   0.273  0.00  0.00    -0.309 N 
ATOM     27  H   UNL     1      -7.349   2.675  -0.021  0.00  0.00    +0.149 HD
BRANCH  26  28
ATOM     28  C   UNL     1      -9.377   2.728   0.605  0.00  0.00    +0.136 C 
BRANCH  28  29
ATOM     29  C   UNL     1      -9.330   4.224   0.290  0.00  0.00    +0.135 C 
ATOM     30  C   UNL     1     -10.675   4.896   0.667  0.00  0.00    +0.035 C 
ATOM     31  C   UNL     1     -10.219   6.362   0.894  0.00  0.00    +0.031 C 
ATOM     32  C   UNL     1      -8.804   6.178   1.484  0.00  0.00    +0.160 C 
ATOM     33  O   UNL     1      -8.342   4.875   1.105  0.00  0.00    -0.375 OA
ENDBRANCH  28  29
ENDBRANCH  26  28
ENDBRANCH  24  26
ENDBRANCH   7  23
BRANCH   1  34
ATOM     34  C   UNL     1      -1.487  -1.467  -0.074  0.00  0.00    +0.339 C 
ATOM     35  O   UNL     1      -0.993  -1.003   0.940  0.00  0.00    -0.245 OA
BRANCH  34  36
ATOM     36  O   UNL     1      -0.799  -1.435  -1.237  0.00  0.00    -0.462 OA
BRANCH  36  38
ATOM     37  C   UNL     1       1.115  -0.872  -2.602  0.00  0.00    +0.048 C 
ATOM     38  C   UNL     1       0.543  -0.946  -1.184  0.00  0.00    +0.229 C 
ENDBRANCH  36  38
ENDBRANCH  34  36
ENDBRANCH   1  34
TORSDOF 9
