REMARK  Name = ZINC16612542
REMARK  12 active torsions:
REMARK  status: ('A' for Active; 'I' for Inactive)
REMARK    1  A    between atoms: C_1  and  C_2
REMARK    2  A    between atoms: C_2  and  N_3
REMARK    3  A    between atoms: C_4  and  C_36
REMARK    4  A    between atoms: C_5  and  C_29
REMARK    5  A    between atoms: C_6  and  C_11
REMARK    6  A    between atoms: C_14  and  N_17
REMARK    7  A    between atoms: N_20  and  C_21
REMARK    8  A    between atoms: C_29  and  O_31
REMARK    9  A    between atoms: O_31  and  C_32
REMARK   10  A    between atoms: C_32  and  C_33
REMARK   11  A    between atoms: C_33  and  C_34
REMARK   12  A    between atoms: C_33  and  C_35
REMARK                            x       y       z     vdW  Elec       q    Type
REMARK                         _______ _______ _______ _____ _____    ______ ____
ROOT
ATOM      1  C   UNL     1      -0.578   1.954  -1.191  0.00  0.00    -0.022 A 
ATOM      2  C   UNL     1      -0.468   3.332  -1.221  0.00  0.00    +0.007 A 
ATOM      3  C   UNL     1      -1.046   4.050  -2.249  0.00  0.00    +0.024 A 
ATOM      4  C   UNL     1      -1.749   3.388  -3.247  0.00  0.00    +0.035 A 
ATOM      5  C   UNL     1      -1.862   2.004  -3.211  0.00  0.00    +0.024 A 
ATOM      6  C   UNL     1      -1.276   1.291  -2.183  0.00  0.00    +0.007 A 
ENDROOT
BRANCH   1  10
ATOM      7  N   UNL     1       0.829   2.181   2.387  0.00  0.00    -0.286 N 
ATOM      8  C   UNL     1      -0.441   1.695   2.275  0.00  0.00    +0.021 C 
ATOM      9  C   UNL     1      -0.892   1.186   1.108  0.00  0.00    +0.078 C 
ATOM     10  C   UNL     1       0.060   1.173  -0.071  0.00  0.00    +0.141 C 
ATOM     11  N   UNL     1       1.408   1.721   0.155  0.00  0.00    -0.315 N 
ATOM     12  C   UNL     1       1.711   2.195   1.380  0.00  0.00    +0.138 C 
ATOM     13  S   UNL     1       3.274   2.835   1.656  0.00  0.00    -0.018 S 
ATOM     14  C   UNL     1      -1.355   1.727   3.473  0.00  0.00    +0.061 C 
ATOM     15  H   UNL     1       2.062   1.740  -0.561  0.00  0.00    +0.149 HD
BRANCH   7  17
ATOM     16  C   UNL     1       1.735   1.575   4.576  0.00  0.00    +0.025 C 
ATOM     17  C   UNL     1       1.252   2.719   3.683  0.00  0.00    +0.109 C 
ENDBRANCH   7  17
BRANCH   9  18
ATOM     18  C   UNL     1      -2.208   0.681   0.991  0.00  0.00    +0.339 C 
ATOM     19  O   UNL     1      -2.956   0.702   1.951  0.00  0.00    -0.245 OA
BRANCH  18  20
ATOM     20  O   UNL     1      -2.635   0.177  -0.186  0.00  0.00    -0.461 OA
BRANCH  20  21
ATOM     21  C   UNL     1      -3.976  -0.315  -0.233  0.00  0.00    +0.235 C 
BRANCH  21  22
ATOM     22  C   UNL     1      -4.277  -0.842  -1.637  0.00  0.00    +0.020 C 
ATOM     23  C   UNL     1      -3.390  -2.055  -1.928  0.00  0.00    +0.010 C 
ATOM     24  C   UNL     1      -5.748  -1.254  -1.723  0.00  0.00    +0.010 C 
ENDBRANCH  21  22
ENDBRANCH  20  21
ENDBRANCH  18  20
ENDBRANCH   9  18
ENDBRANCH   1  10
BRANCH   4  25
ATOM     25  N   UNL     1      -2.342   4.113  -4.286  0.00  0.00    -0.269 N 
ATOM     26  C   UNL     1      -1.739   5.219  -4.765  0.00  0.00    +0.308 C 
ATOM     27  O   UNL     1      -0.723   5.633  -4.242  0.00  0.00    -0.252 OA
ATOM     28  N   UNL     1      -2.263   5.867  -5.825  0.00  0.00    -0.269 N 
ATOM     29  H   UNL     1      -3.187   3.819  -4.662  0.00  0.00    +0.156 HD
ATOM     30  H   UNL     1      -3.116   5.585  -6.192  0.00  0.00    +0.156 HD
BRANCH  28  31
ATOM     31  C   UNL     1      -1.577   6.946  -6.395  0.00  0.00    +0.038 A 
ATOM     32  C   UNL     1      -2.284   8.017  -6.926  0.00  0.00    +0.026 A 
ATOM     33  C   UNL     1      -1.606   9.083  -7.484  0.00  0.00    +0.043 A 
ATOM     34  C   UNL     1      -0.222   9.081  -7.525  0.00  0.00    +0.159 A 
ATOM     35  C   UNL     1       0.486   8.011  -7.000  0.00  0.00    +0.160 A 
ATOM     36  C   UNL     1      -0.189   6.944  -6.435  0.00  0.00    +0.064 A 
ATOM     37  F   UNL     1       1.837   8.011  -7.040  0.00  0.00    -0.202 F 
ATOM     38  F   UNL     1       0.438  10.123  -8.076  0.00  0.00    -0.202 F 
ENDBRANCH  28  31
ENDBRANCH   4  25
TORSDOF 8
