REMARK  Name = ZINC03840771
REMARK  7 active torsions:
REMARK  status: ('A' for Active; 'I' for Inactive)
REMARK    1  A    between atoms: C_1  and  C_2
REMARK    2  A    between atoms: C_10  and  C_12
REMARK    3  A    between atoms: C_16  and  C_37
REMARK    4  A    between atoms: C_19  and  O_36
REMARK    5  A    between atoms: C_21  and  C_25
REMARK    6  A    between atoms: C_25  and  C_27
REMARK    7  A    between atoms: C_25  and  C_28
REMARK                            x       y       z     vdW  Elec       q    Type
REMARK                         _______ _______ _______ _____ _____    ______ ____
ROOT
ATOM      1  C   UNL     1       0.314   1.091   0.326  0.00  0.00    +0.014 C 
ATOM      2  C   UNL     1      -0.449   1.504   1.587  0.00  0.00    +0.042 C 
ATOM      3  C   UNL     1       0.039   0.678   2.770  0.00  0.00    +0.057 A 
ATOM      4  C   UNL     1      -0.701  -0.366   3.224  0.00  0.00    +0.015 A 
ATOM      5  S   UNL     1       0.276  -0.977   4.572  0.00  0.00    -0.057 S 
ATOM      6  C   UNL     1       1.570   0.175   4.436  0.00  0.00    +0.165 A 
ATOM      7  N   UNL     1       1.179   0.911   3.416  0.00  0.00    -0.229 NA
ATOM      8  N   UNL     1       2.722   0.290   5.205  0.00  0.00    -0.264 N 
ATOM      9  C   UNL     1       2.945  -0.571   6.218  0.00  0.00    +0.222 C 
ATOM     10  O   UNL     1       2.140  -1.445   6.459  0.00  0.00    -0.275 OA
ATOM     11  C   UNL     1      -2.007  -0.857   2.703  0.00  0.00    +0.051 C 
ATOM     12  C   UNL     1      -2.247  -0.241   1.313  0.00  0.00    -0.022 C 
ATOM     13  C   UNL     1      -1.939   1.260   1.383  0.00  0.00    +0.033 C 
ATOM     14  C   UNL     1      -2.752   1.889   2.510  0.00  0.00    +0.123 C 
ATOM     15  C   UNL     1      -4.244   1.710   2.212  0.00  0.00    +0.029 C 
ATOM     16  C   UNL     1      -4.571   0.221   2.091  0.00  0.00    +0.007 C 
ATOM     17  C   UNL     1      -3.735  -0.406   0.973  0.00  0.00    +0.008 C 
ATOM     18  C   UNL     1      -1.376  -0.932   0.262  0.00  0.00    +0.012 C 
ATOM     19  H   UNL     1       3.366   0.990   5.013  0.00  0.00    +0.157 HD
ENDROOT
BRANCH   9  20
ATOM     20  C   UNL     1       4.193  -0.446   7.053  0.00  0.00    +0.075 C 
ATOM     21  C   UNL     1       5.243  -1.552   6.923  0.00  0.00    +0.013 C 
ATOM     22  C   UNL     1       4.388  -1.453   8.188  0.00  0.00    +0.013 C 
ENDBRANCH   9  20
BRANCH  15  23
ATOM     23  C   UNL     1      -5.067   2.321   3.348  0.00  0.00    +0.078 C 
ATOM     24  C   UNL     1      -4.695   1.644   4.668  0.00  0.00    +0.017 C 
BRANCH  23  25
ATOM     25  C   UNL     1      -6.534   2.115   3.073  0.00  0.00    +0.219 C 
ATOM     26  O   UNL     1      -7.115   1.169   3.561  0.00  0.00    -0.275 OA
ATOM     27  N   UNL     1      -7.200   2.981   2.284  0.00  0.00    -0.300 N 
ATOM     28  C   UNL     1      -6.469   4.057   1.613  0.00  0.00    +0.118 C 
ATOM     29  C   UNL     1      -6.518   3.830   0.093  0.00  0.00    +0.088 C 
ATOM     30  S   UNL     1      -8.259   3.751  -0.426  0.00  0.00    -0.158 S 
ATOM     31  C   UNL     1      -8.957   2.470   0.659  0.00  0.00    +0.088 C 
ATOM     32  C   UNL     1      -8.647   2.838   2.114  0.00  0.00    +0.118 C 
ENDBRANCH  23  25
ENDBRANCH  15  23
BRANCH  14  33
ATOM     33  O   UNL     1      -2.447   3.283   2.601  0.00  0.00    -0.391 OA
ATOM     34  H   UNL     1      -2.986   3.762   3.245  0.00  0.00    +0.210 HD
ENDBRANCH  14  33
TORSDOF 4
