REMARK  Name = ZINC36050880
REMARK  10 active torsions:
REMARK  status: ('A' for Active; 'I' for Inactive)
REMARK    1  A    between atoms: C_1  and  C_2
REMARK    2  A    between atoms: C_2  and  O_3
REMARK    3  A    between atoms: O_3  and  C_4
REMARK    4  A    between atoms: C_4  and  C_6
REMARK    5  A    between atoms: C_7  and  C_34
REMARK    6  A    between atoms: C_11  and  C_13
REMARK    7  A    between atoms: C_20  and  C_23
REMARK    8  A    between atoms: C_24  and  N_26
REMARK    9  A    between atoms: N_26  and  C_27
REMARK   10  A    between atoms: C_27  and  C_28
REMARK                            x       y       z     vdW  Elec       q    Type
REMARK                         _______ _______ _______ _____ _____    ______ ____
ROOT
ATOM      1  C   UNL     1      -2.731  -2.334   0.165  0.00  0.00    +0.082 C 
ATOM      2  C   UNL     1      -2.913  -3.657  -0.190  0.00  0.00    +0.053 C 
ATOM      3  N   UNL     1      -4.130  -4.137  -0.387  0.00  0.00    -0.230 NA
ATOM      4  C   UNL     1      -5.241  -3.440  -0.271  0.00  0.00    +0.166 C 
ATOM      5  N   UNL     1      -5.279  -2.117   0.072  0.00  0.00    -0.267 N 
ATOM      6  C   UNL     1      -3.963  -1.471   0.323  0.00  0.00    +0.150 C 
ATOM      7  C   UNL     1      -6.524  -1.526   0.153  0.00  0.00    +0.048 C 
ATOM      8  C   UNL     1      -7.602  -2.296  -0.111  0.00  0.00    +0.072 C 
ATOM      9  S   UNL     1      -6.850  -3.870  -0.477  0.00  0.00    -0.060 S 
ATOM     10  C   UNL     1      -1.717  -4.559  -0.354  0.00  0.00    +0.066 C 
ENDROOT
BRANCH   6  11
ATOM     11  C   UNL     1      -3.970  -0.925   1.728  0.00  0.00    -0.022 A 
ATOM     12  C   UNL     1      -4.282  -1.754   2.789  0.00  0.00    +0.007 A 
ATOM     13  C   UNL     1      -4.289  -1.254   4.078  0.00  0.00    +0.020 A 
ATOM     14  C   UNL     1      -3.982   0.076   4.305  0.00  0.00    +0.041 A 
ATOM     15  C   UNL     1      -3.670   0.905   3.242  0.00  0.00    +0.020 A 
ATOM     16  C   UNL     1      -3.658   0.402   1.955  0.00  0.00    +0.007 A 
ATOM     17 CL   UNL     1      -3.991   0.705   5.923  0.00  0.00    -0.084 Cl
ENDBRANCH   6  11
BRANCH   7  18
ATOM     18  C   UNL     1      -6.671  -0.108   0.513  0.00  0.00    +0.091 C 
ATOM     19  C   UNL     1      -7.883   0.477   0.462  0.00  0.00    +0.239 C 
ATOM     20  O   UNL     1      -8.983  -0.266   0.187  0.00  0.00    -0.271 OA
BRANCH  19  21
ATOM     21  N   UNL     1      -8.005   1.837   0.689  0.00  0.00    -0.309 N 
ATOM     22  H   UNL     1      -7.212   2.382   0.812  0.00  0.00    +0.149 HD
BRANCH  21  23
ATOM     23  C   UNL     1      -9.333   2.455   0.743  0.00  0.00    +0.136 C 
BRANCH  23  24
ATOM     24  C   UNL     1      -9.184   3.971   0.882  0.00  0.00    +0.135 C 
ATOM     25  C   UNL     1     -10.578   4.642   0.977  0.00  0.00    +0.035 C 
ATOM     26  C   UNL     1     -10.224   5.953   1.731  0.00  0.00    +0.031 C 
ATOM     27  C   UNL     1      -9.087   5.494   2.669  0.00  0.00    +0.160 C 
ATOM     28  O   UNL     1      -8.525   4.297   2.116  0.00  0.00    -0.375 OA
ENDBRANCH  23  24
ENDBRANCH  21  23
ENDBRANCH  19  21
ENDBRANCH   7  18
BRANCH   1  29
ATOM     29  C   UNL     1      -1.450  -1.811   0.376  0.00  0.00    +0.339 C 
ATOM     30  O   UNL     1      -0.482  -2.551   0.374  0.00  0.00    -0.245 OA
BRANCH  29  31
ATOM     31  O   UNL     1      -1.286  -0.485   0.582  0.00  0.00    -0.462 OA
BRANCH  31  33
ATOM     32  C   UNL     1       0.035   1.494   1.005  0.00  0.00    +0.048 C 
ATOM     33  C   UNL     1       0.049  -0.021   0.791  0.00  0.00    +0.229 C 
ENDBRANCH  31  33
ENDBRANCH  29  31
ENDBRANCH   1  29
TORSDOF 8
