REMARK  Name = ZINC37351700
REMARK  4 active torsions:
REMARK  status: ('A' for Active; 'I' for Inactive)
REMARK    1  A    between atoms: C_1  and  N_2
REMARK    2  A    between atoms: C_3  and  N_20
REMARK    3  A    between atoms: C_4  and  C_13
REMARK    4  A    between atoms: C_5  and  C_7
REMARK                            x       y       z     vdW  Elec       q    Type
REMARK                         _______ _______ _______ _____ _____    ______ ____
ROOT
ATOM      1  C   UNL     1      -0.018   1.461   0.010  0.00  0.00    +0.174 C 
ATOM      2  N   UNL     1       0.002  -0.004   0.002  0.00  0.00    -0.253 N 
ATOM      3  C   UNL     1       0.008  -0.792  -1.104  0.00  0.00    +0.123 A 
ATOM      4  C   UNL     1       0.028  -2.106  -0.676  0.00  0.00    +0.052 A 
ATOM      5  C   UNL     1       0.035  -2.085   0.743  0.00  0.00    +0.137 A 
ATOM      6  N   UNL     1       0.025  -0.828   1.133  0.00  0.00    -0.166 NA
ENDROOT
BRANCH   4   7
ATOM      7  C   UNL     1       0.041  -3.311  -1.538  0.00  0.00    -0.012 A 
ATOM      8  C   UNL     1      -1.042  -4.188  -1.530  0.00  0.00    +0.011 A 
ATOM      9  C   UNL     1      -1.026  -5.309  -2.334  0.00  0.00    +0.039 A 
ATOM     10  C   UNL     1       0.065  -5.564  -3.149  0.00  0.00    +0.123 A 
ATOM     11  C   UNL     1       1.144  -4.695  -3.161  0.00  0.00    +0.039 A 
ATOM     12  C   UNL     1       1.134  -3.568  -2.365  0.00  0.00    +0.011 A 
ATOM     13  F   UNL     1       0.077  -6.663  -3.934  0.00  0.00    -0.205 F 
ENDBRANCH   4   7
BRANCH   5  14
ATOM     14  C   UNL     1       0.055  -3.268   1.627  0.00  0.00    +0.157 A 
ATOM     15  C   UNL     1       0.690  -3.356   2.827  0.00  0.00    +0.053 A 
ATOM     16  C   UNL     1       0.446  -4.654   3.321  0.00  0.00    +0.057 A 
ATOM     17  C   UNL     1      -0.318  -5.287   2.407  0.00  0.00    +0.171 A 
ATOM     18  O   UNL     1      -0.556  -4.444   1.389  0.00  0.00    -0.447 OA
ATOM     19 BR   UNL     1      -0.953  -7.063   2.542  0.00  0.00    -0.008 Br
ENDBRANCH   5  14
BRANCH   3  20
ATOM     20  N   UNL     1      -0.005  -0.357  -2.423  0.00  0.00    -0.343 N 
ATOM     21  H   UNL     1      -0.019   0.593  -2.620  0.00  0.00    +0.144 HD
ATOM     22  H   UNL     1       0.000  -1.003  -3.146  0.00  0.00    +0.144 HD
ENDBRANCH   3  20
TORSDOF 3
