REMARK  Name = ZINC00995817
REMARK  4 active torsions:
REMARK  status: ('A' for Active; 'I' for Inactive)
REMARK    1  A    between atoms: C_6  and  C_7
REMARK    2  A    between atoms: C_9  and  C_28
REMARK    3  A    between atoms: C_10  and  N_27
REMARK    4  A    between atoms: N_11  and  C_19
REMARK                            x       y       z     vdW  Elec       q    Type
REMARK                         _______ _______ _______ _____ _____    ______ ____
ROOT
ATOM      1  C   UNL     1       2.489   1.043  -0.016  0.00  0.00    +0.097 C 
ATOM      2  C   UNL     1       2.576   0.222  -1.269  0.00  0.00    +0.077 C 
ATOM      3  C   UNL     1       2.360  -1.119  -1.246  0.00  0.00    +0.107 C 
ATOM      4  N   UNL     1       2.062  -1.750  -0.059  0.00  0.00    -0.257 N 
ATOM      5  C   UNL     1       2.361  -1.157   1.139  0.00  0.00    +0.025 C 
ATOM      6  C   UNL     1       2.582   0.173   1.212  0.00  0.00    +0.025 C 
ATOM      7  C   UNL     1       2.908   0.787   2.434  0.00  0.00    +0.162 C 
ATOM      8  O   UNL     1       3.091   1.988   2.468  0.00  0.00    -0.292 OA
ATOM      9  C   UNL     1       3.034  -0.015   3.701  0.00  0.00    +0.080 C 
ATOM     10  C   UNL     1       3.462  -1.443   3.347  0.00  0.00    +0.014 C 
ATOM     11  C   UNL     1       2.440  -2.027   2.369  0.00  0.00    +0.052 C 
ENDROOT
BRANCH   1  17
ATOM     12  C   UNL     1      -0.013   1.076   0.008  0.00  0.00    +0.008 A 
ATOM     13  C   UNL     1      -1.220   1.749   0.017  0.00  0.00    +0.050 A 
ATOM     14  C   UNL     1      -1.241   3.134   0.030  0.00  0.00    +0.166 A 
ATOM     15  C   UNL     1      -0.044   3.846   0.023  0.00  0.00    +0.167 A 
ATOM     16  C   UNL     1       1.162   3.164   0.008  0.00  0.00    +0.054 A 
ATOM     17  C   UNL     1       1.176   1.782   0.000  0.00  0.00    -0.031 A 
ATOM     18  O   UNL     1      -0.329   5.180   0.033  0.00  0.00    -0.453 OA
ATOM     19  C   UNL     1      -1.701   5.277   0.458  0.00  0.00    +0.466 C 
ATOM     20  O   UNL     1      -2.277   4.024   0.044  0.00  0.00    -0.453 OA
ENDBRANCH   1  17
BRANCH   4  21
ATOM     21  C   UNL     1       1.448  -3.009  -0.077  0.00  0.00    +0.075 A 
ATOM     22  C   UNL     1       0.063  -3.108  -0.071  0.00  0.00    +0.028 A 
ATOM     23  C   UNL     1      -0.540  -4.350  -0.094  0.00  0.00    +0.017 A 
ATOM     24  C   UNL     1       0.234  -5.497  -0.113  0.00  0.00    +0.021 A 
ATOM     25  C   UNL     1       1.615  -5.404  -0.113  0.00  0.00    +0.055 A 
ATOM     26  C   UNL     1       2.224  -4.163  -0.096  0.00  0.00    +0.146 A 
ATOM     27  F   UNL     1       3.572  -4.071  -0.096  0.00  0.00    -0.203 F 
ATOM     28 BR   UNL     1      -0.596  -7.196  -0.136  0.00  0.00    -0.050 Br
ENDBRANCH   4  21
BRANCH   3  29
ATOM     29  N   UNL     1       2.439  -1.847  -2.409  0.00  0.00    -0.345 N 
ATOM     30  H   UNL     1       2.284  -2.804  -2.393  0.00  0.00    +0.144 HD
ATOM     31  H   UNL     1       2.649  -1.403  -3.246  0.00  0.00    +0.144 HD
ENDBRANCH   3  29
BRANCH   2  32
ATOM     32  C   UNL     1       2.892   0.863  -2.510  0.00  0.00    +0.099 C 
ATOM     33  N   UNL     1       3.143   1.371  -3.494  0.00  0.00    -0.191 NA
ENDBRANCH   2  32
TORSDOF 4
