REMARK  Name = ZINC02418952
REMARK  9 active torsions:
REMARK  status: ('A' for Active; 'I' for Inactive)
REMARK    1  A    between atoms: C_1  and  C_2
REMARK    2  A    between atoms: C_5  and  S_8
REMARK    3  A    between atoms: S_8  and  C_11
REMARK    4  A    between atoms: N_22  and  C_25
REMARK    5  A    between atoms: C_23  and  N_24
REMARK    6  A    between atoms: C_25  and  C_26
REMARK    7  A    between atoms: C_26  and  O_27
REMARK    8  A    between atoms: O_27  and  C_28
REMARK    9  A    between atoms: C_28  and  C_30
REMARK                            x       y       z     vdW  Elec       q    Type
REMARK                         _______ _______ _______ _____ _____    ______ ____
ROOT
ATOM      1  C   UNL     1       1.243   1.864   0.000  0.00  0.00    +0.160 A 
ATOM      2  C   UNL     1       2.144   0.772  -0.014  0.00  0.00    +0.135 A 
ATOM      3  C   UNL     1       1.311  -0.437  -0.013  0.00  0.00    +0.163 A 
ATOM      4  N   UNL     1       1.881  -1.621  -0.024  0.00  0.00    -0.226 NA
ATOM      5  C   UNL     1       3.217  -1.717  -0.038  0.00  0.00    +0.092 A 
ATOM      6  C   UNL     1       3.837  -2.980  -0.050  0.00  0.00    +0.030 A 
ATOM      7  C   UNL     1       5.194  -3.069  -0.063  0.00  0.00    +0.002 A 
ATOM      8  C   UNL     1       5.988  -1.923  -0.065  0.00  0.00    +0.002 A 
ATOM      9  C   UNL     1       5.426  -0.684  -0.053  0.00  0.00    +0.030 A 
ATOM     10  C   UNL     1       4.024  -0.551  -0.039  0.00  0.00    +0.090 A 
ATOM     11  N   UNL     1       3.463   0.662  -0.027  0.00  0.00    -0.240 NA
ATOM     12  N   UNL     1       0.002  -0.004   0.002  0.00  0.00    -0.308 N 
ATOM     13  C   UNL     1      -0.017   1.368   0.010  0.00  0.00    +0.126 A 
ENDROOT
BRANCH   1  14
ATOM     14  S   UNL     1       1.685   3.569   0.005  0.00  0.00    +0.030 S 
ATOM     15  O   UNL     1       2.987   3.653  -0.558  0.00  0.00    -0.164 OA
ATOM     16  O   UNL     1       0.576   4.277  -0.532  0.00  0.00    -0.164 OA
BRANCH  14  21
ATOM     17  C   UNL     1       2.186   5.267   5.773  0.00  0.00    +0.044 C 
ATOM     18  C   UNL     1       2.061   4.844   4.332  0.00  0.00    -0.050 A 
ATOM     19  C   UNL     1       3.162   4.349   3.659  0.00  0.00    +0.005 A 
ATOM     20  C   UNL     1       3.047   3.960   2.337  0.00  0.00    +0.027 A 
ATOM     21  C   UNL     1       1.831   4.065   1.689  0.00  0.00    +0.094 A 
ATOM     22  C   UNL     1       0.731   4.565   2.361  0.00  0.00    +0.027 A 
ATOM     23  C   UNL     1       0.845   4.950   3.683  0.00  0.00    +0.005 A 
ENDBRANCH  14  21
ENDBRANCH   1  14
BRANCH  13  24
ATOM     24  N   UNL     1      -1.165   2.139   0.019  0.00  0.00    -0.343 N 
ATOM     25  H   UNL     1      -2.036   1.712   0.022  0.00  0.00    +0.144 HD
ATOM     26  H   UNL     1      -1.099   3.107   0.024  0.00  0.00    +0.144 HD
ENDBRANCH  13  24
BRANCH  12  27
ATOM     27  C   UNL     1      -1.180  -0.870   0.008  0.00  0.00    +0.166 C 
BRANCH  27  28
ATOM     28  C   UNL     1      -1.604  -1.164  -1.432  0.00  0.00    +0.254 C 
BRANCH  28  29
ATOM     29  O   UNL     1      -2.775  -2.022  -1.427  0.00  0.00    -0.459 OA
BRANCH  29  30
ATOM     30  C   UNL     1      -3.279  -2.377  -2.624  0.00  0.00    +0.339 C 
ATOM     31  O   UNL     1      -2.755  -1.980  -3.646  0.00  0.00    -0.245 OA
BRANCH  30  32
ATOM     32  C   UNL     1      -4.469  -3.248  -2.696  0.00  0.00    +0.059 A 
ATOM     33  C   UNL     1      -5.071  -3.710  -1.523  0.00  0.00    +0.018 A 
ATOM     34  C   UNL     1      -6.185  -4.518  -1.595  0.00  0.00    +0.039 A 
ATOM     35  C   UNL     1      -6.701  -4.882  -2.830  0.00  0.00    +0.123 A 
ATOM     36  C   UNL     1      -6.105  -4.431  -3.997  0.00  0.00    +0.039 A 
ATOM     37  C   UNL     1      -4.994  -3.617  -3.937  0.00  0.00    +0.018 A 
ATOM     38  F   UNL     1      -7.790  -5.680  -2.895  0.00  0.00    -0.205 F 
ENDBRANCH  30  32
ENDBRANCH  29  30
ENDBRANCH  28  29
ENDBRANCH  27  28
ENDBRANCH  12  27
TORSDOF 8
