REMARK  Name = ZINC09597127
REMARK  10 active torsions:
REMARK  status: ('A' for Active; 'I' for Inactive)
REMARK    1  A    between atoms: C_1  and  O_2
REMARK    2  A    between atoms: O_2  and  C_3
REMARK    3  A    between atoms: C_3  and  C_4
REMARK    4  A    between atoms: C_4  and  N_5
REMARK    5  A    between atoms: C_7  and  C_25
REMARK    6  A    between atoms: C_8  and  N_53
REMARK    7  A    between atoms: C_10  and  C_13
REMARK    8  A    between atoms: C_13  and  C_15
REMARK    9  A    between atoms: C_18  and  O_21
REMARK   10  A    between atoms: O_21  and  C_22
REMARK                            x       y       z     vdW  Elec       q    Type
REMARK                         _______ _______ _______ _____ _____    ______ ____
ROOT
ATOM      1  N   UNL     1       0.690   2.759  -4.644  0.00  0.00    -0.279 NA
ATOM      2  C   UNL     1       0.175   2.644  -3.371  0.00  0.00    +0.077 C 
ATOM      3  C   UNL     1       0.043   1.513  -2.648  0.00  0.00    +0.086 C 
ATOM      4  C   UNL     1      -0.539   1.573  -1.280  0.00  0.00    -0.038 C 
ATOM      5  C   UNL     1      -0.928   3.003  -0.860  0.00  0.00    +0.110 C 
ATOM      6  S   UNL     1      -0.451   3.959  -2.348  0.00  0.00    -0.100 S 
ENDROOT
BRANCH   3   7
ATOM      7  C   UNL     1       0.458   0.275  -3.191  0.00  0.00    +0.087 A 
ATOM      8  N   UNL     1       0.309  -0.942  -2.692  0.00  0.00    -0.243 NA
ATOM      9  C   UNL     1       0.758  -2.041  -3.332  0.00  0.00    +0.078 A 
ATOM     10  C   UNL     1       0.661  -3.390  -2.917  0.00  0.00    +0.029 A 
ATOM     11  C   UNL     1       1.178  -4.399  -3.688  0.00  0.00    +0.002 A 
ATOM     12  C   UNL     1       1.810  -4.137  -4.895  0.00  0.00    +0.001 A 
ATOM     13  C   UNL     1       1.922  -2.829  -5.331  0.00  0.00    +0.017 A 
ATOM     14  C   UNL     1       1.408  -1.813  -4.566  0.00  0.00    +0.039 A 
ATOM     15  S   UNL     1       1.323  -0.045  -4.722  0.00  0.00    -0.071 S 
ENDBRANCH   3   7
BRANCH   4  18
ATOM     16  H   UNL     1       0.695   0.097  -0.546  0.00  0.00    -0.090 HD
ATOM     17  H   UNL     1       1.263   1.639  -0.286  0.00  0.00    -0.090 HD
ATOM     18  N   UNL     1       0.431   1.050  -0.302  0.00  0.00    +0.382 N 
ATOM     19  H   UNL     1       0.003   1.050   0.631  0.00  0.00    -0.090 HD
ENDBRANCH   4  18
BRANCH   5  20
ATOM     20  C   UNL     1      -2.409   3.108  -0.603  0.00  0.00    +0.175 C 
ATOM     21  O   UNL     1      -2.834   3.045   0.531  0.00  0.00    -0.291 OA
BRANCH  20  22
ATOM     22  C   UNL     1      -3.338   3.288  -1.726  0.00  0.00    +0.019 A 
ATOM     23  C   UNL     1      -4.556   3.951  -1.532  0.00  0.00    +0.015 A 
ATOM     24  C   UNL     1      -5.417   4.121  -2.585  0.00  0.00    +0.046 A 
ATOM     25  C   UNL     1      -5.088   3.626  -3.842  0.00  0.00    +0.127 A 
ATOM     26  C   UNL     1      -3.883   2.961  -4.040  0.00  0.00    +0.046 A 
ATOM     27  C   UNL     1      -3.012   2.791  -2.995  0.00  0.00    +0.015 A 
BRANCH  25  28
ATOM     28  O   UNL     1      -5.947   3.792  -4.880  0.00  0.00    -0.434 OA
BRANCH  28  29
ATOM     29  C   UNL     1      -7.167   4.484  -4.608  0.00  0.00    +0.541 C 
ATOM     30  F   UNL     1      -7.888   3.790  -3.630  0.00  0.00    -0.166 F 
ATOM     31  F   UNL     1      -6.880   5.773  -4.148  0.00  0.00    -0.166 F 
ENDBRANCH  28  29
ENDBRANCH  25  28
ENDBRANCH  20  22
ENDBRANCH   5  20
BRANCH   1  32
ATOM     32  C   UNL     1       0.867   4.083  -5.246  0.00  0.00    +0.170 C 
BRANCH  32  33
ATOM     33  C   UNL     1       1.450   3.931  -6.652  0.00  0.00    +0.182 C 
BRANCH  33  35
ATOM     34  C   UNL     1       0.955   3.064  -8.832  0.00  0.00    +0.194 C 
ATOM     35  O   UNL     1       0.506   3.259  -7.489  0.00  0.00    -0.381 OA
ENDBRANCH  33  35
ENDBRANCH  32  33
ENDBRANCH   1  32
TORSDOF 9
