REMARK  Name = ZINC22936584
REMARK  12 active torsions:
REMARK  status: ('A' for Active; 'I' for Inactive)
REMARK    1  A    between atoms: C_1  and  C_2
REMARK    2  A    between atoms: C_2  and  N_3
REMARK    3  A    between atoms: N_6  and  C_9
REMARK    4  A    between atoms: C_9  and  C_10
REMARK    5  A    between atoms: C_10  and  N_11
REMARK    6  A    between atoms: C_12  and  C_14
REMARK    7  A    between atoms: C_17  and  C_20
REMARK    8  A    between atoms: C_22  and  C_26
REMARK    9  A    between atoms: C_23  and  C_25
REMARK   10  A    between atoms: C_26  and  S_27
REMARK   11  A    between atoms: S_27  and  C_28
REMARK   12  A    between atoms: C_31  and  C_34
REMARK                            x       y       z     vdW  Elec       q    Type
REMARK                         _______ _______ _______ _____ _____    ______ ____
ROOT
ATOM      1  C   UNL     1      -7.734  -6.571  -1.376  0.00  0.00    +0.037 A 
ATOM      2  C   UNL     1      -8.828  -5.703  -1.321  0.00  0.00    +0.014 A 
ATOM      3  C   UNL     1     -10.108  -6.206  -1.355  0.00  0.00    +0.014 A 
ATOM      4  C   UNL     1     -10.315  -7.585  -1.442  0.00  0.00    +0.037 A 
ATOM      5  C   UNL     1      -9.221  -8.453  -1.497  0.00  0.00    +0.014 A 
ATOM      6  C   UNL     1      -7.941  -7.949  -1.470  0.00  0.00    +0.014 A 
ENDROOT
BRANCH   4   7
ATOM      7  C   UNL     1     -11.689  -8.126  -1.477  0.00  0.00    +0.228 A 
ATOM      8  N   UNL     1     -12.011  -9.396  -1.553  0.00  0.00    -0.213 NA
ATOM      9  C   UNL     1     -13.347  -9.500  -1.562  0.00  0.00    +0.093 A 
ATOM     10  C   UNL     1     -13.858  -8.255  -1.489  0.00  0.00    +0.127 A 
ATOM     11  O   UNL     1     -12.820  -7.400  -1.431  0.00  0.00    -0.440 OA
ATOM     12  C   UNL     1     -15.320  -7.889  -1.471  0.00  0.00    +0.088 C 
BRANCH   9  13
ATOM     13  C   UNL     1     -14.138 -10.780  -1.639  0.00  0.00    +0.133 C 
BRANCH  13  14
ATOM     14  S   UNL     1     -14.459 -11.395   0.037  0.00  0.00    -0.119 S 
BRANCH  14  15
ATOM     15  C   UNL     1     -15.379 -12.876  -0.221  0.00  0.00    +0.008 A 
ATOM     16  C   UNL     1     -15.674 -13.296  -1.512  0.00  0.00    +0.015 A 
ATOM     17  C   UNL     1     -16.395 -14.457  -1.710  0.00  0.00    +0.004 A 
ATOM     18  C   UNL     1     -16.823 -15.201  -0.626  0.00  0.00    -0.050 A 
ATOM     19  C   UNL     1     -16.531 -14.786   0.661  0.00  0.00    +0.004 A 
ATOM     20  C   UNL     1     -15.805 -13.629   0.866  0.00  0.00    +0.015 A 
ATOM     21  C   UNL     1     -17.609 -16.468  -0.846  0.00  0.00    +0.044 C 
ENDBRANCH  14  15
ENDBRANCH  13  14
ENDBRANCH   9  13
ENDBRANCH   4   7
BRANCH   1  23
ATOM     22  N   UNL     1      -6.161  -4.700  -1.250  0.00  0.00    -0.310 N 
ATOM     23  C   UNL     1      -6.360  -6.030  -1.341  0.00  0.00    +0.244 C 
ATOM     24  O   UNL     1      -5.409  -6.785  -1.393  0.00  0.00    -0.270 OA
ATOM     25  H   UNL     1      -6.920  -4.098  -1.208  0.00  0.00    +0.149 HD
BRANCH  22  26
ATOM     26  C   UNL     1      -4.798  -4.164  -1.215  0.00  0.00    +0.120 C 
BRANCH  26  27
ATOM     27  C   UNL     1      -4.853  -2.639  -1.111  0.00  0.00    +0.103 C 
BRANCH  27  31
ATOM     28  N   UNL     1      -1.376  -0.512   0.012  0.00  0.00    +0.381 N 
ATOM     29  C   UNL     1      -2.050  -0.124  -1.234  0.00  0.00    -0.063 C 
ATOM     30  C   UNL     1      -3.492  -0.638  -1.215  0.00  0.00    +0.066 C 
ATOM     31  N   UNL     1      -3.486  -2.101  -1.076  0.00  0.00    -0.304 NA
ATOM     32  C   UNL     1      -2.792  -2.506   0.155  0.00  0.00    +0.066 C 
ATOM     33  C   UNL     1      -1.357  -1.977   0.125  0.00  0.00    -0.063 C 
ATOM     34  H   UNL     1      -1.873  -0.121   0.799  0.00  0.00    -0.082 HD
BRANCH  28  36
ATOM     35  C   UNL     1      -0.019   1.526   0.010  0.00  0.00    -0.017 C 
ATOM     36  C   UNL     1       0.002  -0.004   0.002  0.00  0.00    -0.082 C 
ENDBRANCH  28  36
ENDBRANCH  27  31
ENDBRANCH  26  27
ENDBRANCH  22  26
ENDBRANCH   1  23
TORSDOF 9
