REMARK  Name = ZINC42962418
REMARK  7 active torsions:
REMARK  status: ('A' for Active; 'I' for Inactive)
REMARK    1  A    between atoms: C_1  and  C_2
REMARK    2  A    between atoms: C_5  and  S_8
REMARK    3  A    between atoms: S_8  and  C_9
REMARK    4  A    between atoms: C_9  and  C_10
REMARK    5  A    between atoms: N_12  and  N_13
REMARK    6  A    between atoms: N_16  and  C_17
REMARK    7  A    between atoms: C_20  and  O_23
REMARK                            x       y       z     vdW  Elec       q    Type
REMARK                         _______ _______ _______ _____ _____    ______ ____
ROOT
ATOM      1  N   UNL     1       0.129  -8.443   3.219  0.00  0.00    -0.218 N 
ATOM      2  C   UNL     1       0.142  -9.009   4.442  0.00  0.00    +0.316 C 
ATOM      3  O   UNL     1       0.159 -10.220   4.551  0.00  0.00    -0.251 OA
ATOM      4  N   UNL     1       0.138  -8.233   5.544  0.00  0.00    -0.295 N 
ATOM      5  H   UNL     1       0.132  -9.002   2.426  0.00  0.00    +0.174 HD
ATOM      6  H   UNL     1       0.125  -7.267   5.457  0.00  0.00    +0.151 HD
ENDROOT
BRANCH   4   7
ATOM      7  C   UNL     1       0.153  -8.849   6.873  0.00  0.00    +0.075 C 
ATOM      8  C   UNL     1      -1.278  -9.196   7.291  0.00  0.00    +0.025 C 
ATOM      9  C   UNL     1      -1.262  -9.838   8.679  0.00  0.00    +0.033 C 
ATOM     10  C   UNL     1      -0.660  -8.858   9.688  0.00  0.00    +0.115 C 
ATOM     11  C   UNL     1       0.770  -8.511   9.271  0.00  0.00    +0.033 C 
ATOM     12  C   UNL     1       0.755  -7.869   7.882  0.00  0.00    +0.025 C 
BRANCH  10  13
ATOM     13  O   UNL     1      -0.646  -9.459  10.985  0.00  0.00    -0.392 OA
ATOM     14  H   UNL     1      -0.276  -8.893  11.676  0.00  0.00    +0.210 HD
ENDBRANCH  10  13
ENDBRANCH   4   7
BRANCH   1  17
ATOM     15  C   UNL     1       0.097  -6.482   1.870  0.00  0.00    +0.239 C 
ATOM     16  O   UNL     1       0.101  -7.180   0.879  0.00  0.00    -0.273 OA
ATOM     17  N   UNL     1       0.110  -7.048   3.093  0.00  0.00    -0.233 N 
ATOM     18  H   UNL     1       0.107  -6.489   3.886  0.00  0.00    +0.173 HD
BRANCH  15  19
ATOM     19  C   UNL     1       0.077  -4.981   1.735  0.00  0.00    +0.171 C 
BRANCH  19  20
ATOM     20  S   UNL     1       0.062  -4.533  -0.023  0.00  0.00    -0.116 S 
BRANCH  20  25
ATOM     21  C   UNL     1      -0.018   1.503   0.010  0.00  0.00    +0.044 C 
ATOM     22  C   UNL     1       0.002  -0.004   0.002  0.00  0.00    -0.050 A 
ATOM     23  C   UNL     1       0.006  -0.687  -1.200  0.00  0.00    +0.004 A 
ATOM     24  C   UNL     1       0.024  -2.068  -1.212  0.00  0.00    +0.015 A 
ATOM     25  C   UNL     1       0.039  -2.771  -0.013  0.00  0.00    +0.008 A 
ATOM     26  C   UNL     1       0.036  -2.081   1.193  0.00  0.00    +0.015 A 
ATOM     27  C   UNL     1       0.023  -0.700   1.197  0.00  0.00    +0.004 A 
ENDBRANCH  20  25
ENDBRANCH  19  20
ENDBRANCH  15  19
ENDBRANCH   1  17
TORSDOF 6
