REMARK  Name = ZINC16188843
REMARK  8 active torsions:
REMARK  status: ('A' for Active; 'I' for Inactive)
REMARK    1  A    between atoms: C_1  and  N_2
REMARK    2  A    between atoms: N_2  and  C_3
REMARK    3  A    between atoms: N_2  and  S_27
REMARK    4  A    between atoms: C_8  and  C_9
REMARK    5  A    between atoms: N_11  and  C_12
REMARK    6  A    between atoms: C_17  and  C_18
REMARK    7  A    between atoms: N_20  and  C_21
REMARK    8  A    between atoms: S_27  and  C_30
REMARK                            x       y       z     vdW  Elec       q    Type
REMARK                         _______ _______ _______ _____ _____    ______ ____
ROOT
ATOM      1  C   UNL     1       1.769  -0.863  -2.822  0.00  0.00    +0.250 C 
ATOM      2  O   UNL     1       2.249   0.140  -2.329  0.00  0.00    -0.270 OA
ATOM      3  N   UNL     1       0.508  -0.843  -3.297  0.00  0.00    -0.281 N 
ATOM      4  H   UNL     1       0.152  -1.617  -3.761  0.00  0.00    +0.155 HD
ENDROOT
BRANCH   1  10
ATOM      5  C   UNL     1       3.842  -2.155  -2.319  0.00  0.00    +0.063 A 
ATOM      6  C   UNL     1       4.582  -3.329  -2.395  0.00  0.00    +0.025 A 
ATOM      7  C   UNL     1       4.064  -4.431  -3.045  0.00  0.00    +0.002 A 
ATOM      8  C   UNL     1       2.807  -4.378  -3.625  0.00  0.00    +0.001 A 
ATOM      9  C   UNL     1       2.059  -3.223  -3.560  0.00  0.00    +0.015 A 
ATOM     10  C   UNL     1       2.566  -2.100  -2.901  0.00  0.00    +0.060 A 
BRANCH   5  12
ATOM     11  C   UNL     1       4.198  -0.905  -0.217  0.00  0.00    +0.157 C 
ATOM     12  N   UNL     1       4.361  -1.045  -1.666  0.00  0.00    -0.205 N 
BRANCH  12  13
ATOM     13  S   UNL     1       5.164   0.121  -2.525  0.00  0.00    +0.074 S 
ATOM     14  O   UNL     1       4.972   1.344  -1.827  0.00  0.00    -0.150 OA
ATOM     15  O   UNL     1       4.789  -0.047  -3.885  0.00  0.00    -0.150 OA
BRANCH  13  16
ATOM     16  C   UNL     1       6.883  -0.250  -2.427  0.00  0.00    +0.109 A 
ATOM     17  C   UNL     1       7.470  -1.064  -3.377  0.00  0.00    +0.029 A 
ATOM     18  C   UNL     1       8.819  -1.356  -3.300  0.00  0.00    +0.002 A 
ATOM     19  C   UNL     1       9.581  -0.834  -2.272  0.00  0.00    +0.000 A 
ATOM     20  C   UNL     1       8.995  -0.019  -1.321  0.00  0.00    +0.002 A 
ATOM     21  C   UNL     1       7.646   0.272  -1.399  0.00  0.00    +0.029 A 
ENDBRANCH  13  16
ENDBRANCH  12  13
ENDBRANCH   5  12
ENDBRANCH   1  10
BRANCH   3  22
ATOM     22  C   UNL     1      -0.284   0.289  -3.122  0.00  0.00    +0.046 A 
ATOM     23  C   UNL     1      -0.039   1.155  -2.064  0.00  0.00    +0.024 A 
ATOM     24  C   UNL     1      -0.823   2.278  -1.895  0.00  0.00    +0.002 A 
ATOM     25  C   UNL     1      -1.863   2.546  -2.770  0.00  0.00    +0.001 A 
ATOM     26  C   UNL     1      -2.124   1.695  -3.822  0.00  0.00    +0.015 A 
ATOM     27  C   UNL     1      -1.337   0.557  -4.010  0.00  0.00    +0.058 A 
BRANCH  27  28
ATOM     28  C   UNL     1      -1.611  -0.359  -5.133  0.00  0.00    +0.246 C 
ATOM     29  O   UNL     1      -0.984  -1.394  -5.241  0.00  0.00    -0.270 OA
ATOM     30  N   UNL     1      -2.558  -0.047  -6.041  0.00  0.00    -0.308 N 
ATOM     31  H   UNL     1      -3.059   0.779  -5.955  0.00  0.00    +0.149 HD
BRANCH  30  32
ATOM     32  C   UNL     1      -2.830  -0.956  -7.157  0.00  0.00    +0.073 C 
ATOM     33  C   UNL     1      -1.851  -0.671  -8.297  0.00  0.00    +0.022 C 
ATOM     34  C   UNL     1      -2.135  -1.620  -9.463  0.00  0.00    +0.002 C 
ATOM     35  C   UNL     1      -3.568  -1.407  -9.956  0.00  0.00    +0.000 C 
ATOM     36  C   UNL     1      -4.547  -1.692  -8.815  0.00  0.00    +0.002 C 
ATOM     37  C   UNL     1      -4.263  -0.743  -7.650  0.00  0.00    +0.022 C 
ENDBRANCH  30  32
ENDBRANCH  27  28
ENDBRANCH   3  22
TORSDOF 7
