REMARK  Name = ZINC32678540
REMARK  5 active torsions:
REMARK  status: ('A' for Active; 'I' for Inactive)
REMARK    1  A    between atoms: C_9  and  C_12
REMARK    2  A    between atoms: N_14  and  C_15
REMARK    3  A    between atoms: C_18  and  N_21
REMARK    4  A    between atoms: N_21  and  S_22
REMARK    5  A    between atoms: S_22  and  C_25
REMARK                            x       y       z     vdW  Elec       q    Type
REMARK                         _______ _______ _______ _____ _____    ______ ____
ROOT
ATOM      1  C   UNL     1      -2.267   9.624   0.294  0.00  0.00    +0.034 A 
ATOM      2  C   UNL     1      -1.205   9.925  -0.548  0.00  0.00    +0.025 A 
ATOM      3  C   UNL     1      -1.120  11.173  -1.133  0.00  0.00    +0.026 A 
ATOM      4  C   UNL     1      -2.090  12.131  -0.868  0.00  0.00    +0.048 A 
ATOM      5  C   UNL     1      -3.149  11.832  -0.021  0.00  0.00    +0.026 A 
ATOM      6  C   UNL     1      -3.237  10.581   0.558  0.00  0.00    +0.025 A 
ENDROOT
BRANCH   1   9
ATOM      7  C   UNL     1      -3.562   7.786   1.077  0.00  0.00    +0.261 C 
ATOM      8  O   UNL     1      -4.574   8.405   0.821  0.00  0.00    -0.271 OA
ATOM      9  N   UNL     1      -2.356   8.355   0.883  0.00  0.00    -0.282 N 
ATOM     10  H   UNL     1      -1.442   7.824   1.187  0.00  0.00    +0.155 HD
BRANCH   7  19
ATOM     11  C   UNL     1      -5.924   2.584   3.843  0.00  0.00    +0.004 A 
ATOM     12  C   UNL     1      -6.820   3.065   2.906  0.00  0.00    +0.004 A 
ATOM     13  C   UNL     1      -6.514   4.195   2.172  0.00  0.00    +0.049 A 
ATOM     14  C   UNL     1      -5.309   4.850   2.373  0.00  0.00    +0.163 A 
ATOM     15  C   UNL     1      -4.407   4.365   3.313  0.00  0.00    +0.162 A 
ATOM     16  C   UNL     1      -4.722   3.233   4.051  0.00  0.00    +0.049 A 
ATOM     17  O   UNL     1      -3.216   4.990   3.524  0.00  0.00    -0.484 OA
ATOM     18  C   UNL     1      -3.101   6.333   3.042  0.00  0.00    +0.283 C 
ATOM     19  C   UNL     1      -3.655   6.380   1.612  0.00  0.00    +0.296 C 
ATOM     20  O   UNL     1      -5.025   5.966   1.648  0.00  0.00    -0.473 OA
ENDBRANCH   7  19
ENDBRANCH   1   9
BRANCH   4  21
ATOM     21  N   UNL     1      -2.000  13.398  -1.455  0.00  0.00    -0.216 N 
ATOM     22  H   UNL     1      -2.891  13.859  -1.906  0.00  0.00    +0.174 HD
BRANCH  21  23
ATOM     23  S   UNL     1      -0.552  14.202  -1.470  0.00  0.00    +0.072 S 
ATOM     24  O   UNL     1       0.411  13.294  -1.986  0.00  0.00    -0.150 OA
ATOM     25  O   UNL     1      -0.799  15.470  -2.064  0.00  0.00    -0.150 OA
BRANCH  23  26
ATOM     26  C   UNL     1      -0.109  14.509   0.207  0.00  0.00    +0.109 A 
ATOM     27  C   UNL     1      -0.601  15.625   0.858  0.00  0.00    +0.031 A 
ATOM     28  C   UNL     1      -0.257  15.864   2.176  0.00  0.00    +0.040 A 
ATOM     29  C   UNL     1       0.588  14.991   2.840  0.00  0.00    +0.124 A 
ATOM     30  C   UNL     1       1.084  13.876   2.184  0.00  0.00    +0.040 A 
ATOM     31  C   UNL     1       0.735  13.637   0.869  0.00  0.00    +0.031 A 
ATOM     32  F   UNL     1       0.928  15.226   4.126  0.00  0.00    -0.205 F 
ENDBRANCH  23  26
ENDBRANCH  21  23
ENDBRANCH   4  21
TORSDOF 5
