REMARK  Name = ZINC39676077
REMARK  9 active torsions:
REMARK  status: ('A' for Active; 'I' for Inactive)
REMARK    1  A    between atoms: C_1  and  C_2
REMARK    2  A    between atoms: C_2  and  C_3
REMARK    3  A    between atoms: C_3  and  C_5
REMARK    4  A    between atoms: C_3  and  C_11
REMARK    5  A    between atoms: C_15  and  C_24
REMARK    6  A    between atoms: N_26  and  C_27
REMARK    7  A    between atoms: C_27  and  C_28
REMARK    8  A    between atoms: N_31  and  C_33
REMARK    9  A    between atoms: C_33  and  C_34
REMARK                            x       y       z     vdW  Elec       q    Type
REMARK                         _______ _______ _______ _____ _____    ______ ____
ROOT
ATOM      1  C   UNL     1       0.139  -0.044   2.302  0.00  0.00    +0.223 C 
ATOM      2  O   UNL     1      -0.088  -0.862   3.169  0.00  0.00    -0.275 OA
ATOM      3  N   UNL     1      -0.160   1.254   2.506  0.00  0.00    -0.300 N 
ATOM      4  C   UNL     1       0.120   2.402   1.611  0.00  0.00    +0.121 C 
ATOM      5  C   UNL     1      -1.138   3.293   1.714  0.00  0.00    +0.100 C 
ATOM      6  C   UNL     1      -1.764   2.932   3.071  0.00  0.00    -0.004 C 
ATOM      7  C   UNL     1      -0.849   1.856   3.673  0.00  0.00    +0.115 C 
ATOM      8  C   UNL     1      -1.805   4.159   3.978  0.00  0.00    -0.010 C 
ATOM      9  C   UNL     1      -2.485   3.789   5.299  0.00  0.00    -0.082 C 
ATOM     10  N   UNL     1      -3.846   3.307   5.033  0.00  0.00    +0.379 N 
ATOM     11  C   UNL     1      -3.793   2.074   4.239  0.00  0.00    -0.082 C 
ATOM     12  C   UNL     1      -3.169   2.371   2.872  0.00  0.00    -0.010 C 
ATOM     13  H   UNL     1      -4.312   3.122   5.909  0.00  0.00    -0.086 HD
ATOM     14  H   UNL     1      -4.358   4.012   4.525  0.00  0.00    -0.086 HD
ENDROOT
BRANCH   5  15
ATOM     15  C   UNL     1      -0.753   4.750   1.682  0.00  0.00    +0.218 C 
ATOM     16  O   UNL     1       0.338   5.097   2.081  0.00  0.00    -0.275 OA
ATOM     17  N   UNL     1      -1.621   5.666   1.209  0.00  0.00    -0.311 N 
ATOM     18  H   UNL     1      -2.494   5.388   0.890  0.00  0.00    +0.149 HD
BRANCH  17  19
ATOM     19  C   UNL     1      -1.247   7.082   1.178  0.00  0.00    +0.142 C 
BRANCH  19  20
ATOM     20  C   UNL     1      -2.385   7.890   0.610  0.00  0.00    +0.007 A 
ATOM     21  C   UNL     1      -2.586   8.191  -0.741  0.00  0.00    +0.139 A 
ATOM     22  N   UNL     1      -3.676   8.908  -0.843  0.00  0.00    -0.179 NA
ATOM     23  N   UNL     1      -4.203   9.086   0.443  0.00  0.00    -0.267 N 
ATOM     24  C   UNL     1      -3.396   8.447   1.315  0.00  0.00    +0.113 A 
BRANCH  23  25
ATOM     25  C   UNL     1      -5.420   9.829   0.780  0.00  0.00    +0.178 C 
BRANCH  25  26
ATOM     26  C   UNL     1      -5.322  11.229   0.230  0.00  0.00    -0.026 A 
ATOM     27  C   UNL     1      -4.766  12.236   0.996  0.00  0.00    +0.005 A 
ATOM     28  C   UNL     1      -4.676  13.519   0.492  0.00  0.00    +0.000 A 
ATOM     29  C   UNL     1      -5.142  13.796  -0.780  0.00  0.00    +0.000 A 
ATOM     30  C   UNL     1      -5.698  12.789  -1.547  0.00  0.00    +0.000 A 
ATOM     31  C   UNL     1      -5.784  11.505  -1.044  0.00  0.00    +0.005 A 
ENDBRANCH  25  26
ENDBRANCH  23  25
ENDBRANCH  19  20
ENDBRANCH  17  19
ENDBRANCH   5  15
BRANCH   1  32
ATOM     32  C   UNL     1       0.754  -0.480   0.997  0.00  0.00    +0.105 C 
BRANCH  32  33
ATOM     33  C   UNL     1       2.256  -0.483   1.126  0.00  0.00    -0.036 A 
ATOM     34  C   UNL     1       2.867  -1.292   2.065  0.00  0.00    +0.004 A 
ATOM     35  C   UNL     1       4.245  -1.295   2.183  0.00  0.00    +0.000 A 
ATOM     36  C   UNL     1       5.010  -0.488   1.362  0.00  0.00    +0.000 A 
ATOM     37  C   UNL     1       4.399   0.320   0.422  0.00  0.00    +0.000 A 
ATOM     38  C   UNL     1       3.022   0.320   0.301  0.00  0.00    +0.004 A 
ENDBRANCH  32  33
BRANCH  32  40
ATOM     39  C   UNL     1      -1.236  -1.859   0.380  0.00  0.00    +0.005 C 
ATOM     40  C   UNL     1       0.269  -1.889   0.650  0.00  0.00    +0.014 C 
ENDBRANCH  32  40
ENDBRANCH   1  32
TORSDOF 8
