REMARK  Name = ZINC15676190
REMARK  5 active torsions:
REMARK  status: ('A' for Active; 'I' for Inactive)
REMARK    1  A    between atoms: C_3  and  C_32
REMARK    2  A    between atoms: C_6  and  C_7
REMARK    3  A    between atoms: C_7  and  N_8
REMARK    4  A    between atoms: C_9  and  C_11
REMARK    5  A    between atoms: N_24  and  C_25
REMARK                            x       y       z     vdW  Elec       q    Type
REMARK                         _______ _______ _______ _____ _____    ______ ____
ROOT
ATOM      1  C   UNL     1      -4.064  -1.603  -3.860  0.00  0.00    +0.169 C 
ATOM      2  C   UNL     1      -5.207  -0.620  -4.144  0.00  0.00    +0.087 C 
ATOM      3  C   UNL     1      -6.223  -0.725  -3.037  0.00  0.00    +0.042 A 
ATOM      4  C   UNL     1      -6.318  -1.758  -2.172  0.00  0.00    +0.079 A 
ATOM      5  N   UNL     1      -7.330  -1.509  -1.338  0.00  0.00    -0.239 NA
ATOM      6  C   UNL     1      -7.868  -0.358  -1.648  0.00  0.00    +0.197 A 
ATOM      7  N   UNL     1      -7.201   0.163  -2.704  0.00  0.00    -0.348 N 
ATOM      8  H   UNL     1      -7.385   1.009  -3.142  0.00  0.00    +0.166 HD
ATOM      9  C   UNL     1      -5.401  -2.957  -2.195  0.00  0.00    +0.167 C 
ATOM     10  N   UNL     1      -4.630  -2.897  -3.451  0.00  0.00    -0.268 N 
ATOM     11  C   UNL     1      -4.450  -3.998  -4.206  0.00  0.00    +0.307 C 
ATOM     12  O   UNL     1      -3.896  -3.912  -5.285  0.00  0.00    -0.252 OA
ATOM     13  N   UNL     1      -4.884  -5.196  -3.766  0.00  0.00    -0.269 N 
ATOM     14  H   UNL     1      -5.393  -5.254  -2.942  0.00  0.00    +0.156 HD
ENDROOT
BRANCH  13  15
ATOM     15  C   UNL     1      -4.600  -6.356  -4.497  0.00  0.00    +0.035 A 
ATOM     16  C   UNL     1      -3.407  -6.460  -5.200  0.00  0.00    +0.025 A 
ATOM     17  C   UNL     1      -3.129  -7.605  -5.921  0.00  0.00    +0.022 A 
ATOM     18  C   UNL     1      -4.038  -8.648  -5.941  0.00  0.00    +0.041 A 
ATOM     19  C   UNL     1      -5.228  -8.547  -5.242  0.00  0.00    +0.022 A 
ATOM     20  C   UNL     1      -5.508  -7.406  -4.515  0.00  0.00    +0.025 A 
ATOM     21 CL   UNL     1      -3.686 -10.086  -6.848  0.00  0.00    -0.084 Cl
ENDBRANCH  13  15
BRANCH   1  23
ATOM     22  N   UNL     1      -2.270  -0.118  -3.024  0.00  0.00    -0.310 N 
ATOM     23  C   UNL     1      -3.196  -1.060  -2.754  0.00  0.00    +0.234 C 
ATOM     24  O   UNL     1      -3.331  -1.470  -1.621  0.00  0.00    -0.274 OA
ATOM     25  H   UNL     1      -2.163   0.210  -3.931  0.00  0.00    +0.149 HD
BRANCH  22  26
ATOM     26  C   UNL     1      -1.427   0.409  -1.949  0.00  0.00    +0.139 C 
BRANCH  26  32
ATOM     27  C   UNL     1      -0.859   2.771  -2.555  0.00  0.00    +0.006 A 
ATOM     28  C   UNL     1       0.007   3.717  -3.070  0.00  0.00    +0.013 A 
ATOM     29  C   UNL     1       1.249   3.334  -3.542  0.00  0.00    +0.055 A 
ATOM     30  C   UNL     1       1.625   2.004  -3.498  0.00  0.00    +0.013 A 
ATOM     31  C   UNL     1       0.759   1.058  -2.982  0.00  0.00    +0.006 A 
ATOM     32  C   UNL     1      -0.483   1.441  -2.511  0.00  0.00    -0.030 A 
BRANCH  29  33
ATOM     33  C   UNL     1       2.192   4.365  -4.105  0.00  0.00    +0.417 C 
ATOM     34  F   UNL     1       2.998   4.870  -3.078  0.00  0.00    -0.166 F 
ATOM     35  F   UNL     1       3.000   3.775  -5.083  0.00  0.00    -0.166 F 
ATOM     36  F   UNL     1       1.456   5.409  -4.676  0.00  0.00    -0.166 F 
ENDBRANCH  29  33
ENDBRANCH  26  32
ENDBRANCH  22  26
ENDBRANCH   1  23
TORSDOF 5
