REMARK  Name = ZINC00941175
REMARK  5 active torsions:
REMARK  status: ('A' for Active; 'I' for Inactive)
REMARK    1  A    between atoms: C_8  and  C_10
REMARK    2  A    between atoms: N_12  and  N_13
REMARK    3  A    between atoms: C_14  and  C_16
REMARK    4  A    between atoms: C_16  and  O_17
REMARK    5  A    between atoms: O_17  and  C_18
REMARK                            x       y       z     vdW  Elec       q    Type
REMARK                         _______ _______ _______ _____ _____    ______ ____
ROOT
ATOM      1  N   UNL     1       6.748   4.004  -0.041  0.00  0.00    -0.231 N 
ATOM      2  C   UNL     1       7.336   5.217  -0.040  0.00  0.00    +0.267 C 
ATOM      3  O   UNL     1       6.655   6.221  -0.029  0.00  0.00    -0.271 OA
ATOM      4  H   UNL     1       7.293   3.201  -0.050  0.00  0.00    +0.173 HD
ENDROOT
BRANCH   1   7
ATOM      5  C   UNL     1       4.764   2.689  -0.029  0.00  0.00    +0.295 C 
ATOM      6  O   UNL     1       5.447   1.683  -0.040  0.00  0.00    -0.265 OA
ATOM      7  N   UNL     1       5.351   3.902  -0.028  0.00  0.00    -0.228 N 
ATOM      8  H   UNL     1       4.806   4.705  -0.019  0.00  0.00    +0.173 HD
BRANCH   5  16
ATOM      9  C   UNL     1      -1.203   1.746   0.017  0.00  0.00    +0.001 A 
ATOM     10  C   UNL     1      -1.229   3.134   0.031  0.00  0.00    +0.004 A 
ATOM     11  C   UNL     1      -0.058   3.860   0.023  0.00  0.00    +0.047 A 
ATOM     12  C   UNL     1       1.165   3.201   0.008  0.00  0.00    +0.136 A 
ATOM     13  C   UNL     1       1.186   1.794   0.000  0.00  0.00    +0.021 A 
ATOM     14  C   UNL     1      -0.013   1.076   0.008  0.00  0.00    +0.011 A 
ATOM     15  C   UNL     1       2.599   1.418  -0.015  0.00  0.00    +0.063 A 
ATOM     16  C   UNL     1       3.298   2.583  -0.015  0.00  0.00    +0.192 A 
ATOM     17  O   UNL     1       2.443   3.627  -0.002  0.00  0.00    -0.450 OA
ENDBRANCH   5  16
ENDBRANCH   1   7
BRANCH   2  18
ATOM     18  C   UNL     1       8.839   5.327  -0.053  0.00  0.00    +0.326 C 
BRANCH  18  19
ATOM     19  O   UNL     1       9.216   6.705  -0.050  0.00  0.00    -0.482 OA
BRANCH  19  20
ATOM     20  C   UNL     1      10.547   6.980  -0.061  0.00  0.00    +0.135 A 
ATOM     21  C   UNL     1      11.470   5.945  -0.075  0.00  0.00    +0.048 A 
ATOM     22  C   UNL     1      12.823   6.227  -0.086  0.00  0.00    +0.019 A 
ATOM     23  C   UNL     1      13.257   7.541  -0.084  0.00  0.00    +0.019 A 
ATOM     24  C   UNL     1      12.338   8.575  -0.070  0.00  0.00    +0.034 A 
ATOM     25  C   UNL     1      10.984   8.298  -0.064  0.00  0.00    +0.061 A 
ATOM     26 BR   UNL     1       9.728   9.711  -0.054  0.00  0.00    -0.046 Br
ATOM     27 BR   UNL     1      15.109   7.924  -0.100  0.00  0.00    -0.050 Br
ENDBRANCH  19  20
ENDBRANCH  18  19
ENDBRANCH   2  18
TORSDOF 5
