REMARK  Name = ZINC16179209
REMARK  10 active torsions:
REMARK  status: ('A' for Active; 'I' for Inactive)
REMARK    1  A    between atoms: C_1  and  C_2
REMARK    2  A    between atoms: C_6  and  N_8
REMARK    3  A    between atoms: N_8  and  S_9
REMARK    4  A    between atoms: S_9  and  C_12
REMARK    5  A    between atoms: C_14  and  N_20
REMARK    6  A    between atoms: C_17  and  O_18
REMARK    7  A    between atoms: O_18  and  C_19
REMARK    8  A    between atoms: C_21  and  C_23
REMARK    9  A    between atoms: C_25  and  C_29
REMARK   10  A    between atoms: C_27  and  C_28
REMARK                            x       y       z     vdW  Elec       q    Type
REMARK                         _______ _______ _______ _____ _____    ______ ____
ROOT
ATOM      1  C   UNL     1       1.099  -0.705  -0.045  0.00  0.00    +0.152 A 
ATOM      2  C   UNL     1       1.926   0.395  -0.168  0.00  0.00    +0.055 A 
ATOM      3  C   UNL     1       1.379   1.662  -0.315  0.00  0.00    +0.036 A 
ATOM      4  C   UNL     1      -0.000   1.824  -0.338  0.00  0.00    +0.027 A 
ATOM      5  C   UNL     1      -0.826   0.724  -0.215  0.00  0.00    +0.049 A 
ATOM      6  C   UNL     1      -0.279  -0.542  -0.068  0.00  0.00    +0.147 A 
ENDROOT
BRANCH   3   7
ATOM      7  N   UNL     1       2.217   2.777  -0.439  0.00  0.00    -0.281 N 
ATOM      8  C   UNL     1       3.439   2.643  -0.991  0.00  0.00    +0.252 C 
ATOM      9  O   UNL     1       3.774   1.579  -1.476  0.00  0.00    -0.270 OA
ATOM     10  H   UNL     1       1.918   3.646  -0.128  0.00  0.00    +0.155 HD
BRANCH   8  11
ATOM     11  C   UNL     1       4.370   3.786  -1.007  0.00  0.00    +0.078 A 
ATOM     12  C   UNL     1       4.129   5.135  -0.476  0.00  0.00    +0.057 A 
ATOM     13  C   UNL     1       5.253   5.830  -0.711  0.00  0.00    +0.103 A 
ATOM     14  O   UNL     1       6.137   5.037  -1.336  0.00  0.00    -0.464 OA
ATOM     15  C   UNL     1       5.632   3.814  -1.524  0.00  0.00    +0.114 A 
ATOM     16  C   UNL     1       6.338   2.661  -2.191  0.00  0.00    +0.087 C 
ATOM     17  C   UNL     1       5.483   7.272  -0.339  0.00  0.00    +0.086 C 
ENDBRANCH   8  11
ENDBRANCH   3   7
BRANCH   1  18
ATOM     18  S   UNL     1       1.793  -2.313   0.142  0.00  0.00    +0.076 S 
ATOM     19  O   UNL     1       1.149  -3.147  -0.812  0.00  0.00    -0.150 OA
ATOM     20  O   UNL     1       3.204  -2.145   0.177  0.00  0.00    -0.150 OA
BRANCH  18  21
ATOM     21  N   UNL     1       1.345  -2.869   1.636  0.00  0.00    -0.215 N 
ATOM     22  H   UNL     1       0.724  -3.611   1.711  0.00  0.00    +0.174 HD
BRANCH  21  28
ATOM     23  C   UNL     1       3.033   1.138   3.928  0.00  0.00    +0.044 C 
ATOM     24  C   UNL     1       2.689  -0.330   3.928  0.00  0.00    -0.049 A 
ATOM     25  C   UNL     1       2.886  -1.085   5.069  0.00  0.00    +0.004 A 
ATOM     26  C   UNL     1       2.571  -2.431   5.074  0.00  0.00    +0.017 A 
ATOM     27  C   UNL     1       2.055  -3.026   3.938  0.00  0.00    +0.040 A 
ATOM     28  C   UNL     1       1.862  -2.271   2.788  0.00  0.00    +0.062 A 
ATOM     29  C   UNL     1       2.179  -0.918   2.787  0.00  0.00    +0.029 A 
ATOM     30 BR   UNL     1       1.618  -4.866   3.948  0.00  0.00    -0.048 Br
ENDBRANCH  21  28
ENDBRANCH  18  21
ENDBRANCH   1  18
BRANCH   6  31
ATOM     31  O   UNL     1      -1.092  -1.625   0.052  0.00  0.00    -0.493 OA
ATOM     32  C   UNL     1      -2.497  -1.374   0.136  0.00  0.00    +0.277 C 
ENDBRANCH   6  31
TORSDOF 6
