REMARK  Name = ZINC30822659
REMARK  9 active torsions:
REMARK  status: ('A' for Active; 'I' for Inactive)
REMARK    1  A    between atoms: C_1  and  C_2
REMARK    2  A    between atoms: C_2  and  C_3
REMARK    3  A    between atoms: C_2  and  C_4
REMARK    4  A    between atoms: C_4  and  C_6
REMARK    5  A    between atoms: C_4  and  N_18
REMARK    6  A    between atoms: N_8  and  C_9
REMARK    7  A    between atoms: C_19  and  C_21
REMARK    8  A    between atoms: C_26  and  C_27
REMARK    9  A    between atoms: N_29  and  C_30
REMARK                            x       y       z     vdW  Elec       q    Type
REMARK                         _______ _______ _______ _____ _____    ______ ____
ROOT
ATOM      1  N   UNL     1       7.216  -6.299   4.041  0.00  0.00    -0.300 N 
ATOM      2  C   UNL     1       7.171  -4.979   3.772  0.00  0.00    +0.247 C 
ATOM      3  O   UNL     1       6.151  -4.483   3.335  0.00  0.00    -0.270 OA
ATOM      4  H   UNL     1       8.139  -6.748   4.437  0.00  0.00    +0.150 HD
ENDROOT
BRANCH   2   5
ATOM      5  C   UNL     1       8.361  -4.135   4.010  0.00  0.00    +0.067 A 
ATOM      6  C   UNL     1       9.493  -4.661   4.630  0.00  0.00    +0.124 A 
ATOM      7  N   UNL     1      10.552  -3.909   4.848  0.00  0.00    -0.262 NA
ATOM      8  C   UNL     1      10.598  -2.641   4.490  0.00  0.00    +0.111 A 
ATOM      9  C   UNL     1       9.524  -2.034   3.863  0.00  0.00    +0.033 A 
ATOM     10  C   UNL     1       8.375  -2.783   3.607  0.00  0.00    +0.052 A 
BRANCH  10  11
ATOM     11  C   UNL     1       7.201  -2.175   2.938  0.00  0.00    +0.249 C 
ATOM     12  O   UNL     1       6.728  -2.698   1.948  0.00  0.00    -0.270 OA
ATOM     13  N   UNL     1       6.659  -1.043   3.426  0.00  0.00    -0.281 N 
ATOM     14  H   UNL     1       7.134  -0.526   4.273  0.00  0.00    +0.155 HD
BRANCH  13  15
ATOM     15  C   UNL     1       5.490  -0.524   2.857  0.00  0.00    +0.037 A 
ATOM     16  C   UNL     1       4.542   0.097   3.660  0.00  0.00    +0.027 A 
ATOM     17  C   UNL     1       3.388   0.609   3.100  0.00  0.00    +0.051 A 
ATOM     18  C   UNL     1       3.173   0.506   1.735  0.00  0.00    +0.166 A 
ATOM     19  C   UNL     1       4.121  -0.117   0.926  0.00  0.00    +0.168 A 
ATOM     20  C   UNL     1       5.277  -0.631   1.489  0.00  0.00    +0.072 A 
ATOM     21  O   UNL     1       3.678  -0.091  -0.365  0.00  0.00    -0.453 OA
ATOM     22  C   UNL     1       2.646   0.912  -0.398  0.00  0.00    +0.466 C 
ATOM     23  O   UNL     1       2.136   0.922   0.949  0.00  0.00    -0.453 OA
ENDBRANCH  13  15
ENDBRANCH  10  11
ENDBRANCH   2   5
BRANCH   1  24
ATOM     24  C   UNL     1       6.037  -7.136   3.806  0.00  0.00    +0.162 C 
BRANCH  24  25
ATOM     25  C   UNL     1       6.093  -8.347   4.701  0.00  0.00    +0.238 C 
ATOM     26  O   UNL     1       7.125  -8.632   5.270  0.00  0.00    -0.273 OA
ATOM     27  N   UNL     1       4.997  -9.112   4.870  0.00  0.00    -0.284 N 
ATOM     28  H   UNL     1       4.087  -8.905   4.287  0.00  0.00    +0.155 HD
BRANCH  27  29
ATOM     29  C   UNL     1       5.016 -10.171   5.787  0.00  0.00    +0.037 A 
ATOM     30  C   UNL     1       5.751 -10.060   6.959  0.00  0.00    +0.027 A 
ATOM     31  C   UNL     1       5.767 -11.102   7.867  0.00  0.00    +0.051 A 
ATOM     32  C   UNL     1       5.057 -12.263   7.606  0.00  0.00    +0.166 A 
ATOM     33  C   UNL     1       4.323 -12.379   6.428  0.00  0.00    +0.168 A 
ATOM     34  C   UNL     1       4.304 -11.332   5.521  0.00  0.00    +0.072 A 
ATOM     35  O   UNL     1       3.721 -13.604   6.407  0.00  0.00    -0.453 OA
ATOM     36  C   UNL     1       4.422 -14.393   7.387  0.00  0.00    +0.466 C 
ATOM     37  O   UNL     1       4.916 -13.417   8.323  0.00  0.00    -0.453 OA
ENDBRANCH  27  29
ENDBRANCH  24  25
BRANCH  24  39
ATOM     38  C   UNL     1       4.837  -8.538   2.121  0.00  0.00    +0.009 C 
ATOM     39  C   UNL     1       6.013  -7.584   2.343  0.00  0.00    +0.012 C 
ATOM     40  C   UNL     1       5.854  -6.361   1.438  0.00  0.00    +0.009 C 
ENDBRANCH  24  39
ENDBRANCH   1  24
TORSDOF 7
