REMARK  Name = ZINC00702394
REMARK  8 active torsions:
REMARK  status: ('A' for Active; 'I' for Inactive)
REMARK    1  A    between atoms: C_1  and  C_2
REMARK    2  A    between atoms: C_5  and  C_8
REMARK    3  A    between atoms: C_8  and  C_9
REMARK    4  A    between atoms: C_10  and  C_27
REMARK    5  A    between atoms: C_22  and  C_26
REMARK    6  A    between atoms: C_30  and  C_33
REMARK    7  A    between atoms: C_33  and  O_35
REMARK    8  A    between atoms: O_35  and  C_36
REMARK                            x       y       z     vdW  Elec       q    Type
REMARK                         _______ _______ _______ _____ _____    ______ ____
ROOT
ATOM      1  C   UNL     1       0.117  -5.100   1.201  0.00  0.00    +0.077 C 
ATOM      2  C   UNL     1       0.106  -4.576   2.618  0.00  0.00    +0.152 C 
ATOM      3  N   UNL     1       0.214  -5.752   3.489  0.00  0.00    -0.232 N 
ATOM      4  C   UNL     1       0.281  -6.843   2.705  0.00  0.00    +0.293 C 
ATOM      5  O   UNL     1       0.377  -7.986   3.107  0.00  0.00    -0.266 OA
ATOM      6  C   UNL     1       0.216  -6.448   1.283  0.00  0.00    +0.250 C 
ATOM      7  O   UNL     1       0.252  -7.297   0.231  0.00  0.00    -0.282 OA
ATOM      8  C   UNL     1       0.243  -5.740   4.872  0.00  0.00    +0.169 A 
ATOM      9  N   UNL     1       0.176  -4.714   5.689  0.00  0.00    -0.224 NA
ATOM     10  C   UNL     1       0.215  -4.851   7.032  0.00  0.00    +0.080 A 
ATOM     11  C   UNL     1       0.153  -3.837   8.015  0.00  0.00    +0.029 A 
ATOM     12  C   UNL     1       0.207  -4.150   9.348  0.00  0.00    +0.005 A 
ATOM     13  C   UNL     1       0.324  -5.464   9.780  0.00  0.00    -0.049 A 
ATOM     14  C   UNL     1       0.387  -6.481   8.846  0.00  0.00    +0.020 A 
ATOM     15  C   UNL     1       0.333  -6.177   7.509  0.00  0.00    +0.041 A 
ATOM     16  S   UNL     1       0.372  -7.119   6.003  0.00  0.00    -0.052 S 
ATOM     17  C   UNL     1       0.383  -5.778  11.253  0.00  0.00    +0.044 C 
ENDROOT
BRANCH   2  18
ATOM     18  C   UNL     1      -1.183  -3.846   2.891  0.00  0.00    -0.022 A 
ATOM     19  C   UNL     1      -2.317  -4.557   3.242  0.00  0.00    +0.006 A 
ATOM     20  C   UNL     1      -3.501  -3.895   3.493  0.00  0.00    +0.015 A 
ATOM     21  C   UNL     1      -3.553  -2.503   3.393  0.00  0.00    +0.059 A 
ATOM     22  C   UNL     1      -2.405  -1.792   3.038  0.00  0.00    +0.015 A 
ATOM     23  C   UNL     1      -1.227  -2.466   2.795  0.00  0.00    +0.006 A 
BRANCH  21  24
ATOM     24  C   UNL     1      -4.817  -1.788   3.660  0.00  0.00    +0.339 C 
ATOM     25  O   UNL     1      -5.814  -2.410   3.968  0.00  0.00    -0.245 OA
BRANCH  24  26
ATOM     26  O   UNL     1      -4.865  -0.445   3.562  0.00  0.00    -0.464 OA
ATOM     27  C   UNL     1      -6.120   0.182   3.835  0.00  0.00    +0.280 C 
ENDBRANCH  24  26
ENDBRANCH  21  24
ENDBRANCH   2  18
BRANCH   1  28
ATOM     28  C   UNL     1       0.029  -4.303  -0.026  0.00  0.00    +0.195 C 
ATOM     29  O   UNL     1      -0.954  -4.387  -0.738  0.00  0.00    -0.287 OA
BRANCH  28  34
ATOM     30  C   UNL     1       4.339  -0.776  -1.480  0.00  0.00    +0.044 C 
ATOM     31  C   UNL     1       3.210  -1.700  -1.099  0.00  0.00    -0.050 A 
ATOM     32  C   UNL     1       2.130  -1.855  -1.951  0.00  0.00    +0.004 A 
ATOM     33  C   UNL     1       1.094  -2.699  -1.609  0.00  0.00    +0.012 A 
ATOM     34  C   UNL     1       1.137  -3.397  -0.400  0.00  0.00    +0.022 A 
ATOM     35  C   UNL     1       2.230  -3.236   0.454  0.00  0.00    +0.012 A 
ATOM     36  C   UNL     1       3.261  -2.393   0.098  0.00  0.00    +0.004 A 
ENDBRANCH  28  34
ENDBRANCH   1  28
TORSDOF 5
