REMARK  Name = ZINC20437310
REMARK  7 active torsions:
REMARK  status: ('A' for Active; 'I' for Inactive)
REMARK    1  A    between atoms: C_3  and  C_8
REMARK    2  A    between atoms: C_8  and  O_9
REMARK    3  A    between atoms: O_9  and  C_10
REMARK    4  A    between atoms: C_13  and  C_16
REMARK    5  A    between atoms: C_19  and  C_30
REMARK    6  A    between atoms: C_25  and  N_29
REMARK    7  A    between atoms: C_26  and  C_27
REMARK                            x       y       z     vdW  Elec       q    Type
REMARK                         _______ _______ _______ _____ _____    ______ ____
ROOT
ATOM      1  C   UNL     1       8.895   5.279   2.031  0.00  0.00    +0.102 C 
ATOM      2  C   UNL     1       8.630   6.529   2.829  0.00  0.00    +0.054 A 
ATOM      3  C   UNL     1       7.977   7.703   2.442  0.00  0.00    +0.100 A 
ATOM      4  N   UNL     1       7.980   8.528   3.472  0.00  0.00    -0.171 NA
ATOM      5  N   UNL     1       8.636   7.897   4.541  0.00  0.00    -0.246 N 
ATOM      6  H   UNL     1       8.782   8.274   5.423  0.00  0.00    +0.192 HD
ATOM      7  C   UNL     1       9.027   6.675   4.126  0.00  0.00    +0.223 A 
ATOM      8  O   UNL     1       9.696   5.705   4.800  0.00  0.00    -0.423 OA
ATOM      9  C   UNL     1      10.209   4.686   4.083  0.00  0.00    +0.200 C 
ATOM     10  C   UNL     1       9.883   4.433   2.795  0.00  0.00    +0.098 C 
ENDROOT
BRANCH   3  11
ATOM     11  C   UNL     1       7.385   7.974   1.108  0.00  0.00    +0.003 A 
ATOM     12  C   UNL     1       7.990   7.468  -0.041  0.00  0.00    +0.011 A 
ATOM     13  C   UNL     1       7.436   7.723  -1.279  0.00  0.00    +0.020 A 
ATOM     14  C   UNL     1       6.281   8.480  -1.380  0.00  0.00    +0.041 A 
ATOM     15  C   UNL     1       5.677   8.986  -0.242  0.00  0.00    +0.020 A 
ATOM     16  C   UNL     1       6.221   8.732   1.001  0.00  0.00    +0.011 A 
ATOM     17 CL   UNL     1       5.590   8.798  -2.941  0.00  0.00    -0.084 Cl
ENDBRANCH   3  11
BRANCH   1  21
ATOM     18  C   UNL     1       5.252   3.110   1.494  0.00  0.00    +0.121 A 
ATOM     19  C   UNL     1       5.965   3.555   0.390  0.00  0.00    +0.046 A 
ATOM     20  C   UNL     1       7.143   4.256   0.566  0.00  0.00    +0.008 A 
ATOM     21  C   UNL     1       7.611   4.514   1.842  0.00  0.00    -0.034 A 
ATOM     22  C   UNL     1       6.902   4.072   2.943  0.00  0.00    +0.008 A 
ATOM     23  C   UNL     1       5.721   3.376   2.773  0.00  0.00    +0.046 A 
BRANCH  18  24
ATOM     24  O   UNL     1       4.094   2.421   1.323  0.00  0.00    -0.487 OA
BRANCH  24  25
ATOM     25  C   UNL     1       3.672   2.184  -0.021  0.00  0.00    +0.264 C 
BRANCH  25  28
ATOM     26  C   UNL     1      -0.017   1.378   0.010  0.00  0.00    +0.002 A 
ATOM     27  C   UNL     1       1.171   2.086   0.002  0.00  0.00    +0.007 A 
ATOM     28  C   UNL     1       2.378   1.412  -0.013  0.00  0.00    -0.009 A 
ATOM     29  C   UNL     1       2.398   0.029  -0.021  0.00  0.00    +0.027 A 
ATOM     30  C   UNL     1       1.210  -0.679  -0.013  0.00  0.00    +0.041 A 
ATOM     31  C   UNL     1       0.002  -0.004   0.002  0.00  0.00    +0.020 A 
ATOM     32 CL   UNL     1       1.234  -2.415  -0.024  0.00  0.00    -0.084 Cl
ENDBRANCH  25  28
ENDBRANCH  24  25
ENDBRANCH  18  24
ENDBRANCH   1  21
BRANCH   9  33
ATOM     33  N   UNL     1      11.115   3.856   4.695  0.00  0.00    -0.328 N 
ATOM     34  H   UNL     1      11.369   4.012   5.618  0.00  0.00    +0.145 HD
ATOM     35  H   UNL     1      11.502   3.114   4.204  0.00  0.00    +0.145 HD
ENDBRANCH   9  33
BRANCH  10  36
ATOM     36  C   UNL     1      10.497   3.321   2.132  0.00  0.00    +0.101 C 
ATOM     37  N   UNL     1      10.985   2.440   1.606  0.00  0.00    -0.191 NA
ENDBRANCH  10  36
TORSDOF 7
