REMARK  Name = ZINC39689848
REMARK  7 active torsions:
REMARK  status: ('A' for Active; 'I' for Inactive)
REMARK    1  A    between atoms: C_1  and  C_2
REMARK    2  A    between atoms: C_2  and  C_3
REMARK    3  A    between atoms: C_10  and  C_12
REMARK    4  A    between atoms: N_14  and  C_15
REMARK    5  A    between atoms: C_18  and  S_21
REMARK    6  A    between atoms: S_21  and  N_24
REMARK    7  A    between atoms: C_28  and  C_31
REMARK                            x       y       z     vdW  Elec       q    Type
REMARK                         _______ _______ _______ _____ _____    ______ ____
ROOT
ATOM      1  C   UNL     1      -9.126  -1.465  -3.504  0.00  0.00    +0.034 A 
ATOM      2  C   UNL     1      -9.117  -0.469  -4.472  0.00  0.00    +0.025 A 
ATOM      3  C   UNL     1     -10.228  -0.274  -5.270  0.00  0.00    +0.030 A 
ATOM      4  C   UNL     1     -11.348  -1.068  -5.104  0.00  0.00    +0.106 A 
ATOM      5  C   UNL     1     -11.360  -2.060  -4.141  0.00  0.00    +0.030 A 
ATOM      6  C   UNL     1     -10.250  -2.264  -3.344  0.00  0.00    +0.025 A 
ENDROOT
BRANCH   1   9
ATOM      7  C   UNL     1      -7.666  -2.911  -2.307  0.00  0.00    +0.255 C 
ATOM      8  O   UNL     1      -8.384  -3.852  -2.590  0.00  0.00    -0.269 OA
ATOM      9  N   UNL     1      -8.003  -1.665  -2.695  0.00  0.00    -0.281 N 
ATOM     10  H   UNL     1      -7.466  -0.908  -2.413  0.00  0.00    +0.155 HD
BRANCH   7  17
ATOM     11  C   UNL     1      -2.559  -5.112   0.507  0.00  0.00    -0.007 C 
ATOM     12  C   UNL     1      -2.477  -3.835   1.350  0.00  0.00    +0.009 C 
ATOM     13  C   UNL     1      -2.893  -2.642   0.479  0.00  0.00    +0.043 C 
ATOM     14  C   UNL     1      -4.170  -2.990  -0.226  0.00  0.00    -0.006 A 
ATOM     15  C   UNL     1      -4.714  -4.233  -0.361  0.00  0.00    -0.036 A 
ATOM     16  C   UNL     1      -5.911  -4.317  -1.057  0.00  0.00    +0.024 A 
ATOM     17  C   UNL     1      -6.434  -3.133  -1.545  0.00  0.00    +0.075 A 
ATOM     18  S   UNL     1      -5.217  -1.947  -1.004  0.00  0.00    -0.088 S 
ATOM     19  C   UNL     1      -4.022  -5.457   0.232  0.00  0.00    +0.039 C 
BRANCH  11  21
ATOM     20  C   UNL     1      -1.863  -7.508   0.375  0.00  0.00    +0.004 C 
ATOM     21  C   UNL     1      -1.898  -6.264   1.266  0.00  0.00    +0.000 C 
ENDBRANCH  11  21
ENDBRANCH   7  17
ENDBRANCH   1   9
BRANCH   4  22
ATOM     22  S   UNL     1     -12.763  -0.815  -6.123  0.00  0.00    +0.061 S 
ATOM     23  O   UNL     1     -13.877  -1.326  -5.405  0.00  0.00    -0.153 OA
ATOM     24  O   UNL     1     -12.701   0.530  -6.578  0.00  0.00    -0.153 OA
BRANCH  22  25
ATOM     25  N   UNL     1     -12.581  -1.775  -7.460  0.00  0.00    -0.176 NA
ATOM     26  C   UNL     1     -11.897  -1.269  -8.658  0.00  0.00    +0.109 C 
ATOM     27  C   UNL     1     -10.776  -2.244  -9.034  0.00  0.00    +0.018 C 
ATOM     28  C   UNL     1     -11.360  -3.650  -9.191  0.00  0.00    +0.017 C 
ATOM     29  C   UNL     1     -11.968  -4.103  -7.861  0.00  0.00    +0.118 C 
ATOM     30  C   UNL     1     -13.096  -3.151  -7.469  0.00  0.00    +0.124 C 
BRANCH  29  31
ATOM     31  C   UNL     1     -12.512  -5.500  -8.007  0.00  0.00    +0.360 C 
ATOM     32  O   UNL     1     -11.769  -6.415  -8.317  0.00  0.00    -0.246 OA
ATOM     33  O   UNL     1     -13.697  -5.716  -7.815  0.00  0.00    -0.246 OA
ENDBRANCH  29  31
ENDBRANCH  22  25
ENDBRANCH   4  22
TORSDOF 6
