REMARK  Name = ZINC23456673
REMARK  9 active torsions:
REMARK  status: ('A' for Active; 'I' for Inactive)
REMARK    1  A    between atoms: C_1  and  C_2
REMARK    2  A    between atoms: C_2  and  C_37
REMARK    3  A    between atoms: C_5  and  C_8
REMARK    4  A    between atoms: C_8  and  N_9
REMARK    5  A    between atoms: C_10  and  C_12
REMARK    6  A    between atoms: N_16  and  C_17
REMARK    7  A    between atoms: C_20  and  C_23
REMARK    8  A    between atoms: C_25  and  C_33
REMARK    9  A    between atoms: C_27  and  C_29
REMARK                            x       y       z     vdW  Elec       q    Type
REMARK                         _______ _______ _______ _____ _____    ______ ____
ROOT
ATOM      1  C   UNL     1      -1.099   2.229   0.129  0.00  0.00    +0.048 A 
ATOM      2  C   UNL     1      -1.185   3.165   1.152  0.00  0.00    +0.027 A 
ATOM      3  C   UNL     1      -2.275   4.005   1.230  0.00  0.00    +0.010 A 
ATOM      4  C   UNL     1      -3.297   3.908   0.287  0.00  0.00    -0.018 A 
ATOM      5  C   UNL     1      -3.212   2.965  -0.736  0.00  0.00    +0.010 A 
ATOM      6  C   UNL     1      -2.117   2.131  -0.813  0.00  0.00    +0.027 A 
ENDROOT
BRANCH   4   7
ATOM      7  C   UNL     1      -4.475   4.807   0.372  0.00  0.00    -0.017 A 
ATOM      8  C   UNL     1      -5.495   4.714  -0.573  0.00  0.00    +0.021 A 
ATOM      9  C   UNL     1      -6.590   5.549  -0.485  0.00  0.00    +0.056 A 
ATOM     10  C   UNL     1      -6.672   6.484   0.531  0.00  0.00    +0.024 A 
ATOM     11  C   UNL     1      -5.659   6.583   1.469  0.00  0.00    +0.056 A 
ATOM     12  C   UNL     1      -4.562   5.750   1.394  0.00  0.00    +0.021 A 
BRANCH  11  13
ATOM     13  C   UNL     1      -5.755   7.604   2.574  0.00  0.00    +0.417 C 
ATOM     14  F   UNL     1      -5.167   8.802   2.154  0.00  0.00    -0.166 F 
ATOM     15  F   UNL     1      -7.101   7.829   2.885  0.00  0.00    -0.166 F 
ATOM     16  F   UNL     1      -5.088   7.128   3.707  0.00  0.00    -0.166 F 
ENDBRANCH  11  13
BRANCH   9  17
ATOM     17  C   UNL     1      -7.698   5.446  -1.502  0.00  0.00    +0.417 C 
ATOM     18  F   UNL     1      -8.688   6.390  -1.211  0.00  0.00    -0.166 F 
ATOM     19  F   UNL     1      -7.182   5.690  -2.780  0.00  0.00    -0.166 F 
ATOM     20  F   UNL     1      -8.251   4.162  -1.460  0.00  0.00    -0.166 F 
ENDBRANCH   9  17
ENDBRANCH   4   7
BRANCH   1  25
ATOM     21  C   UNL     1       1.337   1.766  -0.037  0.00  0.00    +0.128 A 
ATOM     22  C   UNL     1       2.069   0.613  -0.100  0.00  0.00    +0.143 A 
ATOM     23  N   UNL     1       1.219  -0.413  -0.054  0.00  0.00    -0.243 NA
ATOM     24  C   UNL     1      -0.008   0.033   0.035  0.00  0.00    +0.204 A 
ATOM     25  N   UNL     1       0.012   1.381   0.049  0.00  0.00    -0.295 N 
BRANCH  21  27
ATOM     26  N   UNL     1       3.177   3.358  -0.199  0.00  0.00    -0.308 N 
ATOM     27  C   UNL     1       1.855   3.139  -0.058  0.00  0.00    +0.262 C 
ATOM     28  O   UNL     1       1.090   4.079   0.052  0.00  0.00    -0.269 OA
ATOM     29  H   UNL     1       3.860   2.513  -0.372  0.00  0.00    +0.149 HD
BRANCH  26  30
ATOM     30  C   UNL     1       3.706   4.722  -0.120  0.00  0.00    +0.138 C 
BRANCH  30  35
ATOM     31  C   UNL     1       8.161   3.677   0.084  0.00  0.00    +0.074 C 
ATOM     32  C   UNL     1       7.199   4.599   0.836  0.00  0.00    +0.165 C 
ATOM     33  O   UNL     1       7.173   5.886   0.204  0.00  0.00    -0.347 OA
ATOM     34  C   UNL     1       5.820   6.121  -0.234  0.00  0.00    +0.196 C 
ATOM     35  C   UNL     1       5.223   4.693  -0.311  0.00  0.00    +0.164 C 
ATOM     36  O   UNL     1       5.874   4.042   0.806  0.00  0.00    -0.342 OA
ATOM     37  C   UNL     1       7.659   4.748   2.287  0.00  0.00    +0.074 C 
ENDBRANCH  30  35
ENDBRANCH  26  30
ENDBRANCH  21  27
ENDBRANCH   1  25
TORSDOF 7
