REMARK  Name = ZINC03872834
REMARK  7 active torsions:
REMARK  status: ('A' for Active; 'I' for Inactive)
REMARK    1  A    between atoms: C_1  and  C_2
REMARK    2  A    between atoms: C_15  and  O_30
REMARK    3  A    between atoms: C_18  and  C_29
REMARK    4  A    between atoms: C_23  and  C_24
REMARK    5  A    between atoms: C_23  and  O_28
REMARK    6  A    between atoms: C_24  and  C_26
REMARK    7  A    between atoms: C_26  and  O_27
REMARK                            x       y       z     vdW  Elec       q    Type
REMARK                         _______ _______ _______ _____ _____    ______ ____
ROOT
ATOM      1  C   UNL     1      -0.019   1.538   0.011  0.00  0.00    +0.016 C 
ATOM      2  C   UNL     1       0.002  -0.004   0.002  0.00  0.00    -0.005 C 
ATOM      3  C   UNL     1       0.769  -0.375  -1.253  0.00  0.00    +0.019 C 
ATOM      4  C   UNL     1       2.244   0.027  -1.175  0.00  0.00    +0.080 C 
ATOM      5  C   UNL     1       2.845  -0.656   0.036  0.00  0.00    +0.156 C 
ATOM      6  O   UNL     1       3.959  -1.142  -0.004  0.00  0.00    -0.293 OA
ATOM      7  C   UNL     1       2.035  -0.709   1.255  0.00  0.00    +0.046 C 
ATOM      8  C   UNL     1       0.741  -0.380   1.243  0.00  0.00    -0.060 C 
ATOM      9  C   UNL     1       0.029  -0.350   2.581  0.00  0.00    +0.032 C 
ATOM     10  C   UNL     1      -1.307  -1.057   2.435  0.00  0.00    +0.008 C 
ATOM     11  C   UNL     1      -2.153  -0.459   1.320  0.00  0.00    -0.001 C 
ATOM     12  C   UNL     1      -1.448  -0.397  -0.023  0.00  0.00    +0.031 C 
ATOM     13  C   UNL     1      -1.854  -1.561  -0.905  0.00  0.00    +0.119 C 
ATOM     14  C   UNL     1      -3.342  -1.418  -1.309  0.00  0.00    +0.041 C 
ATOM     15  C   UNL     1      -4.156  -0.998  -0.116  0.00  0.00    +0.009 C 
ATOM     16  C   UNL     1      -3.403  -1.320   1.191  0.00  0.00    +0.002 C 
ATOM     17  C   UNL     1      -4.472  -1.038   2.262  0.00  0.00    +0.008 C 
ATOM     18  C   UNL     1      -5.810  -1.447   1.595  0.00  0.00    +0.043 C 
ATOM     19  C   UNL     1      -5.489  -1.730   0.104  0.00  0.00    +0.131 C 
ATOM     20  C   UNL     1      -4.475   0.502  -0.206  0.00  0.00    +0.015 C 
ENDROOT
BRANCH  19  21
ATOM     21  C   UNL     1      -5.367  -3.212  -0.111  0.00  0.00    +0.190 C 
ATOM     22  O   UNL     1      -4.321  -3.771   0.115  0.00  0.00    -0.292 OA
BRANCH  21  23
ATOM     23  C   UNL     1      -6.551  -4.002  -0.608  0.00  0.00    +0.233 C 
BRANCH  23  24
ATOM     24  O   UNL     1      -6.187  -5.378  -0.731  0.00  0.00    -0.387 OA
ATOM     25  H   UNL     1      -6.903  -5.947  -1.048  0.00  0.00    +0.210 HD
ENDBRANCH  23  24
ENDBRANCH  21  23
ENDBRANCH  19  21
BRANCH  19  26
ATOM     26  O   UNL     1      -6.501  -1.179  -0.736  0.00  0.00    -0.380 OA
ATOM     27  H   UNL     1      -7.365  -1.602  -0.640  0.00  0.00    +0.211 HD
ENDBRANCH  19  26
BRANCH  13  28
ATOM     28  O   UNL     1      -1.124  -1.618  -2.132  0.00  0.00    -0.391 OA
ATOM     29  H   UNL     1      -1.374  -2.357  -2.705  0.00  0.00    +0.210 HD
ENDBRANCH  13  28
TORSDOF 5
