REMARK  Name = ZINC15003056
REMARK  9 active torsions:
REMARK  status: ('A' for Active; 'I' for Inactive)
REMARK    1  A    between atoms: C_1  and  C_2
REMARK    2  A    between atoms: C_5  and  C_9
REMARK    3  A    between atoms: C_6  and  C_8
REMARK    4  A    between atoms: N_11  and  C_12
REMARK    5  A    between atoms: C_15  and  N_18
REMARK    6  A    between atoms: C_21  and  N_75
REMARK    7  A    between atoms: C_24  and  C_25
REMARK    8  A    between atoms: C_24  and  N_75
REMARK    9  A    between atoms: C_25  and  C_31
REMARK                            x       y       z     vdW  Elec       q    Type
REMARK                         _______ _______ _______ _____ _____    ______ ____
ROOT
ATOM      1  N   UNL     1      -0.190   0.245   5.190  0.00  0.00    -0.330 N 
ATOM      2  C   UNL     1       0.278   1.609   4.914  0.00  0.00    +0.103 C 
ATOM      3  C   UNL     1      -0.422   2.146   3.663  0.00  0.00    +0.003 C 
ATOM      4  C   UNL     1      -0.110   1.230   2.477  0.00  0.00    -0.069 C 
ATOM      5  C   UNL     1      -0.562  -0.195   2.808  0.00  0.00    +0.003 C 
ATOM      6  C   UNL     1       0.141  -0.664   4.085  0.00  0.00    +0.103 C 
ENDROOT
BRANCH   1  10
ATOM      7  C   UNL     1       1.359  -1.164   8.794  0.00  0.00    +0.034 A 
ATOM      8  C   UNL     1       0.519  -1.970   8.037  0.00  0.00    +0.025 A 
ATOM      9  C   UNL     1       0.006  -1.504   6.843  0.00  0.00    +0.025 A 
ATOM     10  C   UNL     1       0.330  -0.228   6.400  0.00  0.00    +0.030 A 
ATOM     11  C   UNL     1       1.174   0.576   7.155  0.00  0.00    +0.025 A 
ATOM     12  C   UNL     1       1.682   0.112   8.351  0.00  0.00    +0.025 A 
BRANCH   7  15
ATOM     13  C   UNL     1       2.082  -0.786  11.031  0.00  0.00    +0.249 C 
ATOM     14  O   UNL     1       1.725   0.372  10.938  0.00  0.00    -0.270 OA
ATOM     15  N   UNL     1       1.880  -1.637  10.006  0.00  0.00    -0.281 N 
ATOM     16  H   UNL     1       2.095  -2.578  10.106  0.00  0.00    +0.155 HD
BRANCH  13  21
ATOM     17  C   UNL     1       4.632  -2.636  15.846  0.00  0.00    +0.044 C 
ATOM     18  C   UNL     1       3.964  -2.152  14.585  0.00  0.00    -0.050 A 
ATOM     19  C   UNL     1       3.638  -3.054  13.588  0.00  0.00    +0.004 A 
ATOM     20  C   UNL     1       3.027  -2.617  12.431  0.00  0.00    +0.013 A 
ATOM     21  C   UNL     1       2.736  -1.262  12.268  0.00  0.00    +0.040 A 
ATOM     22  C   UNL     1       3.072  -0.356  13.276  0.00  0.00    -0.038 A 
ATOM     23  C   UNL     1       3.679  -0.807  14.430  0.00  0.00    +0.007 A 
ATOM     24  C   UNL     1       2.768   1.110  13.106  0.00  0.00    +0.044 C 
ENDBRANCH  13  21
ENDBRANCH   7  15
ENDBRANCH   1  10
BRANCH   4  25
ATOM     25  N   UNL     1      -0.835   1.713   1.287  0.00  0.00    +0.382 N 
ATOM     26  H   UNL     1      -0.875   2.739   1.307  0.00  0.00    -0.085 HD
ATOM     27  H   UNL     1      -1.789   1.334   1.294  0.00  0.00    -0.085 HD
BRANCH  25  28
ATOM     28  C   UNL     1      -0.148   1.277   0.056  0.00  0.00    -0.071 C 
BRANCH  28  29
ATOM     29  C   UNL     1      -0.921   1.792  -1.159  0.00  0.00    -0.015 C 
ATOM     30  C   UNL     1      -2.341   1.218  -1.144  0.00  0.00    +0.038 C 
ATOM     31  C   UNL     1      -2.269  -0.306  -1.266  0.00  0.00    +0.160 C 
ATOM     32  O   UNL     1      -1.574  -0.654  -2.465  0.00  0.00    -0.380 OA
ATOM     33  C   UNL     1      -0.225  -0.184  -2.515  0.00  0.00    +0.160 C 
ATOM     34  C   UNL     1      -0.215   1.345  -2.443  0.00  0.00    +0.038 C 
BRANCH  29  35
ATOM     35  C   UNL     1      -0.984   3.297  -1.117  0.00  0.00    -0.043 A 
ATOM     36  C   UNL     1      -0.392   3.984  -0.073  0.00  0.00    +0.004 A 
ATOM     37  C   UNL     1      -0.445   5.365  -0.036  0.00  0.00    +0.000 A 
ATOM     38  C   UNL     1      -1.098   6.059  -1.038  0.00  0.00    +0.000 A 
ATOM     39  C   UNL     1      -1.694   5.371  -2.079  0.00  0.00    +0.000 A 
ATOM     40  C   UNL     1      -1.637   3.991  -2.118  0.00  0.00    +0.004 A 
ENDBRANCH  29  35
ENDBRANCH  28  29
ENDBRANCH  25  28
ENDBRANCH   4  25
TORSDOF 7
