REMARK  Name = ZINC09382658
REMARK  9 active torsions:
REMARK  status: ('A' for Active; 'I' for Inactive)
REMARK    1  A    between atoms: C_1  and  C_2
REMARK    2  A    between atoms: C_5  and  S_8
REMARK    3  A    between atoms: S_8  and  N_11
REMARK    4  A    between atoms: N_11  and  C_12
REMARK    5  A    between atoms: C_12  and  C_14
REMARK    6  A    between atoms: C_12  and  C_15
REMARK    7  A    between atoms: C_15  and  C_17
REMARK    8  A    between atoms: C_15  and  N_60
REMARK    9  A    between atoms: N_24  and  C_27
REMARK                            x       y       z     vdW  Elec       q    Type
REMARK                         _______ _______ _______ _____ _____    ______ ____
ROOT
ATOM      1  C   UNL     1       1.656   7.548  -1.024  0.00  0.00    -0.012 C 
ENDROOT
BRANCH   1   7
ATOM      2  C   UNL     1       2.442   5.562   0.117  0.00  0.00    -0.059 C 
ATOM      3  C   UNL     1       2.408   4.032   0.098  0.00  0.00    +0.086 C 
ATOM      4  N   UNL     1       1.021   3.573   0.259  0.00  0.00    -0.333 N 
ATOM      5  C   UNL     1       0.169   4.093  -0.820  0.00  0.00    +0.086 C 
ATOM      6  C   UNL     1       0.203   5.623  -0.801  0.00  0.00    -0.059 C 
ATOM      7  N   UNL     1       1.600   6.071  -0.986  0.00  0.00    +0.388 N 
ATOM      8  H   UNL     1       1.954   5.700  -1.875  0.00  0.00    -0.081 HD
BRANCH   4   9
ATOM      9  C   UNL     1       0.958   2.178   0.319  0.00  0.00    +0.030 A 
ATOM     10  C   UNL     1      -0.267   1.543   0.470  0.00  0.00    +0.026 A 
ATOM     11  C   UNL     1      -0.327   0.164   0.528  0.00  0.00    +0.040 A 
ATOM     12  C   UNL     1       0.834  -0.585   0.436  0.00  0.00    +0.124 A 
ATOM     13  C   UNL     1       2.057   0.046   0.285  0.00  0.00    +0.040 A 
ATOM     14  C   UNL     1       2.122   1.425   0.227  0.00  0.00    +0.026 A 
ATOM     15  F   UNL     1       0.773  -1.933   0.494  0.00  0.00    -0.205 F 
ENDBRANCH   4   9
ENDBRANCH   1   7
BRANCH   1  16
ATOM     16  C   UNL     1       3.076   7.976  -1.296  0.00  0.00    -0.022 A 
ATOM     17  C   UNL     1       3.768   9.017  -0.773  0.00  0.00    +0.009 A 
ATOM     18  C   UNL     1       5.077   9.219  -1.170  0.00  0.00    +0.008 A 
ATOM     19  C   UNL     1       5.625   8.375  -2.078  0.00  0.00    +0.045 A 
ATOM     20  S   UNL     1       4.279   7.247  -2.395  0.00  0.00    -0.103 S 
ENDBRANCH   1  16
BRANCH   1  21
ATOM     21  C   UNL     1       0.748   8.051  -2.148  0.00  0.00    +0.065 C 
ATOM     22  C   UNL     1       0.826   9.578  -2.221  0.00  0.00    +0.024 C 
BRANCH  21  23
ATOM     23  N   UNL     1       1.185   7.478  -3.423  0.00  0.00    -0.188 NA
ATOM     24  H   UNL     1       2.129   7.329  -3.590  0.00  0.00    +0.148 HD
BRANCH  23  25
ATOM     25  S   UNL     1       0.068   7.085  -4.581  0.00  0.00    +0.059 S 
ATOM     26  O   UNL     1       0.796   6.585  -5.694  0.00  0.00    -0.153 OA
ATOM     27  O   UNL     1      -0.943   6.328  -3.929  0.00  0.00    -0.153 OA
BRANCH  25  32
ATOM     28  C   UNL     1      -2.522  12.228  -6.382  0.00  0.00    +0.044 C 
ATOM     29  C   UNL     1      -1.875  10.944  -5.932  0.00  0.00    -0.050 A 
ATOM     30  C   UNL     1      -0.743  10.479  -6.574  0.00  0.00    +0.005 A 
ATOM     31  C   UNL     1      -0.149   9.300  -6.161  0.00  0.00    +0.029 A 
ATOM     32  C   UNL     1      -0.688   8.587  -5.106  0.00  0.00    +0.105 A 
ATOM     33  C   UNL     1      -1.823   9.050  -4.468  0.00  0.00    +0.029 A 
ATOM     34  C   UNL     1      -2.414  10.231  -4.878  0.00  0.00    +0.005 A 
ENDBRANCH  25  32
ENDBRANCH  23  25
ENDBRANCH  21  23
ENDBRANCH   1  21
TORSDOF 7
