REMARK  Name = ZINC02401950
REMARK  10 active torsions:
REMARK  status: ('A' for Active; 'I' for Inactive)
REMARK    1  A    between atoms: C_1  and  C_2
REMARK    2  A    between atoms: C_5  and  N_8
REMARK    3  A    between atoms: C_9  and  C_11
REMARK    4  A    between atoms: C_11  and  N_66
REMARK    5  A    between atoms: C_14  and  O_33
REMARK    6  A    between atoms: C_21  and  C_23
REMARK    7  A    between atoms: C_26  and  O_31
REMARK    8  A    between atoms: C_27  and  O_29
REMARK    9  A    between atoms: O_29  and  C_30
REMARK   10  A    between atoms: O_31  and  C_32
REMARK                            x       y       z     vdW  Elec       q    Type
REMARK                         _______ _______ _______ _____ _____    ______ ____
ROOT
ATOM      1  C   UNL     1      -3.789   4.090  -1.269  0.00  0.00    -0.075 C 
ATOM      2  C   UNL     1      -3.158   3.871   0.108  0.00  0.00    +0.016 C 
ATOM      3  C   UNL     1      -3.145   2.365   0.435  0.00  0.00    +0.066 C 
ATOM      4  C   UNL     1      -2.474   2.118   1.785  0.00  0.00    +0.035 C 
ATOM      5  C   UNL     1      -1.038   2.644   1.738  0.00  0.00    +0.003 C 
ATOM      6  C   UNL     1      -0.269   1.890   0.650  0.00  0.00    +0.000 C 
ATOM      7  C   UNL     1      -0.933   2.136  -0.705  0.00  0.00    +0.005 C 
ATOM      8  C   UNL     1      -2.377   1.632  -0.668  0.00  0.00    +0.011 C 
ATOM      9  C   UNL     1      -3.040   1.910  -2.021  0.00  0.00    -0.031 C 
ATOM     10  N   UNL     1      -2.995   3.365  -2.284  0.00  0.00    +0.390 N 
ATOM     11  H   UNL     1      -2.020   3.682  -2.232  0.00  0.00    -0.080 HD
ENDROOT
BRANCH   9  12
ATOM     12  C   UNL     1      -2.283   1.192  -3.109  0.00  0.00    -0.057 A 
ATOM     13  C   UNL     1      -1.114   1.735  -3.609  0.00  0.00    +0.006 A 
ATOM     14  C   UNL     1      -0.416   1.081  -4.607  0.00  0.00    +0.049 A 
ATOM     15  C   UNL     1      -0.888  -0.122  -5.108  0.00  0.00    +0.161 A 
ATOM     16  C   UNL     1      -2.064  -0.668  -4.604  0.00  0.00    +0.162 A 
ATOM     17  C   UNL     1      -2.756  -0.010  -3.600  0.00  0.00    +0.051 A 
BRANCH  16  18
ATOM     18  O   UNL     1      -2.531  -1.848  -5.093  0.00  0.00    -0.491 OA
ATOM     19  C   UNL     1      -3.745  -2.349  -4.529  0.00  0.00    +0.277 C 
ENDBRANCH  16  18
BRANCH  15  20
ATOM     20  O   UNL     1      -0.202  -0.766  -6.090  0.00  0.00    -0.491 OA
ATOM     21  C   UNL     1       0.997  -0.146  -6.558  0.00  0.00    +0.277 C 
ENDBRANCH  15  20
ENDBRANCH   9  12
BRANCH   3  22
ATOM     22  O   UNL     1      -4.489   1.881   0.480  0.00  0.00    -0.388 OA
ATOM     23  H   UNL     1      -5.036   2.302   1.158  0.00  0.00    +0.210 HD
ENDBRANCH   3  22
BRANCH  10  24
ATOM     24  C   UNL     1      -3.522   3.650  -3.634  0.00  0.00    +0.020 C 
BRANCH  24  26
ATOM     25  N   UNL     1      -5.677   3.547  -4.844  0.00  0.00    -0.287 N 
ATOM     26  C   UNL     1      -4.973   3.256  -3.732  0.00  0.00    +0.201 C 
ATOM     27  O   UNL     1      -5.508   2.677  -2.810  0.00  0.00    -0.278 OA
ATOM     28  H   UNL     1      -5.232   3.943  -5.609  0.00  0.00    +0.155 HD
BRANCH  25  33
ATOM     29  C   UNL     1     -11.239   2.450  -5.048  0.00  0.00    +0.044 C 
ATOM     30  C   UNL     1      -9.762   2.742  -4.994  0.00  0.00    -0.050 A 
ATOM     31  C   UNL     1      -9.258   3.871  -5.612  0.00  0.00    +0.005 A 
ATOM     32  C   UNL     1      -7.904   4.141  -5.564  0.00  0.00    +0.023 A 
ATOM     33  C   UNL     1      -7.049   3.276  -4.894  0.00  0.00    +0.033 A 
ATOM     34  C   UNL     1      -7.557   2.140  -4.279  0.00  0.00    +0.023 A 
ATOM     35  C   UNL     1      -8.912   1.878  -4.326  0.00  0.00    +0.005 A 
ENDBRANCH  25  33
ENDBRANCH  24  26
ENDBRANCH  10  24
TORSDOF 7
