REMARK  Name = ZINC19664914
REMARK  6 active torsions:
REMARK  status: ('A' for Active; 'I' for Inactive)
REMARK    1  A    between atoms: C_1  and  C_2
REMARK    2  A    between atoms: C_5  and  O_29
REMARK    3  A    between atoms: C_6  and  N_8
REMARK    4  A    between atoms: C_10  and  C_15
REMARK    5  A    between atoms: N_17  and  C_18
REMARK    6  A    between atoms: O_29  and  C_30
REMARK                            x       y       z     vdW  Elec       q    Type
REMARK                         _______ _______ _______ _____ _____    ______ ____
ROOT
ATOM      1  C   UNL     1      -6.382   2.939   0.226  0.00  0.00    +0.222 C 
ATOM      2  O   UNL     1      -5.441   2.965  -0.539  0.00  0.00    -0.275 OA
ATOM      3  N   UNL     1      -7.617   2.659  -0.234  0.00  0.00    -0.285 N 
ATOM      4  H   UNL     1      -8.456   2.550   0.470  0.00  0.00    +0.155 HD
ENDROOT
BRANCH   3   5
ATOM      5  C   UNL     1      -7.834   2.506  -1.610  0.00  0.00    +0.037 A 
ATOM      6  C   UNL     1      -8.790   1.607  -2.066  0.00  0.00    +0.025 A 
ATOM      7  C   UNL     1      -9.007   1.454  -3.422  0.00  0.00    +0.029 A 
ATOM      8  C   UNL     1      -8.269   2.198  -4.328  0.00  0.00    +0.076 A 
ATOM      9  C   UNL     1      -7.309   3.101  -3.873  0.00  0.00    +0.144 A 
ATOM     10  C   UNL     1      -7.097   3.258  -2.515  0.00  0.00    +0.070 A 
ATOM     11  O   UNL     1      -6.592   3.825  -4.774  0.00  0.00    -0.481 OA
ATOM     12  C   UNL     1      -6.302   3.192  -6.023  0.00  0.00    +0.325 C 
ATOM     13  C   UNL     1      -7.551   2.542  -6.564  0.00  0.00    +0.255 C 
ATOM     14  O   UNL     1      -7.723   2.457  -7.761  0.00  0.00    -0.272 OA
ATOM     15  N   UNL     1      -8.477   2.055  -5.709  0.00  0.00    -0.280 N 
ATOM     16  H   UNL     1      -9.382   1.553  -6.080  0.00  0.00    +0.155 HD
ENDBRANCH   3   5
BRANCH   1  19
ATOM     17  N   UNL     1      -4.224   2.022   2.417  0.00  0.00    -0.267 N 
ATOM     18  C   UNL     1      -4.666   3.364   2.021  0.00  0.00    +0.127 C 
ATOM     19  C   UNL     1      -6.170   3.220   1.691  0.00  0.00    +0.102 C 
ATOM     20  C   UNL     1      -6.564   1.997   2.552  0.00  0.00    +0.110 C 
ATOM     21  C   UNL     1      -5.269   1.236   2.729  0.00  0.00    +0.221 C 
ATOM     22  O   UNL     1      -5.186   0.084   3.100  0.00  0.00    -0.275 OA
BRANCH  17  28
ATOM     23  C   UNL     1      -0.319   0.030   0.190  0.00  0.00    +0.044 C 
ATOM     24  C   UNL     1      -0.966   0.645   1.404  0.00  0.00    -0.048 A 
ATOM     25  C   UNL     1      -0.237   0.805   2.568  0.00  0.00    +0.007 A 
ATOM     26  C   UNL     1      -0.825   1.369   3.684  0.00  0.00    +0.048 A 
ATOM     27  C   UNL     1      -2.149   1.775   3.639  0.00  0.00    +0.141 A 
ATOM     28  C   UNL     1      -2.885   1.613   2.468  0.00  0.00    +0.078 A 
ATOM     29  C   UNL     1      -2.285   1.052   1.349  0.00  0.00    +0.030 A 
BRANCH  27  30
ATOM     30  O   UNL     1      -2.730   2.329   4.737  0.00  0.00    -0.493 OA
ATOM     31  C   UNL     1      -1.915   2.463   5.904  0.00  0.00    +0.277 C 
ENDBRANCH  27  30
ENDBRANCH  17  28
ENDBRANCH   1  19
TORSDOF 4
