REMARK  Name = ZINC12451383
REMARK  9 active torsions:
REMARK  status: ('A' for Active; 'I' for Inactive)
REMARK    1  A    between atoms: C_1  and  C_2
REMARK    2  A    between atoms: C_2  and  C_32
REMARK    3  A    between atoms: C_7  and  C_11
REMARK    4  A    between atoms: C_11  and  N_60
REMARK    5  A    between atoms: C_13  and  N_22
REMARK    6  A    between atoms: C_16  and  C_18
REMARK    7  A    between atoms: C_18  and  O_20
REMARK    8  A    between atoms: O_20  and  C_21
REMARK    9  A    between atoms: N_25  and  C_26
REMARK                            x       y       z     vdW  Elec       q    Type
REMARK                         _______ _______ _______ _____ _____    ______ ____
ROOT
ATOM      1  C   UNL     1      -0.837   4.168   3.268  0.00  0.00    -0.055 C 
ATOM      2  C   UNL     1      -0.762   5.533   3.986  0.00  0.00    +0.057 C 
ATOM      3  C   UNL     1      -2.229   5.923   4.261  0.00  0.00    +0.016 C 
ATOM      4  C   UNL     1      -3.067   4.761   3.685  0.00  0.00    +0.045 C 
ATOM      5  N   UNL     1      -2.184   4.162   2.687  0.00  0.00    +0.392 N 
ATOM      6  H   UNL     1      -2.198   4.721   1.826  0.00  0.00    -0.080 HD
ENDROOT
BRANCH   2   7
ATOM      7  N   UNL     1      -0.025   5.407   5.246  0.00  0.00    -0.298 N 
ATOM      8  C   UNL     1       1.312   5.575   5.264  0.00  0.00    +0.304 C 
ATOM      9  O   UNL     1       1.907   5.831   4.235  0.00  0.00    -0.253 OA
ATOM     10  N   UNL     1       1.990   5.460   6.423  0.00  0.00    -0.269 N 
ATOM     11  H   UNL     1      -0.499   5.203   6.067  0.00  0.00    +0.150 HD
ATOM     12  H   UNL     1       1.510   5.322   7.255  0.00  0.00    +0.156 HD
BRANCH  10  13
ATOM     13  C   UNL     1       3.388   5.538   6.428  0.00  0.00    +0.035 A 
ATOM     14  C   UNL     1       4.125   4.768   7.317  0.00  0.00    +0.023 A 
ATOM     15  C   UNL     1       5.504   4.844   7.316  0.00  0.00    +0.002 A 
ATOM     16  C   UNL     1       6.150   5.693   6.436  0.00  0.00    +0.000 A 
ATOM     17  C   UNL     1       5.418   6.465   5.552  0.00  0.00    +0.002 A 
ATOM     18  C   UNL     1       4.039   6.390   5.545  0.00  0.00    +0.023 A 
ENDBRANCH  10  13
ENDBRANCH   2   7
BRANCH   4  19
ATOM     19  C   UNL     1      -4.329   5.287   3.051  0.00  0.00    +0.293 C 
ATOM     20  O   UNL     1      -4.503   5.168   1.861  0.00  0.00    -0.253 OA
BRANCH  19  21
ATOM     21  O   UNL     1      -5.260   5.889   3.808  0.00  0.00    -0.469 OA
ATOM     22  C   UNL     1      -6.450   6.371   3.130  0.00  0.00    +0.280 C 
ENDBRANCH  19  21
ENDBRANCH   4  19
BRANCH   5  23
ATOM     23  C   UNL     1      -2.611   2.763   2.371  0.00  0.00    -0.046 C 
BRANCH  23  29
ATOM     24  C   UNL     1      -0.145   3.914  -0.366  0.00  0.00    +0.012 C 
ATOM     25  C   UNL     1      -1.164   3.058  -1.120  0.00  0.00    -0.025 C 
ATOM     26  C   UNL     1      -0.779   1.571  -1.216  0.00  0.00    -0.000 C 
ATOM     27  C   UNL     1      -0.041   1.066   0.031  0.00  0.00    +0.031 C 
ATOM     28  C   UNL     1      -0.742   1.562   1.272  0.00  0.00    -0.029 C 
ATOM     29  C   UNL     1      -1.867   2.252   1.164  0.00  0.00    -0.086 C 
ATOM     30  C   UNL     1      -2.364   2.530  -0.244  0.00  0.00    +0.019 C 
ATOM     31  C   UNL     1      -2.288   1.266  -1.122  0.00  0.00    +0.012 C 
ATOM     32  C   UNL     1      -1.599   3.673  -2.452  0.00  0.00    +0.012 C 
ENDBRANCH  23  29
ENDBRANCH   5  23
TORSDOF 6
