REMARK  Name = ZINC21399563
REMARK  8 active torsions:
REMARK  status: ('A' for Active; 'I' for Inactive)
REMARK    1  A    between atoms: C_1  and  C_2
REMARK    2  A    between atoms: C_2  and  C_4
REMARK    3  A    between atoms: C_2  and  S_20
REMARK    4  A    between atoms: N_9  and  C_10
REMARK    5  A    between atoms: S_20  and  C_21
REMARK    6  A    between atoms: N_26  and  C_27
REMARK    7  A    between atoms: C_31  and  O_33
REMARK    8  A    between atoms: O_33  and  C_34
REMARK                            x       y       z     vdW  Elec       q    Type
REMARK                         _______ _______ _______ _____ _____    ______ ____
ROOT
ATOM      1  C   UNL     1       6.084   7.340   1.720  0.00  0.00    +0.029 C 
ATOM      2  C   UNL     1       5.940   8.216   0.473  0.00  0.00    +0.136 C 
ENDROOT
BRANCH   2   3
ATOM      3  C   UNL     1       7.018   9.269   0.471  0.00  0.00    +0.233 C 
ATOM      4  O   UNL     1       6.790  10.372   0.919  0.00  0.00    -0.274 OA
ATOM      5  N   UNL     1       8.237   8.983  -0.029  0.00  0.00    -0.239 N 
ATOM      6  C   UNL     1       9.202   9.925  -0.031  0.00  0.00    +0.306 C 
ATOM      7  O   UNL     1       8.973  11.030   0.418  0.00  0.00    -0.252 OA
ATOM      8  N   UNL     1      10.420   9.639  -0.531  0.00  0.00    -0.294 N 
ATOM      9  H   UNL     1       8.444   7.983  -0.435  0.00  0.00    +0.159 HD
ATOM     10  H   UNL     1      10.628   8.638  -0.937  0.00  0.00    +0.151 HD
BRANCH   8  11
ATOM     11  C   UNL     1      11.469  10.662  -0.533  0.00  0.00    +0.037 C 
ATOM     12  C   UNL     1      11.005  11.867  -1.355  0.00  0.00    +0.029 C 
ATOM     13  C   UNL     1      12.100  12.935  -1.357  0.00  0.00    -0.008 C 
ATOM     14  C   UNL     1      13.375  12.357  -1.975  0.00  0.00    +0.007 C 
ATOM     15  C   UNL     1      13.839  11.153  -1.153  0.00  0.00    -0.008 C 
ATOM     16  C   UNL     1      12.744  10.084  -1.151  0.00  0.00    +0.029 C 
ATOM     17  C   UNL     1      14.123  11.595   0.284  0.00  0.00    +0.007 C 
ATOM     18  C   UNL     1      12.849  12.173   0.901  0.00  0.00    -0.008 C 
ATOM     19  C   UNL     1      12.384  13.377   0.080  0.00  0.00    +0.007 C 
ATOM     20  C   UNL     1      11.753  11.104   0.904  0.00  0.00    +0.029 C 
ENDBRANCH   8  11
ENDBRANCH   2   3
BRANCH   2  21
ATOM     21  S   UNL     1       4.313   9.018   0.484  0.00  0.00    -0.084 S 
BRANCH  21  22
ATOM     22  C   UNL     1       3.176   7.680   0.337  0.00  0.00    +0.161 A 
ATOM     23  N   UNL     1       3.417   6.386   0.239  0.00  0.00    -0.133 NA
ATOM     24  N   UNL     1       2.368   5.501   0.138  0.00  0.00    -0.125 NA
ATOM     25  C   UNL     1       1.129   5.951   0.127  0.00  0.00    +0.187 A 
ATOM     26  S   UNL     1       1.391   7.711   0.279  0.00  0.00    -0.024 S 
ATOM     27  N   UNL     1      -0.064   5.243   0.029  0.00  0.00    -0.292 N 
ATOM     28  H   UNL     1      -1.025   5.768   0.134  0.00  0.00    +0.154 HD
BRANCH  27  29
ATOM     29  C   UNL     1      -0.042   3.865  -0.203  0.00  0.00    +0.036 A 
ATOM     30  C   UNL     1      -1.103   3.072   0.218  0.00  0.00    +0.023 A 
ATOM     31  C   UNL     1      -1.081   1.710  -0.011  0.00  0.00    +0.005 A 
ATOM     32  C   UNL     1      -0.006   1.133  -0.659  0.00  0.00    +0.046 A 
ATOM     33  C   UNL     1       1.059   1.919  -1.077  0.00  0.00    +0.122 A 
ATOM     34  C   UNL     1       1.039   3.287  -0.854  0.00  0.00    +0.069 A 
BRANCH  33  35
ATOM     35  O   UNL     1       2.118   1.349  -1.710  0.00  0.00    -0.495 OA
ATOM     36  C   UNL     1       2.069  -0.065  -1.911  0.00  0.00    +0.277 C 
ENDBRANCH  33  35
ENDBRANCH  27  29
ENDBRANCH  21  22
ENDBRANCH   2  21
TORSDOF 6
