REMARK  Name = ZINC37201062
REMARK  4 active torsions:
REMARK  status: ('A' for Active; 'I' for Inactive)
REMARK    1  A    between atoms: C_9  and  N_12
REMARK    2  A    between atoms: N_12  and  C_13
REMARK    3  A    between atoms: C_17  and  S_19
REMARK    4  A    between atoms: S_19  and  N_22
REMARK                            x       y       z     vdW  Elec       q    Type
REMARK                         _______ _______ _______ _____ _____    ______ ____
ROOT
ATOM      1  N   UNL     1       4.872  -2.834   0.137  0.00  0.00    -0.341 N 
ATOM      2  H   UNL     1       5.009  -3.318  -0.692  0.00  0.00    +0.146 HD
ENDROOT
BRANCH   1  11
ATOM      3  C   UNL     1      -0.017   1.375   0.010  0.00  0.00    +0.000 A 
ATOM      4  C   UNL     1       1.174   2.078   0.002  0.00  0.00    +0.000 A 
ATOM      5  C   UNL     1       2.372   1.395  -0.016  0.00  0.00    +0.004 A 
ATOM      6  C   UNL     1       2.393   0.006  -0.025  0.00  0.00    -0.042 A 
ATOM      7  C   UNL     1       1.208  -0.694  -0.013  0.00  0.00    -0.044 A 
ATOM      8  C   UNL     1       0.002  -0.004   0.002  0.00  0.00    +0.004 A 
ATOM      9  C   UNL     1       1.155  -2.199  -0.005  0.00  0.00    +0.037 C 
ATOM     10  C   UNL     1       2.493  -2.786  -0.452  0.00  0.00    +0.027 C 
ATOM     11  C   UNL     1       3.607  -2.135   0.376  0.00  0.00    +0.075 C 
ATOM     12  C   UNL     1       3.736  -0.675  -0.053  0.00  0.00    +0.057 C 
ENDBRANCH   1  11
BRANCH   1  13
ATOM     13  C   UNL     1       5.880  -2.804   1.103  0.00  0.00    +0.029 A 
ATOM     14  C   UNL     1       5.683  -2.116   2.294  0.00  0.00    +0.023 A 
ATOM     15  C   UNL     1       6.682  -2.088   3.247  0.00  0.00    +0.004 A 
ATOM     16  C   UNL     1       7.878  -2.744   3.017  0.00  0.00    +0.028 A 
ATOM     17  C   UNL     1       8.077  -3.429   1.833  0.00  0.00    +0.107 A 
ATOM     18  C   UNL     1       7.080  -3.466   0.878  0.00  0.00    +0.051 A 
BRANCH  17  19
ATOM     19  S   UNL     1       9.603  -4.263   1.545  0.00  0.00    +0.056 S 
ATOM     20  O   UNL     1       9.747  -4.371   0.136  0.00  0.00    -0.153 OA
ATOM     21  O   UNL     1      10.575  -3.625   2.363  0.00  0.00    -0.153 OA
BRANCH  19  22
ATOM     22  N   UNL     1       9.436  -5.805   2.124  0.00  0.00    -0.204 NA
ATOM     23  H   UNL     1       8.599  -6.083   2.528  0.00  0.00    +0.144 HD
ATOM     24  H   UNL     1      10.175  -6.430   2.059  0.00  0.00    +0.144 HD
ENDBRANCH  19  22
ENDBRANCH  17  19
ENDBRANCH   1  13
TORSDOF 4
