REMARK  Name = ZINC00907322
REMARK  5 active torsions:
REMARK  status: ('A' for Active; 'I' for Inactive)
REMARK    1  A    between atoms: C_1  and  C_2
REMARK    2  A    between atoms: C_4  and  C_22
REMARK    3  A    between atoms: C_8  and  N_21
REMARK    4  A    between atoms: C_9  and  C_11
REMARK    5  A    between atoms: C_18  and  C_20
REMARK                            x       y       z     vdW  Elec       q    Type
REMARK                         _______ _______ _______ _____ _____    ______ ____
ROOT
ATOM      1  C   UNL     1       1.550   4.850   6.828  0.00  0.00    +0.044 C 
ATOM      2  C   UNL     1       1.692   3.416   6.387  0.00  0.00    -0.037 A 
ATOM      3  C   UNL     1       2.477   2.541   7.101  0.00  0.00    +0.027 A 
ATOM      4  C   UNL     1       2.606   1.222   6.693  0.00  0.00    +0.040 A 
ATOM      5  N   UNL     1       1.978   0.790   5.617  0.00  0.00    -0.245 NA
ATOM      6  C   UNL     1       1.215   1.589   4.901  0.00  0.00    +0.111 A 
ATOM      7  C   UNL     1       1.018   2.949   5.232  0.00  0.00    +0.032 A 
ATOM      8  C   UNL     1       0.143   3.683   4.331  0.00  0.00    +0.054 A 
ATOM      9  C   UNL     1      -0.405   3.012   3.260  0.00  0.00    +0.097 A 
ATOM     10  S   UNL     1       0.237   1.359   3.437  0.00  0.00    -0.062 S 
ATOM     11  C   UNL     1       3.470   0.275   7.485  0.00  0.00    +0.065 C 
ENDROOT
BRANCH   9  12
ATOM     12  C   UNL     1      -1.276   3.514   2.261  0.00  0.00    +0.255 C 
ATOM     13  O   UNL     1      -1.047   4.589   1.738  0.00  0.00    -0.269 OA
ATOM     14  N   UNL     1      -2.358   2.801   1.890  0.00  0.00    -0.294 N 
ATOM     15  C   UNL     1      -2.709   1.556   2.588  0.00  0.00    +0.108 C 
ATOM     16  C   UNL     1      -2.851   0.435   1.555  0.00  0.00    +0.019 C 
ATOM     17  C   UNL     1      -3.856   0.859   0.481  0.00  0.00    +0.003 C 
ATOM     18  C   UNL     1      -3.344   2.112  -0.233  0.00  0.00    +0.022 C 
ATOM     19  C   UNL     1      -3.208   3.253   0.780  0.00  0.00    +0.073 C 
ATOM     20  C   UNL     1      -2.566   4.466   0.104  0.00  0.00    +0.028 C 
ENDBRANCH   9  12
BRANCH   8  21
ATOM     21  N   UNL     1      -0.132   5.027   4.545  0.00  0.00    -0.356 N 
ATOM     22  H   UNL     1      -0.141   5.382   5.447  0.00  0.00    +0.142 HD
ATOM     23  H   UNL     1      -0.316   5.610   3.792  0.00  0.00    +0.142 HD
ENDBRANCH   8  21
TORSDOF 2
