REMARK  Name = ZINC12378220
REMARK  7 active torsions:
REMARK  status: ('A' for Active; 'I' for Inactive)
REMARK    1  A    between atoms: C_1  and  C_2
REMARK    2  A    between atoms: C_2  and  C_3
REMARK    3  A    between atoms: N_9  and  S_10
REMARK    4  A    between atoms: S_10  and  C_13
REMARK    5  A    between atoms: C_16  and  C_19
REMARK    6  A    between atoms: N_21  and  C_22
REMARK    7  A    between atoms: C_23  and  C_31
REMARK                            x       y       z     vdW  Elec       q    Type
REMARK                         _______ _______ _______ _____ _____    ______ ____
ROOT
ATOM      1  C   UNL     1       8.727   2.486  -0.628  0.00  0.00    +0.249 C 
ATOM      2  O   UNL     1       9.011   3.449  -1.313  0.00  0.00    -0.270 OA
ATOM      3  N   UNL     1       9.613   1.482  -0.476  0.00  0.00    -0.275 N 
ATOM      4  H   UNL     1       9.387   0.714   0.071  0.00  0.00    +0.156 HD
ENDROOT
BRANCH   3   5
ATOM      5  C   UNL     1      10.848   1.548  -1.101  0.00  0.00    +0.085 A 
ATOM      6  C   UNL     1      11.883   0.624  -1.065  0.00  0.00    +0.068 A 
ATOM      7  C   UNL     1      13.088   0.935  -1.816  0.00  0.00    -0.023 A 
ATOM      8  C   UNL     1      13.065   2.112  -2.477  0.00  0.00    -0.004 A 
ATOM      9  S   UNL     1      11.472   2.800  -2.123  0.00  0.00    -0.077 S 
ATOM     10  C   UNL     1      14.154   2.693  -3.326  0.00  0.00    +0.043 C 
ATOM     11  C   UNL     1      15.453   1.927  -3.035  0.00  0.00    +0.005 C 
ATOM     12  C   UNL     1      15.161   0.425  -3.081  0.00  0.00    +0.005 C 
ATOM     13  C   UNL     1      14.307   0.024  -1.877  0.00  0.00    +0.037 C 
BRANCH   6  14
ATOM     14  C   UNL     1      11.765  -0.621  -0.298  0.00  0.00    +0.244 C 
ATOM     15  O   UNL     1      11.314  -1.620  -0.826  0.00  0.00    -0.270 OA
ATOM     16  N   UNL     1      12.157  -0.658   0.991  0.00  0.00    -0.325 N 
ATOM     17  H   UNL     1      12.517   0.139   1.411  0.00  0.00    +0.145 HD
ATOM     18  H   UNL     1      12.079  -1.481   1.498  0.00  0.00    +0.145 HD
ENDBRANCH   6  14
ENDBRANCH   3   5
BRANCH   1  22
ATOM     19  C   UNL     1       4.941   2.284   1.286  0.00  0.00    +0.106 A 
ATOM     20  C   UNL     1       5.851   1.254   1.449  0.00  0.00    +0.029 A 
ATOM     21  C   UNL     1       7.080   1.311   0.826  0.00  0.00    +0.015 A 
ATOM     22  C   UNL     1       7.410   2.416   0.038  0.00  0.00    +0.037 A 
ATOM     23  C   UNL     1       6.489   3.454  -0.117  0.00  0.00    +0.015 A 
ATOM     24  C   UNL     1       5.261   3.382   0.508  0.00  0.00    +0.029 A 
BRANCH  19  25
ATOM     25  S   UNL     1       3.370   2.200   2.080  0.00  0.00    +0.061 S 
ATOM     26  O   UNL     1       2.840   3.518   2.072  0.00  0.00    -0.153 OA
ATOM     27  O   UNL     1       3.561   1.463   3.280  0.00  0.00    -0.153 OA
BRANCH  25  33
ATOM     28  C   UNL     1       1.706   1.885  -0.043  0.00  0.00    +0.080 C 
ATOM     29  C   UNL     1       0.204   1.601   0.062  0.00  0.00    +0.021 C 
ATOM     30  C   UNL     1      -0.017   0.093   0.209  0.00  0.00    +0.003 C 
ATOM     31  C   UNL     1       0.658  -0.400   1.490  0.00  0.00    +0.017 C 
ATOM     32  C   UNL     1       2.165  -0.139   1.402  0.00  0.00    +0.110 C 
ATOM     33  N   UNL     1       2.382   1.286   1.116  0.00  0.00    -0.174 NA
BRANCH  28  35
ATOM     34  C   UNL     1       1.417   3.988  -1.360  0.00  0.00    +0.005 C 
ATOM     35  C   UNL     1       1.942   3.396  -0.051  0.00  0.00    +0.017 C 
ENDBRANCH  28  35
ENDBRANCH  25  33
ENDBRANCH  19  25
ENDBRANCH   1  22
TORSDOF 6
