REMARK  Name = ZINC45683796
REMARK  4 active torsions:
REMARK  status: ('A' for Active; 'I' for Inactive)
REMARK    1  A    between atoms: C_4  and  N_7
REMARK    2  A    between atoms: C_10  and  C_12
REMARK    3  A    between atoms: N_14  and  N_15
REMARK    4  A    between atoms: C_16  and  C_18
REMARK                            x       y       z     vdW  Elec       q    Type
REMARK                         _______ _______ _______ _____ _____    ______ ____
ROOT
ATOM      1  C   UNL     1       7.033  -1.013  -1.005  0.00  0.00    +0.281 C 
ATOM      2  O   UNL     1       7.847  -1.883  -0.765  0.00  0.00    -0.267 OA
ATOM      3  N   UNL     1       7.381   0.046  -1.762  0.00  0.00    -0.229 N 
ATOM      4  H   UNL     1       6.732   0.741  -1.953  0.00  0.00    +0.173 HD
ENDROOT
BRANCH   1   8
ATOM      5  N   UNL     1       3.623  -0.652  -0.037  0.00  0.00    -0.236 N 
ATOM      6  C   UNL     1       3.864  -1.835   0.590  0.00  0.00    +0.049 A 
ATOM      7  C   UNL     1       5.150  -2.160   0.338  0.00  0.00    +0.006 A 
ATOM      8  C   UNL     1       5.661  -1.116  -0.466  0.00  0.00    +0.152 A 
ATOM      9  N   UNL     1       4.680  -0.254  -0.649  0.00  0.00    -0.161 NA
ATOM     10  C   UNL     1       5.504  -3.469   1.002  0.00  0.00    +0.040 C 
ATOM     11  C   UNL     1       4.393  -3.699   2.050  0.00  0.00    +0.011 C 
ATOM     12  C   UNL     1       3.216  -2.896   1.451  0.00  0.00    +0.056 C 
BRANCH   5  16
ATOM     13  C   UNL     1      -0.017   1.379   0.010  0.00  0.00    +0.000 A 
ATOM     14  C   UNL     1       1.170   2.089   0.002  0.00  0.00    +0.002 A 
ATOM     15  C   UNL     1       2.377   1.419  -0.013  0.00  0.00    +0.028 A 
ATOM     16  C   UNL     1       2.400   0.031  -0.021  0.00  0.00    +0.066 A 
ATOM     17  C   UNL     1       1.207  -0.680  -0.013  0.00  0.00    +0.028 A 
ATOM     18  C   UNL     1       0.002  -0.004   0.002  0.00  0.00    +0.002 A 
ENDBRANCH   5  16
ENDBRANCH   1   8
BRANCH   3  19
ATOM     19  N   UNL     1       8.682   0.144  -2.272  0.00  0.00    -0.231 N 
ATOM     20  C   UNL     1       9.031   1.203  -3.029  0.00  0.00    +0.273 C 
ATOM     21  O   UNL     1       8.219   2.072  -3.268  0.00  0.00    -0.270 OA
ATOM     22  H   UNL     1       9.332  -0.550  -2.081  0.00  0.00    +0.173 HD
BRANCH  20  23
ATOM     23  C   UNL     1      10.431   1.309  -3.579  0.00  0.00    +0.297 C 
ATOM     24  C   UNL     1      11.428   1.476  -2.425  0.00  0.00    +0.283 C 
ATOM     25  O   UNL     1      12.743   1.586  -2.982  0.00  0.00    -0.484 OA
ATOM     26  C   UNL     1      12.890   2.431  -4.038  0.00  0.00    +0.162 A 
ATOM     27  C   UNL     1      14.159   2.864  -4.392  0.00  0.00    +0.049 A 
ATOM     28  C   UNL     1      14.325   3.720  -5.465  0.00  0.00    +0.004 A 
ATOM     29  C   UNL     1      13.227   4.146  -6.188  0.00  0.00    +0.004 A 
ATOM     30  C   UNL     1      11.960   3.719  -5.840  0.00  0.00    +0.049 A 
ATOM     31  C   UNL     1      11.786   2.862  -4.764  0.00  0.00    +0.163 A 
ATOM     32  O   UNL     1      10.530   2.456  -4.429  0.00  0.00    -0.472 OA
ENDBRANCH  20  23
ENDBRANCH   3  19
TORSDOF 4
