REMARK  Name = ZINC35022863
REMARK  8 active torsions:
REMARK  status: ('A' for Active; 'I' for Inactive)
REMARK    1  A    between atoms: C_4  and  N_27
REMARK    2  A    between atoms: C_5  and  N_7
REMARK    3  A    between atoms: N_7  and  C_8
REMARK    4  A    between atoms: C_8  and  N_10
REMARK    5  A    between atoms: N_10  and  C_11
REMARK    6  A    between atoms: C_11  and  C_13
REMARK    7  A    between atoms: C_11  and  N_17
REMARK    8  A    between atoms: C_18  and  C_20
REMARK                            x       y       z     vdW  Elec       q    Type
REMARK                         _______ _______ _______ _____ _____    ______ ____
ROOT
ATOM      1  C   UNL     1      -1.104  -4.909  -0.226  0.00  0.00    +0.211 C 
ENDROOT
BRANCH   1   2
ATOM      2  C   UNL     1      -1.144  -5.993   0.854  0.00  0.00    +0.225 C 
ATOM      3 CL   UNL     1      -1.068  -5.222   2.482  0.00  0.00    -0.080 Cl
ATOM      4 CL   UNL     1      -2.675  -6.933   0.705  0.00  0.00    -0.080 Cl
ATOM      5 CL   UNL     1       0.264  -7.100   0.647  0.00  0.00    -0.080 Cl
ENDBRANCH   1   2
BRANCH   1   6
ATOM      6  N   UNL     1      -1.166  -5.536  -1.548  0.00  0.00    -0.290 N 
ATOM      7  C   UNL     1      -1.983  -5.033  -2.495  0.00  0.00    +0.246 C 
ATOM      8  O   UNL     1      -2.669  -4.059  -2.251  0.00  0.00    -0.270 OA
ATOM      9  H   UNL     1      -0.619  -6.313  -1.743  0.00  0.00    +0.151 HD
BRANCH   7  10
ATOM     10  C   UNL     1      -2.045  -5.665  -3.829  0.00  0.00    +0.037 A 
ATOM     11  C   UNL     1      -1.263  -6.786  -4.111  0.00  0.00    +0.014 A 
ATOM     12  C   UNL     1      -1.326  -7.372  -5.358  0.00  0.00    +0.021 A 
ATOM     13  C   UNL     1      -2.162  -6.849  -6.330  0.00  0.00    +0.041 A 
ATOM     14  C   UNL     1      -2.941  -5.737  -6.057  0.00  0.00    +0.021 A 
ATOM     15  C   UNL     1      -2.891  -5.146  -4.812  0.00  0.00    +0.014 A 
ATOM     16 CL   UNL     1      -2.235  -7.591  -7.898  0.00  0.00    -0.084 Cl
ENDBRANCH   7  10
ENDBRANCH   1   6
BRANCH   1  17
ATOM     17  N   UNL     1       0.140  -4.145  -0.105  0.00  0.00    -0.305 N 
ATOM     18  H   UNL     1       0.982  -4.607   0.027  0.00  0.00    +0.150 HD
BRANCH  17  19
ATOM     19  C   UNL     1       0.114  -2.799  -0.177  0.00  0.00    +0.136 C 
ATOM     20  S   UNL     1      -1.373  -1.983  -0.409  0.00  0.00    -0.019 S 
BRANCH  19  21
ATOM     21  N   UNL     1       1.258  -2.096  -0.066  0.00  0.00    -0.295 N 
ATOM     22  H   UNL     1       2.108  -2.559  -0.009  0.00  0.00    +0.154 HD
BRANCH  21  27
ATOM     23  C   UNL     1       0.351   1.377  -0.862  0.00  0.00    +0.002 A 
ATOM     24  C   UNL     1       1.144   2.067   0.037  0.00  0.00    +0.002 A 
ATOM     25  C   UNL     1       1.975   1.378   0.901  0.00  0.00    +0.034 A 
ATOM     26  C   UNL     1       2.015  -0.002   0.870  0.00  0.00    +0.147 A 
ATOM     27  C   UNL     1       1.220  -0.698  -0.031  0.00  0.00    +0.063 A 
ATOM     28  C   UNL     1       0.386  -0.003  -0.898  0.00  0.00    +0.025 A 
BRANCH  26  29
ATOM     29  N   UNL     1       2.906  -0.739   1.794  0.00  0.00    +0.058 N 
ATOM     30  O   UNL     1       3.678  -0.133   2.500  0.00  0.00    -0.126 OA
ATOM     31  O   UNL     1       2.860  -1.946   1.845  0.00  0.00    -0.126 OA
ENDBRANCH  26  29
ENDBRANCH  21  27
ENDBRANCH  19  21
ENDBRANCH  17  19
ENDBRANCH   1  17
TORSDOF 8
