REMARK  Name = ZINC35754417
REMARK  7 active torsions:
REMARK  status: ('A' for Active; 'I' for Inactive)
REMARK    1  A    between atoms: C_4  and  C_7
REMARK    2  A    between atoms: C_7  and  N_8
REMARK    3  A    between atoms: C_9  and  C_30
REMARK    4  A    between atoms: C_11  and  C_16
REMARK    5  A    between atoms: C_20  and  N_22
REMARK    6  A    between atoms: C_23  and  C_25
REMARK    7  A    between atoms: N_32  and  C_33
REMARK                            x       y       z     vdW  Elec       q    Type
REMARK                         _______ _______ _______ _____ _____    ______ ____
ROOT
ATOM      1  N   UNL     1       3.556  -0.120   1.687  0.00  0.00    -0.248 N 
ATOM      2  C   UNL     1       4.777   0.652   1.991  0.00  0.00    +0.211 C 
ATOM      3  C   UNL     1       4.837   0.576   3.535  0.00  0.00    +0.238 C 
ATOM      4  O   UNL     1       4.086  -0.624   3.805  0.00  0.00    -0.440 OA
ATOM      5  C   UNL     1       3.217  -0.804   2.796  0.00  0.00    +0.405 C 
ATOM      6  O   UNL     1       2.233  -1.513   2.874  0.00  0.00    -0.226 OA
ENDROOT
BRANCH   3   7
ATOM      7  C   UNL     1       6.260   0.440   4.012  0.00  0.00    -0.003 A 
ATOM      8  C   UNL     1       6.886  -0.793   3.974  0.00  0.00    +0.007 A 
ATOM      9  C   UNL     1       8.192  -0.922   4.411  0.00  0.00    +0.002 A 
ATOM     10  C   UNL     1       8.875   0.180   4.886  0.00  0.00    +0.023 A 
ATOM     11  C   UNL     1       8.249   1.419   4.926  0.00  0.00    +0.034 A 
ATOM     12  C   UNL     1       6.939   1.547   4.482  0.00  0.00    +0.030 A 
BRANCH  11  13
ATOM     13  N   UNL     1       8.937   2.537   5.407  0.00  0.00    -0.281 N 
ATOM     14  C   UNL     1      10.266   2.646   5.212  0.00  0.00    +0.255 C 
ATOM     15  O   UNL     1      10.852   1.820   4.536  0.00  0.00    -0.269 OA
ATOM     16  H   UNL     1       8.458   3.234   5.882  0.00  0.00    +0.155 HD
BRANCH  14  17
ATOM     17  C   UNL     1      11.007   3.759   5.812  0.00  0.00    +0.074 A 
ATOM     18  C   UNL     1      12.359   4.055   5.730  0.00  0.00    +0.021 A 
ATOM     19  C   UNL     1      12.767   5.179   6.407  0.00  0.00    +0.008 A 
ATOM     20  C   UNL     1      11.848   5.906   7.091  0.00  0.00    +0.046 A 
ATOM     21  S   UNL     1      10.402   5.091   6.831  0.00  0.00    -0.092 S 
ENDBRANCH  14  17
ENDBRANCH  11  13
ENDBRANCH   3   7
BRANCH   2  22
ATOM     22  C   UNL     1       5.989   0.006   1.370  0.00  0.00    +0.242 C 
ATOM     23  O   UNL     1       5.946  -1.155   1.022  0.00  0.00    -0.273 OA
ATOM     24  N   UNL     1       7.121   0.719   1.202  0.00  0.00    -0.284 N 
ATOM     25  H   UNL     1       7.180   1.623   1.547  0.00  0.00    +0.155 HD
BRANCH  24  26
ATOM     26  C   UNL     1       8.210   0.154   0.529  0.00  0.00    +0.033 A 
ATOM     27  C   UNL     1       7.997  -0.745  -0.508  0.00  0.00    +0.023 A 
ATOM     28  C   UNL     1       9.074  -1.301  -1.170  0.00  0.00    +0.002 A 
ATOM     29  C   UNL     1      10.363  -0.964  -0.801  0.00  0.00    +0.000 A 
ATOM     30  C   UNL     1      10.579  -0.070   0.232  0.00  0.00    +0.002 A 
ATOM     31  C   UNL     1       9.506   0.494   0.894  0.00  0.00    +0.023 A 
ENDBRANCH  24  26
ENDBRANCH   2  22
BRANCH   1  32
ATOM     32  C   UNL     1       2.839  -0.135   0.410  0.00  0.00    +0.147 C 
BRANCH  32  36
ATOM     33  C   UNL     1      -0.110   2.955   0.396  0.00  0.00    +0.000 A 
ATOM     34  C   UNL     1       1.168   3.218  -0.059  0.00  0.00    +0.000 A 
ATOM     35  C   UNL     1       2.122   2.218  -0.055  0.00  0.00    +0.005 A 
ATOM     36  C   UNL     1       1.798   0.956   0.406  0.00  0.00    -0.030 A 
ATOM     37  C   UNL     1       0.520   0.693   0.863  0.00  0.00    +0.005 A 
ATOM     38  C   UNL     1      -0.434   1.693   0.857  0.00  0.00    +0.000 A 
ENDBRANCH  32  36
ENDBRANCH   1  32
TORSDOF 7
