REMARK  Name = ZINC40367410
REMARK  4 active torsions:
REMARK  status: ('A' for Active; 'I' for Inactive)
REMARK    1  A    between atoms: C_3  and  N_11
REMARK    2  A    between atoms: C_6  and  C_7
REMARK    3  A    between atoms: N_8  and  O_9
REMARK    4  A    between atoms: C_12  and  C_14
REMARK                            x       y       z     vdW  Elec       q    Type
REMARK                         _______ _______ _______ _____ _____    ______ ____
ROOT
ATOM      1  C   UNL     1      -0.045   1.405  -0.390  0.00  0.00    +0.013 A 
ATOM      2  C   UNL     1       1.144   2.100  -0.435  0.00  0.00    +0.024 A 
ATOM      3  C   UNL     1       2.337   1.458  -0.124  0.00  0.00    +0.034 A 
ATOM      4  C   UNL     1       2.335   0.114   0.233  0.00  0.00    +0.024 A 
ATOM      5  C   UNL     1       1.149  -0.585   0.280  0.00  0.00    +0.013 A 
ATOM      6  C   UNL     1      -0.051   0.057  -0.031  0.00  0.00    +0.018 A 
ENDROOT
BRANCH   6   7
ATOM      7  C   UNL     1      -1.327  -0.692   0.019  0.00  0.00    +0.162 C 
ATOM      8  N   UNL     1      -1.468  -1.681   0.852  0.00  0.00    -0.072 NA
ATOM      9  N   UNL     1      -2.369  -0.339  -0.821  0.00  0.00    -0.340 N 
ATOM     10  H   UNL     1      -2.264   0.399  -1.442  0.00  0.00    +0.144 HD
ATOM     11  H   UNL     1      -3.205  -0.829  -0.789  0.00  0.00    +0.144 HD
BRANCH   8  12
ATOM     12  O   UNL     1      -0.455  -1.958   1.801  0.00  0.00    -0.408 OA
ATOM     13  H   UNL     1      -0.650  -2.711   2.376  0.00  0.00    +0.328 HD
ENDBRANCH   8  12
ENDBRANCH   6   7
BRANCH   3  14
ATOM     14  N   UNL     1       3.541   2.164  -0.171  0.00  0.00    -0.282 N 
ATOM     15  C   UNL     1       3.580   3.455   0.214  0.00  0.00    +0.248 C 
ATOM     16  O   UNL     1       2.554   4.029   0.521  0.00  0.00    -0.270 OA
ATOM     17  H   UNL     1       4.349   1.725  -0.480  0.00  0.00    +0.155 HD
BRANCH  15  18
ATOM     18  C   UNL     1       4.871   4.173   0.261  0.00  0.00    +0.037 A 
ATOM     19  C   UNL     1       6.051   3.518  -0.097  0.00  0.00    +0.014 A 
ATOM     20  C   UNL     1       7.252   4.193  -0.050  0.00  0.00    +0.016 A 
ATOM     21  C   UNL     1       7.290   5.518   0.351  0.00  0.00    +0.018 A 
ATOM     22  C   UNL     1       6.123   6.173   0.707  0.00  0.00    +0.016 A 
ATOM     23  C   UNL     1       4.915   5.510   0.659  0.00  0.00    +0.014 A 
ATOM     24 BR   UNL     1       8.942   6.436   0.412  0.00  0.00    -0.050 Br
ENDBRANCH  15  18
ENDBRANCH   3  14
TORSDOF 4
