REMARK  Name = ZINC38550658
REMARK  9 active torsions:
REMARK  status: ('A' for Active; 'I' for Inactive)
REMARK    1  A    between atoms: C_1  and  O_2
REMARK    2  A    between atoms: O_2  and  C_3
REMARK    3  A    between atoms: C_6  and  C_11
REMARK    4  A    between atoms: C_8  and  O_9
REMARK    5  A    between atoms: O_9  and  C_10
REMARK    6  A    between atoms: C_11  and  C_13
REMARK    7  A    between atoms: C_11  and  N_30
REMARK    8  A    between atoms: C_17  and  N_18
REMARK    9  A    between atoms: C_19  and  C_21
REMARK                            x       y       z     vdW  Elec       q    Type
REMARK                         _______ _______ _______ _____ _____    ______ ____
ROOT
ATOM      1  C   UNL     1      -4.966  -2.628   0.025  0.00  0.00    +0.135 C 
ENDROOT
BRANCH   1   2
ATOM      2  C   UNL     1      -5.501  -2.723   1.430  0.00  0.00    +0.009 A 
ATOM      3  C   UNL     1      -5.372  -3.913   2.148  0.00  0.00    -0.030 A 
ATOM      4  C   UNL     1      -5.880  -3.921   3.410  0.00  0.00    -0.005 A 
ATOM      5  S   UNL     1      -6.536  -2.287   3.616  0.00  0.00    -0.078 S 
ATOM      6  C   UNL     1      -6.105  -1.649   2.004  0.00  0.00    +0.078 A 
ATOM      7  C   UNL     1      -5.877  -5.053   4.386  0.00  0.00    +0.043 C 
ATOM      8  C   UNL     1      -5.538  -6.344   3.626  0.00  0.00    +0.005 C 
ATOM      9  C   UNL     1      -4.319  -6.085   2.736  0.00  0.00    +0.005 C 
ATOM     10  C   UNL     1      -4.702  -5.161   1.580  0.00  0.00    +0.036 C 
BRANCH   6  11
ATOM     11  N   UNL     1      -6.330  -0.378   1.472  0.00  0.00    -0.273 N 
ATOM     12  C   UNL     1      -7.033   0.532   2.174  0.00  0.00    +0.284 C 
ATOM     13  O   UNL     1      -7.393   0.280   3.309  0.00  0.00    -0.266 OA
ATOM     14  H   UNL     1      -5.981  -0.150   0.596  0.00  0.00    +0.156 HD
BRANCH  12  15
ATOM     15  C   UNL     1      -7.366   1.827   1.571  0.00  0.00    +0.189 A 
ATOM     16  C   UNL     1      -7.981   2.871   2.201  0.00  0.00    +0.054 A 
ATOM     17  C   UNL     1      -8.099   3.900   1.254  0.00  0.00    +0.042 A 
ATOM     18  C   UNL     1      -7.558   3.445   0.102  0.00  0.00    +0.196 A 
ATOM     19  O   UNL     1      -7.113   2.197   0.299  0.00  0.00    -0.458 OA
ENDBRANCH  12  15
ENDBRANCH   6  11
ENDBRANCH   1   2
BRANCH   1  20
ATOM     20  N   UNL     1      -5.917  -1.889  -0.810  0.00  0.00    -0.320 N 
ATOM     21  C   UNL     1      -7.038  -2.531  -1.322  0.00  0.00    +0.097 A 
ATOM     22  C   UNL     1      -7.311  -3.844  -0.949  0.00  0.00    +0.041 A 
ATOM     23  C   UNL     1      -8.431  -4.471  -1.465  0.00  0.00    +0.005 A 
ATOM     24  C   UNL     1      -9.243  -3.761  -2.341  0.00  0.00    +0.018 A 
ATOM     25  C   UNL     1      -8.912  -2.462  -2.668  0.00  0.00    +0.084 A 
ATOM     26  N   UNL     1      -7.840  -1.887  -2.155  0.00  0.00    -0.350 N 
ATOM     27  H   UNL     1      -5.763  -0.952  -1.006  0.00  0.00    +0.148 HD
ATOM     28  H   UNL     1      -7.633  -0.971  -2.398  0.00  0.00    +0.166 HD
ENDBRANCH   1  20
BRANCH   1  32
ATOM     29  C   UNL     1      -1.214  -0.577   0.063  0.00  0.00    +0.162 A 
ATOM     30  C   UNL     1      -2.399   0.141   0.009  0.00  0.00    +0.050 A 
ATOM     31  C   UNL     1      -3.610  -0.526  -0.003  0.00  0.00    +0.009 A 
ATOM     32  C   UNL     1      -3.643  -1.907   0.038  0.00  0.00    -0.019 A 
ATOM     33  C   UNL     1      -2.465  -2.628   0.092  0.00  0.00    +0.055 A 
ATOM     34  C   UNL     1      -1.247  -1.967   0.099  0.00  0.00    +0.162 A 
BRANCH  29  36
ATOM     35  C   UNL     1      -0.064   1.505   0.036  0.00  0.00    +0.277 C 
ATOM     36  O   UNL     1      -0.022   0.077   0.075  0.00  0.00    -0.491 OA
ENDBRANCH  29  36
BRANCH  34  37
ATOM     37  O   UNL     1      -0.087  -2.676   0.145  0.00  0.00    -0.491 OA
ATOM     38  C   UNL     1      -0.198  -4.100   0.180  0.00  0.00    +0.277 C 
ENDBRANCH  34  37
ENDBRANCH   1  32
TORSDOF 7
