REMARK  Name = ZINC59434842
REMARK  11 active torsions:
REMARK  status: ('A' for Active; 'I' for Inactive)
REMARK    1  A    between atoms: C_1  and  O_2
REMARK    2  A    between atoms: O_2  and  C_3
REMARK    3  A    between atoms: C_6  and  C_9
REMARK    4  A    between atoms: C_9  and  C_11
REMARK    5  A    between atoms: C_9  and  N_30
REMARK    6  A    between atoms: C_11  and  C_12
REMARK    7  A    between atoms: C_12  and  C_14
REMARK    8  A    between atoms: C_14  and  C_15
REMARK    9  A    between atoms: C_15  and  N_17
REMARK   10  A    between atoms: C_20  and  C_24
REMARK   11  A    between atoms: C_31  and  C_33
REMARK                            x       y       z     vdW  Elec       q    Type
REMARK                         _______ _______ _______ _____ _____    ______ ____
ROOT
ATOM      1  C   UNL     1       2.508  -2.504  -4.389  0.00  0.00    +0.111 C 
ENDROOT
BRANCH   1   5
ATOM      2  C   UNL     1       0.400  -0.760  -1.107  0.00  0.00    +0.120 A 
ATOM      3  C   UNL     1       1.013   0.053  -2.050  0.00  0.00    +0.046 A 
ATOM      4  C   UNL     1       1.694  -0.514  -3.110  0.00  0.00    +0.009 A 
ATOM      5  C   UNL     1       1.765  -1.889  -3.232  0.00  0.00    -0.027 A 
ATOM      6  C   UNL     1       1.155  -2.701  -2.294  0.00  0.00    +0.009 A 
ATOM      7  C   UNL     1       0.477  -2.139  -1.228  0.00  0.00    +0.046 A 
BRANCH   2   9
ATOM      8  C   UNL     1      -0.309   1.222  -0.002  0.00  0.00    +0.277 C 
ATOM      9  O   UNL     1      -0.270  -0.205  -0.063  0.00  0.00    -0.495 OA
ENDBRANCH   2   9
ENDBRANCH   1   5
BRANCH   1  10
ATOM     10  N   UNL     1       3.361  -3.591  -3.901  0.00  0.00    -0.304 N 
ATOM     11  C   UNL     1       4.583  -3.316  -3.402  0.00  0.00    +0.245 C 
ATOM     12  O   UNL     1       4.939  -2.162  -3.268  0.00  0.00    -0.270 OA
ATOM     13  H   UNL     1       3.046  -4.507  -3.935  0.00  0.00    +0.150 HD
BRANCH  11  14
ATOM     14  C   UNL     1       5.490  -4.419  -3.020  0.00  0.00    +0.037 A 
ATOM     15  C   UNL     1       5.086  -5.746  -3.179  0.00  0.00    +0.013 A 
ATOM     16  C   UNL     1       5.937  -6.770  -2.820  0.00  0.00    +0.001 A 
ATOM     17  C   UNL     1       7.189  -6.485  -2.304  0.00  0.00    +0.000 A 
ATOM     18  C   UNL     1       7.595  -5.172  -2.143  0.00  0.00    +0.001 A 
ATOM     19  C   UNL     1       6.756  -4.138  -2.504  0.00  0.00    +0.013 A 
ENDBRANCH  11  14
ENDBRANCH   1  10
BRANCH   1  20
ATOM     20  C   UNL     1       1.505  -3.060  -5.402  0.00  0.00    +0.102 C 
BRANCH  20  21
ATOM     21  C   UNL     1       2.243  -3.564  -6.615  0.00  0.00    +0.144 C 
ATOM     22  O   UNL     1       3.447  -3.487  -6.665  0.00  0.00    -0.297 OA
BRANCH  21  23
ATOM     23  C   UNL     1       1.478  -4.165  -7.767  0.00  0.00    +0.172 C 
BRANCH  23  24
ATOM     24  C   UNL     1       2.443  -4.587  -8.845  0.00  0.00    +0.245 C 
ATOM     25  O   UNL     1       3.637  -4.417  -8.692  0.00  0.00    -0.273 OA
BRANCH  24  26
ATOM     26  N   UNL     1       1.988  -5.146  -9.963  0.00  0.00    -0.159 NA
ATOM     27  C   UNL     1       2.838  -5.519 -10.913  0.00  0.00    +0.147 C 
ATOM     28  N   UNL     1       2.514  -6.096 -12.092  0.00  0.00    -0.318 N 
ATOM     29  C   UNL     1       3.553  -6.450 -13.036  0.00  0.00    +0.112 C 
ATOM     30  C   UNL     1       4.949  -6.080 -12.492  0.00  0.00    +0.104 C 
ATOM     31  S   UNL     1       4.505  -5.351 -10.868  0.00  0.00    -0.091 S 
ATOM     32  H   UNL     1       1.584  -6.273 -12.306  0.00  0.00    +0.148 HD
BRANCH  29  33
ATOM     33  C   UNL     1       3.318  -5.713 -14.330  0.00  0.00    -0.026 A 
ATOM     34  C   UNL     1       2.870  -4.406 -14.309  0.00  0.00    +0.005 A 
ATOM     35  C   UNL     1       2.655  -3.730 -15.496  0.00  0.00    +0.000 A 
ATOM     36  C   UNL     1       2.887  -4.362 -16.703  0.00  0.00    +0.000 A 
ATOM     37  C   UNL     1       3.335  -5.670 -16.724  0.00  0.00    +0.000 A 
ATOM     38  C   UNL     1       3.555  -6.344 -15.537  0.00  0.00    +0.005 A 
ENDBRANCH  29  33
ENDBRANCH  24  26
ENDBRANCH  23  24
ENDBRANCH  21  23
ENDBRANCH  20  21
ENDBRANCH   1  20
TORSDOF 10
