REMARK  Name = ZINC16923625
REMARK  8 active torsions:
REMARK  status: ('A' for Active; 'I' for Inactive)
REMARK    1  A    between atoms: C_1  and  C_2
REMARK    2  A    between atoms: C_5  and  S_8
REMARK    3  A    between atoms: S_8  and  O_11
REMARK    4  A    between atoms: O_11  and  C_12
REMARK    5  A    between atoms: C_18  and  C_39
REMARK    6  A    between atoms: C_28  and  C_38
REMARK    7  A    between atoms: C_31  and  S_34
REMARK    8  A    between atoms: S_34  and  C_35
REMARK                            x       y       z     vdW  Elec       q    Type
REMARK                         _______ _______ _______ _____ _____    ______ ____
ROOT
ATOM      1  C   UNL     1       1.946  -1.103   5.460  0.00  0.00    +0.156 C 
ATOM      2  C   UNL     1       0.922  -2.262   5.379  0.00  0.00    +0.035 C 
ATOM      3  C   UNL     1      -0.141  -1.833   4.327  0.00  0.00    +0.007 C 
ATOM      4  C   UNL     1       0.628  -0.785   3.506  0.00  0.00    +0.001 C 
ATOM      5  C   UNL     1       1.320   0.030   4.617  0.00  0.00    -0.000 C 
ATOM      6  C   UNL     1       2.322   1.004   4.048  0.00  0.00    +0.010 C 
ATOM      7  C   UNL     1       1.881   1.490   2.656  0.00  0.00    +0.005 C 
ATOM      8  C   UNL     1       0.365   1.495   2.554  0.00  0.00    +0.003 C 
ATOM      9  C   UNL     1      -0.162   0.057   2.556  0.00  0.00    +0.000 C 
ATOM     10  C   UNL     1      -1.663   0.113   2.832  0.00  0.00    +0.031 C 
ATOM     11  C   UNL     1      -2.283   0.997   1.780  0.00  0.00    -0.027 C 
ATOM     12  C   UNL     1      -1.632   1.922   1.134  0.00  0.00    -0.066 C 
ATOM     13  C   UNL     1      -0.174   2.240   1.344  0.00  0.00    -0.008 C 
ATOM     14  C   UNL     1      -0.006   3.746   1.560  0.00  0.00    +0.012 C 
ATOM     15  C   UNL     1      -0.707   4.544   0.465  0.00  0.00    +0.016 C 
ATOM     16  C   UNL     1      -2.202   4.223   0.449  0.00  0.00    +0.058 C 
ATOM     17  C   UNL     1      -2.397   2.743   0.110  0.00  0.00    +0.045 C 
ATOM     18  C   UNL     1       0.606   1.825   0.100  0.00  0.00    +0.016 C 
ATOM     19  C   UNL     1       0.322   0.751   5.526  0.00  0.00    +0.014 C 
ENDROOT
BRANCH   1  20
ATOM     20  O   UNL     1       2.104  -0.666   6.808  0.00  0.00    -0.230 OA
BRANCH  20  21
ATOM     21  S   UNL     1       3.346  -1.214   7.495  0.00  0.00    +0.112 S 
ATOM     22  O   UNL     1       3.241  -0.859   8.867  0.00  0.00    -0.142 OA
ATOM     23  O   UNL     1       3.488  -2.561   7.065  0.00  0.00    -0.142 OA
BRANCH  21  28
ATOM     24  C   UNL     1       8.082   1.806   5.291  0.00  0.00    +0.044 C 
ATOM     25  C   UNL     1       6.899   1.052   5.841  0.00  0.00    -0.050 A 
ATOM     26  C   UNL     1       6.238   1.524   6.960  0.00  0.00    +0.005 A 
ATOM     27  C   UNL     1       5.153   0.832   7.465  0.00  0.00    +0.030 A 
ATOM     28  C   UNL     1       4.729  -0.332   6.851  0.00  0.00    +0.117 A 
ATOM     29  C   UNL     1       5.394  -0.807   5.736  0.00  0.00    +0.030 A 
ATOM     30  C   UNL     1       6.475  -0.112   5.228  0.00  0.00    +0.005 A 
ENDBRANCH  21  28
ENDBRANCH  20  21
ENDBRANCH   1  20
BRANCH  16  31
ATOM     31  S   UNL     1      -3.026   5.242  -0.799  0.00  0.00    -0.088 S 
BRANCH  31  32
ATOM     32  C   UNL     1      -4.703   4.787  -0.508  0.00  0.00    +0.144 C 
ATOM     33  N   UNL     1      -4.991   3.921   0.424  0.00  0.00    -0.280 NA
ATOM     34  N   UNL     1      -5.708   5.344  -1.264  0.00  0.00    -0.338 N 
ATOM     35  H   UNL     1      -5.914   3.670   0.584  0.00  0.00    +0.189 HD
ATOM     36  H   UNL     1      -5.494   5.988  -1.956  0.00  0.00    +0.144 HD
ATOM     37  H   UNL     1      -6.632   5.093  -1.103  0.00  0.00    +0.144 HD
ENDBRANCH  31  32
ENDBRANCH  16  31
TORSDOF 5
