REMARK  Name = ZINC08684877
REMARK  5 active torsions:
REMARK  status: ('A' for Active; 'I' for Inactive)
REMARK    1  A    between atoms: C_1  and  C_2
REMARK    2  A    between atoms: C_4  and  C_15
REMARK    3  A    between atoms: C_5  and  C_14
REMARK    4  A    between atoms: N_6  and  C_7
REMARK    5  A    between atoms: N_16  and  N_17
REMARK                            x       y       z     vdW  Elec       q    Type
REMARK                         _______ _______ _______ _____ _____    ______ ____
ROOT
ATOM      1  C   UNL     1      -0.018   1.503   0.010  0.00  0.00    +0.064 C 
ATOM      2  C   UNL     1       0.002  -0.004   0.002  0.00  0.00    +0.022 A 
ATOM      3  C   UNL     1       0.008  -0.781  -1.097  0.00  0.00    +0.032 A 
ATOM      4  C   UNL     1       0.029  -2.170  -0.628  0.00  0.00    +0.016 A 
ATOM      5  C   UNL     1       0.035  -2.113   0.736  0.00  0.00    +0.030 A 
ATOM      6  N   UNL     1       0.024  -0.804   1.108  0.00  0.00    -0.317 N 
ATOM      7  C   UNL     1       0.055  -3.297   1.669  0.00  0.00    +0.064 C 
ENDROOT
BRANCH   6   8
ATOM      8  C   UNL     1       0.030  -0.345   2.433  0.00  0.00    +0.047 A 
ATOM      9  C   UNL     1       1.133  -0.577   3.244  0.00  0.00    +0.027 A 
ATOM     10  C   UNL     1       1.136  -0.123   4.548  0.00  0.00    +0.022 A 
ATOM     11  C   UNL     1       0.042   0.561   5.048  0.00  0.00    +0.041 A 
ATOM     12  C   UNL     1      -1.058   0.793   4.241  0.00  0.00    +0.022 A 
ATOM     13  C   UNL     1      -1.064   0.347   2.934  0.00  0.00    +0.027 A 
ATOM     14 CL   UNL     1       0.049   1.129   6.688  0.00  0.00    -0.084 Cl
ENDBRANCH   6   8
BRANCH   4  15
ATOM     15  C   UNL     1       0.042  -3.385  -1.464  0.00  0.00    +0.142 C 
ATOM     16  N   UNL     1       0.061  -4.556  -0.905  0.00  0.00    -0.180 NA
BRANCH  16  17
ATOM     17  N   UNL     1       0.073  -5.710  -1.698  0.00  0.00    -0.258 N 
ATOM     18  C   UNL     1       0.092  -6.944  -1.110  0.00  0.00    +0.156 C 
ATOM     19  N   UNL     1       0.099  -7.051   0.254  0.00  0.00    -0.338 N 
ATOM     20  S   UNL     1       0.106  -8.312  -2.050  0.00  0.00    -0.015 SA
ATOM     21  H   UNL     1       0.091  -6.251   0.803  0.00  0.00    +0.144 HD
ATOM     22  H   UNL     1       0.113  -7.926   0.671  0.00  0.00    +0.144 HD
ATOM     23  H   UNL     1       0.068  -5.634  -2.665  0.00  0.00    +0.191 HD
ENDBRANCH  16  17
ENDBRANCH   4  15
TORSDOF 3
