REMARK  Name = ZINC43260174
REMARK  7 active torsions:
REMARK  status: ('A' for Active; 'I' for Inactive)
REMARK    1  A    between atoms: C_1  and  C_2
REMARK    2  A    between atoms: C_5  and  N_8
REMARK    3  A    between atoms: C_15  and  C_18
REMARK    4  A    between atoms: N_20  and  C_21
REMARK    5  A    between atoms: C_21  and  C_22
REMARK    6  A    between atoms: C_28  and  C_30
REMARK    7  A    between atoms: C_34  and  C_36
REMARK                            x       y       z     vdW  Elec       q    Type
REMARK                         _______ _______ _______ _____ _____    ______ ____
ROOT
ATOM      1  N   UNL     1      -2.443  -5.859   0.518  0.00  0.00    -0.269 N 
ATOM      2  C   UNL     1      -1.803  -6.333   1.606  0.00  0.00    +0.307 C 
ATOM      3  O   UNL     1      -1.980  -5.812   2.690  0.00  0.00    -0.252 OA
ATOM      4  N   UNL     1      -0.966  -7.383   1.491  0.00  0.00    -0.282 N 
ATOM      5  C   UNL     1      -0.655  -7.951   0.171  0.00  0.00    +0.128 C 
ATOM      6  C   UNL     1       0.867  -7.953  -0.015  0.00  0.00    +0.128 C 
ATOM      7  N   UNL     1       1.485  -8.551   1.177  0.00  0.00    -0.283 N 
ATOM      8  C   UNL     1       1.174  -7.983   2.497  0.00  0.00    +0.179 C 
ATOM      9  C   UNL     1      -0.344  -7.978   2.682  0.00  0.00    +0.141 C 
ATOM     10  C   UNL     1       2.322  -9.601   1.062  0.00  0.00    +0.247 C 
ATOM     11  O   UNL     1       2.833 -10.082   2.055  0.00  0.00    -0.270 OA
ATOM     12  H   UNL     1      -2.340  -6.304  -0.338  0.00  0.00    +0.156 HD
ENDROOT
BRANCH   1  17
ATOM     13  C   UNL     1      -5.747  -1.267   0.947  0.00  0.00    +0.044 C 
ATOM     14  C   UNL     1      -4.869  -2.487   0.833  0.00  0.00    -0.050 A 
ATOM     15  C   UNL     1      -4.082  -2.668  -0.289  0.00  0.00    +0.005 A 
ATOM     16  C   UNL     1      -3.276  -3.785  -0.397  0.00  0.00    +0.023 A 
ATOM     17  C   UNL     1      -3.258  -4.726   0.624  0.00  0.00    +0.035 A 
ATOM     18  C   UNL     1      -4.050  -4.542   1.750  0.00  0.00    +0.023 A 
ATOM     19  C   UNL     1      -4.849  -3.420   1.853  0.00  0.00    +0.005 A 
ENDBRANCH   1  17
BRANCH  10  20
ATOM     20  C   UNL     1       2.618 -10.168  -0.271  0.00  0.00    +0.037 A 
ATOM     21  C   UNL     1       2.628  -9.343  -1.397  0.00  0.00    +0.013 A 
ATOM     22  C   UNL     1       2.906  -9.878  -2.637  0.00  0.00    +0.001 A 
ATOM     23  C   UNL     1       3.173 -11.230  -2.767  0.00  0.00    +0.012 A 
ATOM     24  C   UNL     1       3.164 -12.053  -1.655  0.00  0.00    +0.056 A 
ATOM     25  C   UNL     1       2.894 -11.529  -0.408  0.00  0.00    +0.025 A 
BRANCH  24  26
ATOM     26  C   UNL     1       3.455 -13.524  -1.806  0.00  0.00    +0.417 C 
ATOM     27  F   UNL     1       3.702 -13.815  -3.152  0.00  0.00    -0.166 F 
ATOM     28  F   UNL     1       4.580 -13.857  -1.043  0.00  0.00    -0.166 F 
ATOM     29  F   UNL     1       2.355 -14.265  -1.363  0.00  0.00    -0.166 F 
ENDBRANCH  24  26
ENDBRANCH  10  20
BRANCH   8  30
ATOM     30  C   UNL     1       1.817  -8.820   3.572  0.00  0.00    +0.235 C 
ATOM     31  O   UNL     1       1.408  -9.940   3.795  0.00  0.00    -0.274 OA
ATOM     32  N   UNL     1       2.848  -8.325   4.285  0.00  0.00    -0.311 N 
ATOM     33  H   UNL     1       3.175  -7.429   4.107  0.00  0.00    +0.149 HD
BRANCH  32  34
ATOM     34  C   UNL     1       3.473  -9.139   5.331  0.00  0.00    +0.135 C 
BRANCH  34  35
ATOM     35  C   UNL     1       4.609  -8.347   5.982  0.00  0.00    +0.135 C 
ATOM     36  C   UNL     1       5.351  -9.239   7.001  0.00  0.00    +0.035 C 
ATOM     37  C   UNL     1       5.637  -8.246   8.161  0.00  0.00    +0.031 C 
ATOM     38  C   UNL     1       4.377  -7.348   8.096  0.00  0.00    +0.160 C 
ATOM     39  O   UNL     1       4.073  -7.226   6.695  0.00  0.00    -0.375 OA
ENDBRANCH  34  35
ENDBRANCH  32  34
ENDBRANCH   8  30
TORSDOF 6
