REMARK  Name = ZINC39759978
REMARK  13 active torsions:
REMARK  status: ('A' for Active; 'I' for Inactive)
REMARK    1  A    between atoms: C_1  and  C_2
REMARK    2  A    between atoms: C_2  and  N_3
REMARK    3  A    between atoms: C_4  and  CA_23
REMARK    4  A    between atoms: C_7  and  S_8
REMARK    5  A    between atoms: S_8  and  C_9
REMARK    6  A    between atoms: C_9  and  C_10
REMARK    7  A    between atoms: N_12  and  C_13
REMARK    8  A    between atoms: CA_23  and  C_25
REMARK    9  A    between atoms: CA_23  and  N_27
REMARK   10  A    between atoms: C_25  and  O_26
REMARK   11  A    between atoms: C_28  and  C_30
REMARK   12  A    between atoms: C_33  and  O_36
REMARK   13  A    between atoms: O_36  and  C_37
REMARK                            x       y       z     vdW  Elec       q    Type
REMARK                         _______ _______ _______ _____ _____    ______ ____
ROOT
ATOM      1  N   UNL     1       0.709  -0.502   1.185  0.00  0.00    -0.305 N 
ATOM      2  C   UNL     1       2.047  -0.764   1.299  0.00  0.00    +0.157 A 
ATOM      3  N   UNL     1       2.258  -1.183   2.515  0.00  0.00    -0.131 NA
ATOM      4  N   UNL     1       1.154  -1.203   3.173  0.00  0.00    -0.122 NA
ATOM      5  C   UNL     1       0.171  -0.790   2.407  0.00  0.00    +0.192 A 
ENDROOT
BRANCH   1   7
ATOM      6  C   UNL     1      -0.008   1.521   0.014  0.00  0.00    +0.027 C 
ATOM      7  C   UNL     1       0.002  -0.009   0.001  0.00  0.00    +0.122 C 
ENDBRANCH   1   7
BRANCH   5   8
ATOM      8  S   UNL     1      -1.524  -0.639   2.866  0.00  0.00    -0.077 S 
BRANCH   8   9
ATOM      9  C   UNL     1      -1.558  -1.175   4.599  0.00  0.00    +0.173 C 
BRANCH   9  10
ATOM     10  C   UNL     1      -2.968  -1.093   5.123  0.00  0.00    +0.227 C 
ATOM     11  O   UNL     1      -3.863  -0.712   4.398  0.00  0.00    -0.275 OA
ATOM     12  N   UNL     1      -3.236  -1.445   6.396  0.00  0.00    -0.285 N 
ATOM     13  H   UNL     1      -2.534  -1.814   6.955  0.00  0.00    +0.155 HD
BRANCH  12  14
ATOM     14  C   UNL     1      -4.527  -1.278   6.912  0.00  0.00    +0.037 A 
ATOM     15  C   UNL     1      -4.703  -0.917   8.241  0.00  0.00    +0.027 A 
ATOM     16  C   UNL     1      -5.977  -0.753   8.751  0.00  0.00    +0.051 A 
ATOM     17  C   UNL     1      -7.083  -0.948   7.937  0.00  0.00    +0.162 A 
ATOM     18  C   UNL     1      -6.910  -1.307   6.606  0.00  0.00    +0.164 A 
ATOM     19  C   UNL     1      -5.632  -1.468   6.094  0.00  0.00    +0.072 A 
ATOM     20  O   UNL     1      -7.984  -1.495   5.790  0.00  0.00    -0.485 OA
ATOM     21  C   UNL     1      -9.252  -1.684   6.428  0.00  0.00    +0.270 C 
ATOM     22  C   UNL     1      -9.402  -0.620   7.523  0.00  0.00    +0.270 C 
ATOM     23  O   UNL     1      -8.331  -0.785   8.458  0.00  0.00    -0.485 OA
ENDBRANCH  12  14
ENDBRANCH   9  10
ENDBRANCH   8   9
ENDBRANCH   5   8
BRANCH   2  24
ATOM     24  CA  UNL     1       3.084  -0.599   0.219  0.00  0.00    +0.167 C 
BRANCH  24  25
ATOM     25  N   UNL     1       4.267   0.063   0.774  0.00  0.00    -0.299 N 
ATOM     26  C   UNL     1       5.090   0.760  -0.034  0.00  0.00    +0.245 C 
ATOM     27  O   UNL     1       4.851   0.840  -1.223  0.00  0.00    -0.270 OA
ATOM     28  H   UNL     1       4.457  -0.001   1.723  0.00  0.00    +0.150 HD
BRANCH  26  29
ATOM     29  C   UNL     1       6.282   1.428   0.526  0.00  0.00    +0.037 A 
ATOM     30  C   UNL     1       6.561   1.333   1.892  0.00  0.00    +0.016 A 
ATOM     31  C   UNL     1       7.674   1.956   2.410  0.00  0.00    +0.046 A 
ATOM     32  C   UNL     1       8.519   2.680   1.576  0.00  0.00    +0.120 A 
ATOM     33  C   UNL     1       8.244   2.777   0.217  0.00  0.00    +0.046 A 
ATOM     34  C   UNL     1       7.136   2.151  -0.310  0.00  0.00    +0.016 A 
BRANCH  32  35
ATOM     35  O   UNL     1       9.614   3.294   2.091  0.00  0.00    -0.495 OA
ATOM     36  C   UNL     1      10.440   4.021   1.178  0.00  0.00    +0.277 C 
ENDBRANCH  32  35
ENDBRANCH  26  29
ENDBRANCH  24  25
BRANCH  24  37
ATOM     37  C   UNL     1       3.477  -1.975  -0.324  0.00  0.00    +0.186 C 
BRANCH  37  38
ATOM     38  O   UNL     1       3.906  -2.808   0.755  0.00  0.00    -0.393 OA
ATOM     39  H   UNL     1       4.171  -3.697   0.483  0.00  0.00    +0.209 HD
ENDBRANCH  37  38
ENDBRANCH  24  37
ENDBRANCH   2  24
TORSDOF 11
