REMARK  Name = ZINC40378798
REMARK  4 active torsions:
REMARK  status: ('A' for Active; 'I' for Inactive)
REMARK    1  A    between atoms: C_4  and  N_11
REMARK    2  A    between atoms: C_6  and  S_7
REMARK    3  A    between atoms: S_7  and  N_10
REMARK    4  A    between atoms: C_12  and  C_14
REMARK                            x       y       z     vdW  Elec       q    Type
REMARK                         _______ _______ _______ _____ _____    ______ ____
ROOT
ATOM      1  C   UNL     1      -0.015   1.380   0.043  0.00  0.00    +0.030 A 
ATOM      2  C   UNL     1       1.083   1.955  -0.572  0.00  0.00    +0.024 A 
ATOM      3  C   UNL     1       2.290   1.284  -0.600  0.00  0.00    +0.062 A 
ATOM      4  C   UNL     1       2.400   0.030  -0.010  0.00  0.00    +0.054 A 
ATOM      5  C   UNL     1       1.296  -0.543   0.606  0.00  0.00    +0.053 A 
ATOM      6  C   UNL     1       0.092   0.133   0.630  0.00  0.00    +0.107 A 
ATOM      7 CL   UNL     1       3.667   2.005  -1.372  0.00  0.00    -0.082 Cl
ENDROOT
BRANCH   4   8
ATOM      8  N   UNL     1       3.622  -0.653  -0.037  0.00  0.00    -0.284 N 
ATOM      9  C   UNL     1       3.644  -1.998   0.057  0.00  0.00    +0.221 C 
ATOM     10  O   UNL     1       2.605  -2.622   0.065  0.00  0.00    -0.275 OA
ATOM     11  H   UNL     1       4.452  -0.159  -0.124  0.00  0.00    +0.155 HD
BRANCH   9  12
ATOM     12  C   UNL     1       4.961  -2.724   0.153  0.00  0.00    +0.083 C 
ATOM     13  C   UNL     1       5.795  -2.512  -1.134  0.00  0.00    +0.021 C 
ATOM     14  C   UNL     1       5.966  -3.955  -1.706  0.00  0.00    +0.013 C 
ATOM     15  C   UNL     1       6.111  -4.774  -0.371  0.00  0.00    +0.016 C 
ATOM     16  C   UNL     1       4.733  -4.269   0.200  0.00  0.00    +0.024 C 
ATOM     17  C   UNL     1       3.833  -4.550  -1.010  0.00  0.00    -0.027 C 
ATOM     18  C   UNL     1       4.549  -4.357  -2.132  0.00  0.00    -0.027 C 
ENDBRANCH   9  12
ENDBRANCH   4   8
BRANCH   6  19
ATOM     19  S   UNL     1      -1.310  -0.594   1.412  0.00  0.00    +0.056 S 
ATOM     20  O   UNL     1      -0.808  -1.525   2.361  0.00  0.00    -0.153 OA
ATOM     21  O   UNL     1      -2.172   0.475   1.776  0.00  0.00    -0.153 OA
BRANCH  19  22
ATOM     22  N   UNL     1      -2.110  -1.476   0.262  0.00  0.00    -0.204 NA
ATOM     23  H   UNL     1      -1.770  -1.510  -0.646  0.00  0.00    +0.144 HD
ATOM     24  H   UNL     1      -2.918  -1.959   0.495  0.00  0.00    +0.144 HD
ENDBRANCH  19  22
ENDBRANCH   6  19
TORSDOF 4
