REMARK  Name = ZINC01762768
REMARK  11 active torsions:
REMARK  status: ('A' for Active; 'I' for Inactive)
REMARK    1  A    between atoms: C_1  and  C_2
REMARK    2  A    between atoms: C_2  and  O_3
REMARK    3  A    between atoms: O_3  and  C_4
REMARK    4  A    between atoms: C_6  and  C_11
REMARK    5  A    between atoms: C_9  and  O_10
REMARK    6  A    between atoms: N_12  and  N_13
REMARK    7  A    between atoms: C_14  and  C_16
REMARK    8  A    between atoms: C_16  and  S_17
REMARK    9  A    between atoms: S_17  and  C_18
REMARK   10  A    between atoms: N_31  and  C_32
REMARK   11  A    between atoms: C_35  and  C_38
REMARK                            x       y       z     vdW  Elec       q    Type
REMARK                         _______ _______ _______ _____ _____    ______ ____
ROOT
ATOM      1  C   UNL     1      -2.173 -12.259   2.636  0.00  0.00    +0.178 A 
ATOM      2  N   UNL     1      -2.779 -11.659   3.641  0.00  0.00    -0.215 NA
ATOM      3  C   UNL     1      -2.736 -12.172   4.865  0.00  0.00    +0.117 A 
ATOM      4  C   UNL     1      -2.051 -13.365   5.152  0.00  0.00    +0.076 A 
ATOM      5  C   UNL     1      -2.092 -13.805   6.548  0.00  0.00    -0.023 A 
ATOM      6  C   UNL     1      -2.776 -13.030   7.414  0.00  0.00    -0.004 A 
ATOM      7  S   UNL     1      -3.399 -11.688   6.439  0.00  0.00    -0.073 S 
ATOM      8  C   UNL     1      -2.966 -13.260   8.883  0.00  0.00    +0.043 C 
ATOM      9  C   UNL     1      -2.576 -14.710   9.201  0.00  0.00    +0.005 C 
ATOM     10  C   UNL     1      -1.228 -15.013   8.540  0.00  0.00    +0.005 C 
ATOM     11  C   UNL     1      -1.397 -15.079   7.022  0.00  0.00    +0.037 C 
ATOM     12  C   UNL     1      -1.403 -13.995   4.043  0.00  0.00    +0.268 A 
ATOM     13  O   UNL     1      -0.785 -15.034   4.198  0.00  0.00    -0.267 OA
ATOM     14  N   UNL     1      -1.488 -13.427   2.826  0.00  0.00    -0.255 N 
ENDROOT
BRANCH  14  15
ATOM     15  C   UNL     1      -0.860 -14.041   1.735  0.00  0.00    +0.052 A 
ATOM     16  C   UNL     1      -1.550 -14.969   0.967  0.00  0.00    +0.026 A 
ATOM     17  C   UNL     1      -0.928 -15.572  -0.108  0.00  0.00    +0.005 A 
ATOM     18  C   UNL     1       0.381 -15.253  -0.420  0.00  0.00    -0.050 A 
ATOM     19  C   UNL     1       1.071 -14.330   0.343  0.00  0.00    +0.005 A 
ATOM     20  C   UNL     1       0.452 -13.718   1.416  0.00  0.00    +0.026 A 
ATOM     21  C   UNL     1       1.057 -15.914  -1.594  0.00  0.00    +0.044 C 
ENDBRANCH  14  15
BRANCH   1  22
ATOM     22  S   UNL     1      -2.251 -11.550   1.025  0.00  0.00    -0.078 S 
BRANCH  22  23
ATOM     23  C   UNL     1      -3.239 -10.046   1.255  0.00  0.00    +0.174 C 
BRANCH  23  25
ATOM     24  N   UNL     1      -4.085  -8.184  -0.137  0.00  0.00    -0.206 N 
ATOM     25  C   UNL     1      -3.385  -9.334  -0.065  0.00  0.00    +0.242 C 
ATOM     26  O   UNL     1      -2.873  -9.796  -1.063  0.00  0.00    -0.273 OA
ATOM     27  H   UNL     1      -4.495  -7.815   0.661  0.00  0.00    +0.177 HD
BRANCH  24  29
ATOM     28  C   UNL     1      -4.894  -6.415  -1.433  0.00  0.00    +0.138 C 
ATOM     29  N   UNL     1      -4.221  -7.522  -1.364  0.00  0.00    -0.188 NA
BRANCH  28  32
ATOM     30  C   UNL     1      -5.893  -3.877  -4.014  0.00  0.00    +0.162 A 
ATOM     31  C   UNL     1      -5.762  -4.527  -2.801  0.00  0.00    +0.059 A 
ATOM     32  C   UNL     1      -5.037  -5.718  -2.725  0.00  0.00    -0.002 A 
ATOM     33  C   UNL     1      -4.448  -6.248  -3.875  0.00  0.00    +0.013 A 
ATOM     34  C   UNL     1      -4.582  -5.595  -5.082  0.00  0.00    +0.050 A 
ATOM     35  C   UNL     1      -5.306  -4.414  -5.159  0.00  0.00    +0.158 A 
BRANCH  35  36
ATOM     36  O   UNL     1      -5.441  -3.777  -6.352  0.00  0.00    -0.503 OA
ATOM     37  H   UNL     1      -4.742  -3.134  -6.535  0.00  0.00    +0.292 HD
ENDBRANCH  35  36
BRANCH  30  38
ATOM     38  O   UNL     1      -6.598  -2.717  -4.092  0.00  0.00    -0.489 OA
BRANCH  38  40
ATOM     39  C   UNL     1      -7.921  -0.920  -3.164  0.00  0.00    +0.048 C 
ATOM     40  C   UNL     1      -7.172  -2.224  -2.880  0.00  0.00    +0.226 C 
ENDBRANCH  38  40
ENDBRANCH  30  38
ENDBRANCH  28  32
ENDBRANCH  24  29
ENDBRANCH  23  25
ENDBRANCH  22  23
ENDBRANCH   1  22
TORSDOF 9
