REMARK  Name = ZINC35729066
REMARK  8 active torsions:
REMARK  status: ('A' for Active; 'I' for Inactive)
REMARK    1  A    between atoms: C_1  and  C_2
REMARK    2  A    between atoms: C_2  and  C_3
REMARK    3  A    between atoms: C_3  and  C_5
REMARK    4  A    between atoms: C_3  and  C_6
REMARK    5  A    between atoms: C_6  and  C_8
REMARK    6  A    between atoms: C_6  and  N_23
REMARK    7  A    between atoms: C_14  and  C_16
REMARK    8  A    between atoms: N_26  and  C_27
REMARK                            x       y       z     vdW  Elec       q    Type
REMARK                         _______ _______ _______ _____ _____    ______ ____
ROOT
ATOM      1  C   UNL     1      -0.229  -0.374   2.427  0.00  0.00    +0.163 C 
ENDROOT
BRANCH   1   2
ATOM      2  C   UNL     1       0.288  -1.135   3.620  0.00  0.00    +0.239 C 
ATOM      3  O   UNL     1       0.543  -0.549   4.650  0.00  0.00    -0.273 OA
ATOM      4  N   UNL     1       0.467  -2.469   3.542  0.00  0.00    -0.262 N 
ATOM      5  C   UNL     1       0.844  -3.187   4.671  0.00  0.00    +0.188 A 
ATOM      6  N   UNL     1       1.072  -2.769   5.909  0.00  0.00    -0.125 NA
ATOM      7  N   UNL     1       1.411  -3.564   6.829  0.00  0.00    -0.140 NA
ATOM      8  C   UNL     1       1.560  -4.865   6.612  0.00  0.00    +0.134 A 
ATOM      9  S   UNL     1       1.152  -4.939   4.870  0.00  0.00    -0.030 S 
ATOM     10  H   UNL     1       0.333  -2.928   2.698  0.00  0.00    +0.157 HD
BRANCH   8  11
ATOM     11  C   UNL     1       1.946  -5.945   7.544  0.00  0.00    +0.009 A 
ATOM     12  C   UNL     1       2.047  -7.261   7.088  0.00  0.00    +0.013 A 
ATOM     13  C   UNL     1       2.408  -8.265   7.962  0.00  0.00    +0.039 A 
ATOM     14  C   UNL     1       2.670  -7.970   9.290  0.00  0.00    +0.123 A 
ATOM     15  C   UNL     1       2.571  -6.665   9.748  0.00  0.00    +0.039 A 
ATOM     16  C   UNL     1       2.217  -5.652   8.881  0.00  0.00    +0.013 A 
ATOM     17  F   UNL     1       3.022  -8.957  10.142  0.00  0.00    -0.205 F 
ENDBRANCH   8  11
ENDBRANCH   1   2
BRANCH   1  18
ATOM     18  N   UNL     1      -0.320   1.050   2.759  0.00  0.00    -0.288 N 
ATOM     19  C   UNL     1      -1.282   1.812   2.201  0.00  0.00    +0.304 C 
ATOM     20  O   UNL     1      -2.129   1.301   1.495  0.00  0.00    -0.252 OA
ATOM     21  N   UNL     1      -1.304   3.141   2.426  0.00  0.00    -0.269 N 
ATOM     22  H   UNL     1       0.311   1.445   3.381  0.00  0.00    +0.151 HD
ATOM     23  H   UNL     1      -0.585   3.561   2.924  0.00  0.00    +0.156 HD
BRANCH  21  24
ATOM     24  C   UNL     1      -2.363   3.915   1.940  0.00  0.00    +0.036 A 
ATOM     25  C   UNL     1      -2.138   5.222   1.526  0.00  0.00    +0.023 A 
ATOM     26  C   UNL     1      -3.185   5.984   1.046  0.00  0.00    +0.003 A 
ATOM     27  C   UNL     1      -4.458   5.447   0.977  0.00  0.00    +0.015 A 
ATOM     28  C   UNL     1      -4.686   4.146   1.389  0.00  0.00    +0.020 A 
ATOM     29  C   UNL     1      -3.641   3.377   1.865  0.00  0.00    +0.038 A 
ATOM     30 BR   UNL     1      -6.429   3.418   1.294  0.00  0.00    -0.050 Br
ENDBRANCH  21  24
ENDBRANCH   1  18
BRANCH   1  31
ATOM     31  C   UNL     1       0.727  -0.562   1.248  0.00  0.00    +0.015 C 
ATOM     32  C   UNL     1       0.120   0.070  -0.007  0.00  0.00    +0.010 C 
BRANCH  31  34
ATOM     33  C   UNL     1       2.769  -0.653   2.685  0.00  0.00    +0.004 C 
ATOM     34  C   UNL     1       2.064   0.112   1.562  0.00  0.00    +0.002 C 
ENDBRANCH  31  34
ENDBRANCH   1  31
TORSDOF 6
