REMARK  Name = ZINC36213714
REMARK  8 active torsions:
REMARK  status: ('A' for Active; 'I' for Inactive)
REMARK    1  A    between atoms: C_1  and  C_2
REMARK    2  A    between atoms: C_5  and  C_8
REMARK    3  A    between atoms: N_10  and  C_11
REMARK    4  A    between atoms: C_11  and  C_13
REMARK    5  A    between atoms: C_11  and  C_29
REMARK    6  A    between atoms: N_21  and  C_22
REMARK    7  A    between atoms: C_25  and  C_28
REMARK    8  A    between atoms: C_36  and  C_38
REMARK                            x       y       z     vdW  Elec       q    Type
REMARK                         _______ _______ _______ _____ _____    ______ ____
ROOT
ATOM      1  C   UNL     1      -0.546  -5.491   0.585  0.00  0.00    +0.162 C 
ENDROOT
BRANCH   1   2
ATOM      2  C   UNL     1      -0.611  -6.256   1.908  0.00  0.00    +0.021 C 
ATOM      3  C   UNL     1      -0.847  -7.742   1.627  0.00  0.00    +0.025 C 
ATOM      4  C   UNL     1      -0.877  -8.510   2.953  0.00  0.00    +0.109 C 
ATOM      5  N   UNL     1      -1.880  -7.895   3.832  0.00  0.00    -0.285 N 
ATOM      6  C   UNL     1      -1.800  -6.452   4.096  0.00  0.00    +0.109 C 
ATOM      7  C   UNL     1      -1.759  -5.707   2.758  0.00  0.00    +0.025 C 
ATOM      8  C   UNL     1      -2.857  -8.641   4.386  0.00  0.00    +0.306 C 
ATOM      9  O   UNL     1      -2.859  -9.848   4.237  0.00  0.00    -0.252 OA
ATOM     10  N   UNL     1      -3.831  -8.049   5.105  0.00  0.00    -0.269 N 
ATOM     11  H   UNL     1      -3.789  -7.098   5.288  0.00  0.00    +0.156 HD
BRANCH  10  12
ATOM     12  C   UNL     1      -4.903  -8.808   5.589  0.00  0.00    +0.035 A 
ATOM     13  C   UNL     1      -4.698 -10.117   6.004  0.00  0.00    +0.023 A 
ATOM     14  C   UNL     1      -5.758 -10.863   6.481  0.00  0.00    +0.005 A 
ATOM     15  C   UNL     1      -7.022 -10.308   6.545  0.00  0.00    -0.050 A 
ATOM     16  C   UNL     1      -7.230  -9.005   6.132  0.00  0.00    +0.005 A 
ATOM     17  C   UNL     1      -6.173  -8.252   5.659  0.00  0.00    +0.023 A 
ATOM     18  C   UNL     1      -8.177 -11.124   7.066  0.00  0.00    +0.044 C 
ENDBRANCH  10  12
ENDBRANCH   1   2
BRANCH   1  19
ATOM     19  C   UNL     1       0.610  -6.005  -0.236  0.00  0.00    +0.236 C 
ATOM     20  O   UNL     1       1.745  -5.687   0.050  0.00  0.00    -0.274 OA
ATOM     21  N   UNL     1       0.382  -6.817  -1.287  0.00  0.00    -0.297 N 
ATOM     22  C   UNL     1      -0.991  -7.104  -1.727  0.00  0.00    +0.108 C 
ATOM     23  C   UNL     1      -1.107  -6.785  -3.220  0.00  0.00    +0.019 C 
ATOM     24  C   UNL     1      -0.027  -7.551  -3.988  0.00  0.00    +0.003 C 
ATOM     25  C   UNL     1       1.356  -7.108  -3.505  0.00  0.00    +0.022 C 
ATOM     26  C   UNL     1       1.500  -7.427  -2.018  0.00  0.00    +0.073 C 
ATOM     27  C   UNL     1       2.823  -6.858  -1.500  0.00  0.00    +0.028 C 
ENDBRANCH   1  19
BRANCH   1  30
ATOM     28  C   UNL     1      -0.760  -3.148  -0.049  0.00  0.00    +0.245 C 
ATOM     29  O   UNL     1      -1.280  -3.507  -1.088  0.00  0.00    -0.270 OA
ATOM     30  N   UNL     1      -0.357  -4.064   0.854  0.00  0.00    -0.300 N 
ATOM     31  H   UNL     1       0.058  -3.777   1.683  0.00  0.00    +0.150 HD
BRANCH  28  36
ATOM     32  C   UNL     1      -0.020   2.459   1.011  0.00  0.00    +0.044 C 
ATOM     33  C   UNL     1      -0.214   0.991   0.733  0.00  0.00    -0.050 A 
ATOM     34  C   UNL     1      -0.805   0.586  -0.450  0.00  0.00    +0.004 A 
ATOM     35  C   UNL     1      -0.985  -0.757  -0.711  0.00  0.00    +0.013 A 
ATOM     36  C   UNL     1      -0.569  -1.708   0.223  0.00  0.00    +0.037 A 
ATOM     37  C   UNL     1       0.027  -1.292   1.415  0.00  0.00    +0.013 A 
ATOM     38  C   UNL     1       0.206   0.053   1.660  0.00  0.00    +0.004 A 
ENDBRANCH  28  36
ENDBRANCH   1  30
TORSDOF 5
