REMARK  Name = ZINC00070915
REMARK  4 active torsions:
REMARK  status: ('A' for Active; 'I' for Inactive)
REMARK    1  A    between atoms: C_1  and  C_2
REMARK    2  A    between atoms: C_5  and  C_8
REMARK    3  A    between atoms: C_10  and  C_21
REMARK    4  A    between atoms: C_11  and  N_20
REMARK                            x       y       z     vdW  Elec       q    Type
REMARK                         _______ _______ _______ _____ _____    ______ ____
ROOT
ATOM      1  C   UNL     1      -2.717   2.950   4.762  0.00  0.00    +0.101 C 
ATOM      2  C   UNL     1      -3.744   1.935   5.182  0.00  0.00    +0.098 C 
ATOM      3  C   UNL     1      -5.056   2.135   4.908  0.00  0.00    +0.198 C 
ATOM      4  O   UNL     1      -5.476   3.230   4.255  0.00  0.00    -0.445 OA
ATOM      5  C   UNL     1      -4.708   4.336   4.238  0.00  0.00    +0.115 C 
ATOM      6  C   UNL     1      -3.385   4.273   4.473  0.00  0.00    +0.046 C 
ATOM      7  C   UNL     1      -2.583   5.431   4.458  0.00  0.00    +0.163 C 
ATOM      8  O   UNL     1      -1.388   5.332   4.655  0.00  0.00    -0.292 OA
ATOM      9  C   UNL     1      -3.180   6.788   4.203  0.00  0.00    +0.080 C 
ATOM     10  C   UNL     1      -4.639   6.782   4.672  0.00  0.00    +0.016 C 
ATOM     11  C   UNL     1      -5.377   5.658   3.943  0.00  0.00    +0.075 C 
ENDROOT
BRANCH   1  16
ATOM     12  C   UNL     1      -0.013   1.086   0.008  0.00  0.00    +0.044 C 
ATOM     13  C   UNL     1      -0.718   1.572   1.248  0.00  0.00    -0.050 A 
ATOM     14  C   UNL     1      -2.083   1.789   1.226  0.00  0.00    +0.003 A 
ATOM     15  C   UNL     1      -2.731   2.231   2.365  0.00  0.00    +0.005 A 
ATOM     16  C   UNL     1      -2.012   2.464   3.522  0.00  0.00    -0.035 A 
ATOM     17  C   UNL     1      -0.646   2.251   3.543  0.00  0.00    +0.005 A 
ATOM     18  C   UNL     1       0.001   1.806   2.405  0.00  0.00    +0.003 A 
ENDBRANCH   1  16
BRANCH   3  19
ATOM     19  N   UNL     1      -5.976   1.196   5.306  0.00  0.00    -0.328 N 
ATOM     20  H   UNL     1      -6.918   1.329   5.115  0.00  0.00    +0.145 HD
ATOM     21  H   UNL     1      -5.684   0.401   5.778  0.00  0.00    +0.145 HD
ENDBRANCH   3  19
BRANCH   2  22
ATOM     22  C   UNL     1      -3.333   0.752   5.875  0.00  0.00    +0.101 C 
ATOM     23  N   UNL     1      -3.008  -0.187   6.425  0.00  0.00    -0.191 NA
ENDBRANCH   2  22
TORSDOF 3
