REMARK  Name = ZINC38611404
REMARK  7 active torsions:
REMARK  status: ('A' for Active; 'I' for Inactive)
REMARK    1  A    between atoms: C_1  and  C_2
REMARK    2  A    between atoms: C_4  and  C_8
REMARK    3  A    between atoms: N_10  and  N_11
REMARK    4  A    between atoms: C_12  and  C_13
REMARK    5  A    between atoms: C_14  and  O_23
REMARK    6  A    between atoms: C_15  and  O_21
REMARK    7  A    between atoms: O_21  and  C_22
REMARK                            x       y       z     vdW  Elec       q    Type
REMARK                         _______ _______ _______ _____ _____    ______ ____
ROOT
ATOM      1  N   UNL     1      -2.558  -4.250  -2.421  0.00  0.00    -0.187 NA
ATOM      2  C   UNL     1      -3.714  -4.840  -2.457  0.00  0.00    +0.143 C 
ENDROOT
BRANCH   2   3
ATOM      3  C   UNL     1      -4.642  -4.713  -1.319  0.00  0.00    +0.055 A 
ATOM      4  C   UNL     1      -5.039  -3.446  -0.873  0.00  0.00    +0.168 A 
ATOM      5  C   UNL     1      -5.915  -3.337   0.200  0.00  0.00    +0.163 A 
ATOM      6  C   UNL     1      -6.391  -4.479   0.826  0.00  0.00    +0.065 A 
ATOM      7  C   UNL     1      -5.999  -5.732   0.386  0.00  0.00    +0.036 A 
ATOM      8  C   UNL     1      -5.135  -5.856  -0.683  0.00  0.00    +0.044 A 
ATOM      9 BR   UNL     1      -4.611  -7.572  -1.282  0.00  0.00    -0.048 Br
ATOM     10 BR   UNL     1      -6.657  -7.280   1.250  0.00  0.00    -0.049 Br
BRANCH   5  11
ATOM     11  O   UNL     1      -6.304  -2.110   0.638  0.00  0.00    -0.491 OA
ATOM     12  C   UNL     1      -7.206  -2.072   1.746  0.00  0.00    +0.277 C 
ENDBRANCH   5  11
BRANCH   4  13
ATOM     13  O   UNL     1      -4.570  -2.328  -1.488  0.00  0.00    -0.503 OA
ATOM     14  H   UNL     1      -5.120  -2.023  -2.223  0.00  0.00    +0.292 HD
ENDBRANCH   4  13
ENDBRANCH   2   3
BRANCH   1  17
ATOM     15  C   UNL     1      -0.992  -2.894  -1.248  0.00  0.00    +0.262 C 
ATOM     16  O   UNL     1      -0.370  -2.741  -2.278  0.00  0.00    -0.271 OA
ATOM     17  N   UNL     1      -2.139  -3.602  -1.251  0.00  0.00    -0.205 N 
ATOM     18  H   UNL     1      -2.674  -3.663  -0.444  0.00  0.00    +0.177 HD
BRANCH  15  22
ATOM     19  C   UNL     1      -0.202   1.397   0.502  0.00  0.00    +0.067 C 
ATOM     20  C   UNL     1      -0.088  -0.090   0.290  0.00  0.00    +0.059 C 
ATOM     21  C   UNL     1      -1.121  -0.936   0.284  0.00  0.00    +0.035 C 
ATOM     22  C   UNL     1      -0.483  -2.291   0.036  0.00  0.00    +0.240 C 
ATOM     23  N   UNL     1       0.950  -1.968  -0.068  0.00  0.00    -0.170 NA
ATOM     24  N   UNL     1       1.072  -0.749   0.076  0.00  0.00    -0.159 NA
ENDBRANCH  15  22
ENDBRANCH   1  17
TORSDOF 5
