REMARK  Name = ZINC47049961
REMARK  7 active torsions:
REMARK  status: ('A' for Active; 'I' for Inactive)
REMARK    1  A    between atoms: C_1  and  C_2
REMARK    2  A    between atoms: C_2  and  C_4
REMARK    3  A    between atoms: C_2  and  N_17
REMARK    4  A    between atoms: C_4  and  C_5
REMARK    5  A    between atoms: C_4  and  C_11
REMARK    6  A    between atoms: N_20  and  N_21
REMARK    7  A    between atoms: C_22  and  C_24
REMARK                            x       y       z     vdW  Elec       q    Type
REMARK                         _______ _______ _______ _____ _____    ______ ____
ROOT
ATOM      1  N   UNL     1       1.779  -0.717   0.936  0.00  0.00    -0.295 N 
ATOM      2  C   UNL     1       1.690  -0.968   2.257  0.00  0.00    +0.316 C 
ATOM      3  O   UNL     1       0.667  -0.702   2.859  0.00  0.00    -0.251 OA
ATOM      4  N   UNL     1       2.734  -1.515   2.911  0.00  0.00    -0.218 N 
ATOM      5  H   UNL     1       2.595  -0.929   0.456  0.00  0.00    +0.151 HD
ATOM      6  H   UNL     1       2.670  -1.696   3.862  0.00  0.00    +0.174 HD
ENDROOT
BRANCH   4   7
ATOM      7  N   UNL     1       3.912  -1.821   2.218  0.00  0.00    -0.229 N 
ATOM      8  C   UNL     1       4.956  -2.368   2.872  0.00  0.00    +0.260 C 
ATOM      9  O   UNL     1       4.875  -2.595   4.064  0.00  0.00    -0.269 OA
ATOM     10  H   UNL     1       3.976  -1.640   1.267  0.00  0.00    +0.173 HD
BRANCH   8  11
ATOM     11  C   UNL     1       6.198  -2.691   2.141  0.00  0.00    +0.038 A 
ATOM     12  C   UNL     1       6.296  -2.426   0.773  0.00  0.00    +0.016 A 
ATOM     13  C   UNL     1       7.457  -2.729   0.096  0.00  0.00    +0.039 A 
ATOM     14  C   UNL     1       8.528  -3.297   0.770  0.00  0.00    +0.123 A 
ATOM     15  C   UNL     1       8.437  -3.562   2.128  0.00  0.00    +0.039 A 
ATOM     16  C   UNL     1       7.282  -3.257   2.816  0.00  0.00    +0.016 A 
ATOM     17  F   UNL     1       9.664  -3.592   0.102  0.00  0.00    -0.205 F 
ENDBRANCH   8  11
ENDBRANCH   4   7
BRANCH   1  19
ATOM     18  C   UNL     1       0.693   1.400   0.369  0.00  0.00    +0.029 C 
ATOM     19  C   UNL     1       0.644  -0.123   0.225  0.00  0.00    +0.083 C 
BRANCH  19  20
ATOM     20  C   UNL     1       0.718  -0.497  -1.257  0.00  0.00    +0.069 C 
BRANCH  20  21
ATOM     21  C   UNL     1       0.671  -1.997  -1.399  0.00  0.00    -0.038 A 
ATOM     22  C   UNL     1       1.642  -2.653  -2.132  0.00  0.00    +0.004 A 
ATOM     23  C   UNL     1       1.598  -4.029  -2.262  0.00  0.00    +0.000 A 
ATOM     24  C   UNL     1       0.584  -4.748  -1.659  0.00  0.00    +0.000 A 
ATOM     25  C   UNL     1      -0.387  -4.092  -0.924  0.00  0.00    +0.000 A 
ATOM     26  C   UNL     1      -0.341  -2.717  -0.791  0.00  0.00    +0.004 A 
ENDBRANCH  20  21
BRANCH  20  27
ATOM     27  C   UNL     1      -0.449   0.114  -1.988  0.00  0.00    -0.038 A 
ATOM     28  C   UNL     1      -1.736  -0.082  -1.522  0.00  0.00    +0.004 A 
ATOM     29  C   UNL     1      -2.807   0.479  -2.193  0.00  0.00    +0.000 A 
ATOM     30  C   UNL     1      -2.591   1.235  -3.330  0.00  0.00    +0.000 A 
ATOM     31  C   UNL     1      -1.304   1.431  -3.795  0.00  0.00    +0.000 A 
ATOM     32  C   UNL     1      -0.233   0.874  -3.122  0.00  0.00    +0.004 A 
ENDBRANCH  20  27
ENDBRANCH  19  20
ENDBRANCH   1  19
TORSDOF 6
