REMARK  Name = ZINC13360579
REMARK  8 active torsions:
REMARK  status: ('A' for Active; 'I' for Inactive)
REMARK    1  A    between atoms: C_1  and  O_2
REMARK    2  A    between atoms: O_2  and  C_3
REMARK    3  A    between atoms: C_6  and  C_30
REMARK    4  A    between atoms: C_8  and  S_9
REMARK    5  A    between atoms: S_9  and  N_12
REMARK    6  A    between atoms: N_12  and  C_13
REMARK    7  A    between atoms: C_16  and  S_19
REMARK    8  A    between atoms: S_19  and  N_22
REMARK                            x       y       z     vdW  Elec       q    Type
REMARK                         _______ _______ _______ _____ _____    ______ ____
ROOT
ATOM      1  C   UNL     1      -7.036   4.231   3.791  0.00  0.00    +0.048 A 
ATOM      2  C   UNL     1      -5.810   4.420   4.417  0.00  0.00    +0.026 A 
ATOM      3  C   UNL     1      -4.658   4.514   3.662  0.00  0.00    +0.031 A 
ATOM      4  C   UNL     1      -4.723   4.420   2.284  0.00  0.00    +0.113 A 
ATOM      5  C   UNL     1      -5.942   4.237   1.657  0.00  0.00    +0.031 A 
ATOM      6  C   UNL     1      -7.098   4.137   2.406  0.00  0.00    +0.026 A 
ENDROOT
BRANCH   4   7
ATOM      7  S   UNL     1      -3.250   4.540   1.324  0.00  0.00    +0.100 S 
ATOM      8  O   UNL     1      -2.311   5.260   2.110  0.00  0.00    -0.146 OA
ATOM      9  O   UNL     1      -3.644   4.967   0.027  0.00  0.00    -0.146 OA
BRANCH   7  10
ATOM     10  N   UNL     1      -2.650   3.006   1.155  0.00  0.00    -0.118 NA
ATOM     11  C   UNL     1      -1.561   2.808   0.486  0.00  0.00    +0.117 C 
ATOM     12  C   UNL     1      -0.864   3.975  -0.124  0.00  0.00    +0.073 C 
ATOM     13  C   UNL     1      -1.313   4.153  -1.591  0.00  0.00    +0.008 C 
ATOM     14  C   UNL     1      -0.787   3.054  -2.431  0.00  0.00    +0.002 C 
ATOM     15  C   UNL     1      -1.312   1.674  -2.064  0.00  0.00    +0.019 C 
ATOM     16  C   UNL     1      -0.499   1.083  -0.939  0.00  0.00    +0.102 C 
ATOM     17  N   UNL     1      -1.073   1.516   0.357  0.00  0.00    -0.331 N 
ATOM     18  H   UNL     1      -1.109   0.902   1.107  0.00  0.00    +0.147 HD
ENDBRANCH   7  10
ENDBRANCH   4   7
BRANCH   1  19
ATOM     19  N   UNL     1      -8.203   4.136   4.552  0.00  0.00    -0.216 N 
ATOM     20  H   UNL     1      -8.224   3.569   5.339  0.00  0.00    +0.174 HD
BRANCH  19  21
ATOM     21  S   UNL     1      -9.552   4.989   4.110  0.00  0.00    +0.076 S 
ATOM     22  O   UNL     1      -9.799   4.679   2.745  0.00  0.00    -0.150 OA
ATOM     23  O   UNL     1     -10.520   4.774   5.128  0.00  0.00    -0.150 OA
BRANCH  21  29
ATOM     24  C   UNL     1      -8.789   7.287   5.382  0.00  0.00    +0.147 A 
ATOM     25  C   UNL     1      -8.455   8.636   5.434  0.00  0.00    +0.048 A 
ATOM     26  C   UNL     1      -8.460   9.393   4.285  0.00  0.00    +0.019 A 
ATOM     27  C   UNL     1      -8.802   8.805   3.064  0.00  0.00    +0.065 A 
ATOM     28  C   UNL     1      -9.132   7.448   3.014  0.00  0.00    +0.047 A 
ATOM     29  C   UNL     1      -9.130   6.698   4.170  0.00  0.00    +0.151 A 
BRANCH  27  30
ATOM     30  C   UNL     1      -8.808   9.613   1.830  0.00  0.00    +0.387 C 
ATOM     31  O   UNL     1      -9.105   9.100   0.769  0.00  0.00    -0.241 OA
ATOM     32  O   UNL     1      -8.485  10.920   1.879  0.00  0.00    -0.241 OA
ENDBRANCH  27  30
BRANCH  24  34
ATOM     33  C   UNL     1      -8.314   7.181   7.707  0.00  0.00    +0.277 C 
ATOM     34  O   UNL     1      -8.783   6.544   6.517  0.00  0.00    -0.493 OA
ENDBRANCH  24  34
ENDBRANCH  21  29
ENDBRANCH  19  21
ENDBRANCH   1  19
TORSDOF 7
