REMARK  Name = ZINC12445859
REMARK  8 active torsions:
REMARK  status: ('A' for Active; 'I' for Inactive)
REMARK    1  A    between atoms: C_1  and  C_2
REMARK    2  A    between atoms: C_4  and  N_9
REMARK    3  A    between atoms: N_9  and  C_10
REMARK    4  A    between atoms: C_10  and  C_11
REMARK    5  A    between atoms: N_13  and  N_14
REMARK    6  A    between atoms: C_15  and  C_16
REMARK    7  A    between atoms: C_15  and  C_17
REMARK    8  A    between atoms: C_20  and  N_23
REMARK                            x       y       z     vdW  Elec       q    Type
REMARK                         _______ _______ _______ _____ _____    ______ ____
ROOT
ATOM      1  C   UNL     1       2.406   0.752  -0.017  0.00  0.00    +0.249 C 
ATOM      2  O   UNL     1       2.201  -0.444  -0.021  0.00  0.00    -0.272 OA
ATOM      3  N   UNL     1       3.671   1.218  -0.026  0.00  0.00    -0.205 N 
ATOM      4  H   UNL     1       3.835   2.174  -0.023  0.00  0.00    +0.177 HD
ENDROOT
BRANCH   3   5
ATOM      5  N   UNL     1       4.748   0.323  -0.042  0.00  0.00    -0.185 NA
ATOM      6  C   UNL     1       5.965   0.772  -0.051  0.00  0.00    +0.063 C 
ATOM      7  C   UNL     1       6.220   2.257  -0.045  0.00  0.00    +0.068 C 
BRANCH   6   8
ATOM      8  C   UNL     1       7.099  -0.171  -0.067  0.00  0.00    -0.002 A 
ATOM      9  C   UNL     1       8.411   0.309  -0.082  0.00  0.00    +0.012 A 
ATOM     10  C   UNL     1       9.466  -0.579  -0.091  0.00  0.00    +0.033 A 
ATOM     11  C   UNL     1       9.228  -1.942  -0.096  0.00  0.00    +0.126 A 
ATOM     12  C   UNL     1       7.931  -2.425  -0.087  0.00  0.00    +0.033 A 
ATOM     13  C   UNL     1       6.866  -1.549  -0.072  0.00  0.00    +0.012 A 
BRANCH  11  14
ATOM     14  N   UNL     1      10.366  -2.889  -0.112  0.00  0.00    +0.056 N 
ATOM     15  O   UNL     1      10.160  -4.089  -0.116  0.00  0.00    -0.126 OA
ATOM     16  O   UNL     1      11.509  -2.467  -0.120  0.00  0.00    -0.126 OA
ENDBRANCH  11  14
ENDBRANCH   6   8
ENDBRANCH   3   5
BRANCH   1  17
ATOM     17  C   UNL     1       1.248   1.716  -0.001  0.00  0.00    +0.199 C 
BRANCH  17  18
ATOM     18  N   UNL     1      -0.011   0.966   0.007  0.00  0.00    -0.335 N 
ATOM     19  H   UNL     1       0.002  -0.004   0.002  0.00  0.00    +0.147 HD
BRANCH  18  23
ATOM     20  C   UNL     1      -4.924   0.847   0.029  0.00  0.00    +0.045 C 
ATOM     21  C   UNL     1      -3.628   1.616   0.028  0.00  0.00    -0.036 A 
ATOM     22  C   UNL     1      -2.424   0.939   0.019  0.00  0.00    +0.027 A 
ATOM     23  C   UNL     1      -1.230   1.648   0.017  0.00  0.00    +0.028 A 
ATOM     24  C   UNL     1      -1.251   3.037   0.030  0.00  0.00    +0.024 A 
ATOM     25  C   UNL     1      -2.458   3.708   0.033  0.00  0.00    +0.016 A 
ATOM     26  C   UNL     1      -3.645   2.999   0.035  0.00  0.00    +0.016 A 
ATOM     27  I   UNL     1      -5.474   4.021   0.050  0.00  0.00    -0.044 I 
ENDBRANCH  18  23
ENDBRANCH  17  18
ENDBRANCH   1  17
TORSDOF 6
