REMARK  Name = ZINC04173456
REMARK  7 active torsions:
REMARK  status: ('A' for Active; 'I' for Inactive)
REMARK    1  A    between atoms: C_1  and  N_2
REMARK    2  A    between atoms: C_3  and  C_11
REMARK    3  A    between atoms: C_5  and  C_7
REMARK    4  A    between atoms: N_13  and  C_14
REMARK    5  A    between atoms: C_17  and  S_20
REMARK    6  A    between atoms: S_20  and  N_23
REMARK    7  A    between atoms: N_23  and  C_24
REMARK                            x       y       z     vdW  Elec       q    Type
REMARK                         _______ _______ _______ _____ _____    ______ ____
ROOT
ATOM      1  C   UNL     1      -6.642   5.331  -0.967  0.00  0.00    +0.034 A 
ATOM      2  C   UNL     1      -6.093   6.290  -0.125  0.00  0.00    +0.025 A 
ATOM      3  C   UNL     1      -4.725   6.480  -0.097  0.00  0.00    +0.030 A 
ATOM      4  C   UNL     1      -3.902   5.716  -0.905  0.00  0.00    +0.105 A 
ATOM      5  C   UNL     1      -4.446   4.765  -1.748  0.00  0.00    +0.030 A 
ATOM      6  C   UNL     1      -5.813   4.567  -1.778  0.00  0.00    +0.025 A 
ENDROOT
BRANCH   1   9
ATOM      7  C   UNL     1      -8.528   3.898  -1.175  0.00  0.00    +0.266 C 
ATOM      8  O   UNL     1      -7.782   2.937  -1.202  0.00  0.00    -0.268 OA
ATOM      9  N   UNL     1      -8.026   5.136  -0.998  0.00  0.00    -0.280 N 
ATOM     10  H   UNL     1      -8.705   5.993  -0.879  0.00  0.00    +0.155 HD
BRANCH   7  13
ATOM     11  C   UNL     1     -10.017   1.196  -1.399  0.00  0.00    +0.173 C 
ATOM     12  N   UNL     1     -10.644   2.519  -1.433  0.00  0.00    -0.262 N 
ATOM     13  C   UNL     1      -9.978   3.708  -1.334  0.00  0.00    +0.124 A 
ATOM     14  C   UNL     1     -10.942   4.699  -1.419  0.00  0.00    +0.066 A 
ATOM     15  C   UNL     1     -12.155   4.023  -1.562  0.00  0.00    +0.166 A 
ATOM     16  N   UNL     1     -11.903   2.739  -1.559  0.00  0.00    -0.167 NA
BRANCH  15  17
ATOM     17  C   UNL     1     -13.515   4.660  -1.697  0.00  0.00    +0.436 C 
ATOM     18  F   UNL     1     -13.794   4.880  -3.050  0.00  0.00    -0.164 F 
ATOM     19  F   UNL     1     -14.484   3.809  -1.153  0.00  0.00    -0.164 F 
ATOM     20  F   UNL     1     -13.528   5.880  -1.013  0.00  0.00    -0.164 F 
ENDBRANCH  15  17
ENDBRANCH   7  13
ENDBRANCH   1   9
BRANCH   4  21
ATOM     21  S   UNL     1      -2.158   5.962  -0.866  0.00  0.00    +0.059 S 
ATOM     22  O   UNL     1      -1.948   7.346  -0.622  0.00  0.00    -0.153 OA
ATOM     23  O   UNL     1      -1.629   5.301  -2.007  0.00  0.00    -0.153 OA
BRANCH  21  24
ATOM     24  N   UNL     1      -1.580   5.155   0.460  0.00  0.00    -0.184 NA
ATOM     25  H   UNL     1      -1.433   5.704   1.401  0.00  0.00    +0.149 HD
BRANCH  24  26
ATOM     26  C   UNL     1      -1.476   3.694   0.440  0.00  0.00    +0.041 C 
ATOM     27  C   UNL     1      -0.308   3.278  -0.458  0.00  0.00    +0.027 C 
ATOM     28  C   UNL     1      -0.200   1.752  -0.478  0.00  0.00    -0.009 C 
ATOM     29  C   UNL     1       0.041   1.238   0.943  0.00  0.00    +0.007 C 
ATOM     30  C   UNL     1      -1.126   1.654   1.840  0.00  0.00    -0.009 C 
ATOM     31  C   UNL     1      -1.235   3.180   1.861  0.00  0.00    +0.027 C 
ATOM     32  C   UNL     1      -2.426   1.058   1.295  0.00  0.00    +0.007 C 
ATOM     33  C   UNL     1      -2.667   1.571  -0.126  0.00  0.00    -0.009 C 
ATOM     34  C   UNL     1      -1.499   1.155  -1.023  0.00  0.00    +0.007 C 
ATOM     35  C   UNL     1      -2.775   3.097  -0.105  0.00  0.00    +0.027 C 
ENDBRANCH  24  26
ENDBRANCH  21  24
ENDBRANCH   4  21
TORSDOF 6
