REMARK  Name = ZINC04387637
REMARK  6 active torsions:
REMARK  status: ('A' for Active; 'I' for Inactive)
REMARK    1  A    between atoms: C_1  and  C_2
REMARK    2  A    between atoms: C_6  and  C_7
REMARK    3  A    between atoms: C_9  and  C_21
REMARK    4  A    between atoms: C_11  and  C_16
REMARK    5  A    between atoms: C_11  and  O_20
REMARK    6  A    between atoms: C_21  and  C_23
REMARK                            x       y       z     vdW  Elec       q    Type
REMARK                         _______ _______ _______ _____ _____    ______ ____
ROOT
ATOM      1  C   UNL     1       2.564  -1.514  -0.031  0.00  0.00    +0.126 C 
ATOM      2  C   UNL     1       2.499  -2.140  -1.428  0.00  0.00    +0.139 C 
ATOM      3  C   UNL     1       3.210  -3.497  -1.388  0.00  0.00    +0.243 C 
ATOM      4  N   UNL     1       2.610  -4.325  -0.341  0.00  0.00    -0.264 N 
ATOM      5  C   UNL     1       2.053  -3.775   0.749  0.00  0.00    +0.302 C 
ATOM      6  O   UNL     1       1.578  -4.509   1.595  0.00  0.00    -0.253 OA
ATOM      7  N   UNL     1       1.999  -2.449   0.943  0.00  0.00    -0.291 N 
ATOM      8  H   UNL     1       2.616  -5.290  -0.436  0.00  0.00    +0.153 HD
ATOM      9  H   UNL     1       1.577  -2.103   1.745  0.00  0.00    +0.151 HD
ENDROOT
BRANCH   1  15
ATOM     10  C   UNL     1       3.698   1.341  -0.026  0.00  0.00    +0.044 C 
ATOM     11  C   UNL     1       2.220   1.048  -0.013  0.00  0.00    -0.038 A 
ATOM     12  C   UNL     1       1.300   2.079   0.001  0.00  0.00    +0.011 A 
ATOM     13  C   UNL     1      -0.022   1.781   0.012  0.00  0.00    +0.046 A 
ATOM     14  S   UNL     1       0.002  -0.004   0.002  0.00  0.00    -0.099 S 
ATOM     15  C   UNL     1       1.773  -0.232  -0.016  0.00  0.00    +0.014 A 
ENDBRANCH   1  15
BRANCH   3  16
ATOM     16  C   UNL     1       3.058  -4.195  -2.741  0.00  0.00    +0.436 C 
ATOM     17  F   UNL     1       1.700  -4.385  -3.018  0.00  0.00    -0.166 F 
ATOM     18  F   UNL     1       3.632  -3.403  -3.742  0.00  0.00    -0.166 F 
ATOM     19  F   UNL     1       3.704  -5.436  -2.701  0.00  0.00    -0.166 F 
ENDBRANCH   3  16
BRANCH   2  20
ATOM     20  C   UNL     1       1.060  -2.336  -1.828  0.00  0.00    +0.140 C 
ATOM     21  O   UNL     1       0.208  -2.451  -0.980  0.00  0.00    -0.297 OA
ATOM     22  C   UNL     1       0.683  -2.389  -3.286  0.00  0.00    +0.086 C 
ENDBRANCH   2  20
BRANCH   3  23
ATOM     23  O   UNL     1       4.597  -3.299  -1.106  0.00  0.00    -0.364 OA
ATOM     24  H   UNL     1       5.110  -4.118  -1.061  0.00  0.00    +0.212 HD
ENDBRANCH   3  23
TORSDOF 4
