REMARK  Name = ZINC40062332
REMARK  8 active torsions:
REMARK  status: ('A' for Active; 'I' for Inactive)
REMARK    1  A    between atoms: C_1  and  C_2
REMARK    2  A    between atoms: C_3  and  C_17
REMARK    3  A    between atoms: N_6  and  C_7
REMARK    4  A    between atoms: C_11  and  C_13
REMARK    5  A    between atoms: C_17  and  C_19
REMARK    6  A    between atoms: C_17  and  N_20
REMARK    7  A    between atoms: N_20  and  S_21
REMARK    8  A    between atoms: S_21  and  C_24
REMARK                            x       y       z     vdW  Elec       q    Type
REMARK                         _______ _______ _______ _____ _____    ______ ____
ROOT
ATOM      1  C   UNL     1      -0.006  -0.327  -2.527  0.00  0.00    +0.107 C 
ATOM      2  C   UNL     1       1.425  -0.028  -2.980  0.00  0.00    +0.031 C 
ENDROOT
BRANCH   1   5
ATOM      3  C   UNL     1      -0.018   1.503   0.010  0.00  0.00    +0.066 C 
ATOM      4  C   UNL     1       0.002  -0.004   0.002  0.00  0.00    +0.047 A 
ATOM      5  C   UNL     1       0.008  -0.796  -1.095  0.00  0.00    +0.012 A 
ATOM      6  C   UNL     1       0.029  -2.127  -0.665  0.00  0.00    +0.140 A 
ATOM      7  N   UNL     1       0.035  -2.135   0.644  0.00  0.00    -0.174 NA
ATOM      8  N   UNL     1       0.024  -0.807   1.090  0.00  0.00    -0.237 N 
BRANCH   8   9
ATOM      9  C   UNL     1       0.031  -0.386   2.426  0.00  0.00    +0.066 A 
ATOM     10  C   UNL     1       0.704   0.774   2.787  0.00  0.00    +0.028 A 
ATOM     11  C   UNL     1       0.709   1.187   4.104  0.00  0.00    +0.003 A 
ATOM     12  C   UNL     1       0.045   0.446   5.065  0.00  0.00    +0.012 A 
ATOM     13  C   UNL     1      -0.625  -0.710   4.710  0.00  0.00    +0.057 A 
ATOM     14  C   UNL     1      -0.638  -1.125   3.392  0.00  0.00    +0.040 A 
BRANCH  13  15
ATOM     15  C   UNL     1      -1.347  -1.514   5.760  0.00  0.00    +0.417 C 
ATOM     16  F   UNL     1      -1.196  -0.897   7.006  0.00  0.00    -0.166 F 
ATOM     17  F   UNL     1      -2.706  -1.589   5.438  0.00  0.00    -0.166 F 
ATOM     18  F   UNL     1      -0.808  -2.804   5.811  0.00  0.00    -0.166 F 
ENDBRANCH  13  15
ENDBRANCH   8   9
ENDBRANCH   1   5
BRANCH   1  19
ATOM     19  N   UNL     1      -0.579  -1.373  -3.378  0.00  0.00    -0.183 NA
ATOM     20  H   UNL     1      -0.418  -2.307  -3.173  0.00  0.00    +0.149 HD
BRANCH  19  21
ATOM     21  S   UNL     1      -1.502  -0.960  -4.690  0.00  0.00    +0.059 S 
ATOM     22  O   UNL     1      -1.883  -2.177  -5.317  0.00  0.00    -0.153 OA
ATOM     23  O   UNL     1      -2.453  -0.008  -4.234  0.00  0.00    -0.153 OA
BRANCH  21  24
ATOM     24  C   UNL     1      -0.448  -0.117  -5.823  0.00  0.00    +0.107 A 
ATOM     25  C   UNL     1      -0.306   1.256  -5.742  0.00  0.00    +0.032 A 
ATOM     26  C   UNL     1       0.519   1.925  -6.627  0.00  0.00    +0.049 A 
ATOM     27  C   UNL     1       1.206   1.217  -7.599  0.00  0.00    +0.142 A 
ATOM     28  C   UNL     1       1.062  -0.167  -7.681  0.00  0.00    +0.078 A 
ATOM     29  C   UNL     1       0.238  -0.832  -6.788  0.00  0.00    +0.055 A 
ATOM     30  N   UNL     1       1.761  -0.871  -8.672  0.00  0.00    -0.280 N 
ATOM     31  C   UNL     1       2.783  -0.261  -9.311  0.00  0.00    +0.255 C 
ATOM     32  O   UNL     1       3.382  -0.840 -10.193  0.00  0.00    -0.272 OA
ATOM     33  C   UNL     1       3.176   1.142  -8.923  0.00  0.00    +0.325 C 
ATOM     34  O   UNL     1       2.022   1.859  -8.477  0.00  0.00    -0.481 OA
ATOM     35  H   UNL     1       1.514  -1.782  -8.895  0.00  0.00    +0.155 HD
ENDBRANCH  21  24
ENDBRANCH  19  21
ENDBRANCH   1  19
TORSDOF 6
