REMARK  Name = ZINC63491110
REMARK  9 active torsions:
REMARK  status: ('A' for Active; 'I' for Inactive)
REMARK    1  A    between atoms: C_1  and  O_2
REMARK    2  A    between atoms: O_2  and  C_3
REMARK    3  A    between atoms: C_6  and  C_11
REMARK    4  A    between atoms: C_8  and  O_9
REMARK    5  A    between atoms: O_9  and  C_10
REMARK    6  A    between atoms: C_17  and  C_18
REMARK    7  A    between atoms: N_20  and  C_21
REMARK    8  A    between atoms: C_21  and  C_22
REMARK    9  A    between atoms: C_22  and  C_23
REMARK                            x       y       z     vdW  Elec       q    Type
REMARK                         _______ _______ _______ _____ _____    ______ ____
ROOT
ATOM      1  C   UNL     1       3.102  -2.897  -4.546  0.00  0.00    +0.159 C 
ATOM      2  N   UNL     1       3.960  -1.851  -5.133  0.00  0.00    -0.331 N 
ATOM      3  C   UNL     1       3.562  -1.258  -6.277  0.00  0.00    +0.020 C 
ATOM      4  C   UNL     1       2.585  -2.062  -7.126  0.00  0.00    +0.121 C 
ATOM      5  S   UNL     1       1.761  -3.057  -5.800  0.00  0.00    -0.128 S 
ATOM      6  C   UNL     1       3.998  -0.035  -6.644  0.00  0.00    +0.086 C 
ATOM      7  H   UNL     1       4.793  -1.596  -4.705  0.00  0.00    +0.147 HD
ENDROOT
BRANCH   1  11
ATOM      8  C   UNL     1       1.520  -1.628  -0.781  0.00  0.00    +0.162 A 
ATOM      9  C   UNL     1       1.856  -0.692  -1.745  0.00  0.00    +0.050 A 
ATOM     10  C   UNL     1       2.368  -1.105  -2.961  0.00  0.00    +0.010 A 
ATOM     11  C   UNL     1       2.544  -2.452  -3.218  0.00  0.00    -0.014 A 
ATOM     12  C   UNL     1       2.210  -3.391  -2.261  0.00  0.00    +0.055 A 
ATOM     13  C   UNL     1       1.703  -2.983  -1.038  0.00  0.00    +0.162 A 
BRANCH   8  15
ATOM     14  C   UNL     1       0.856   0.184   0.609  0.00  0.00    +0.277 C 
ATOM     15  O   UNL     1       1.017  -1.222   0.416  0.00  0.00    -0.491 OA
ENDBRANCH   8  15
BRANCH  13  16
ATOM     16  O   UNL     1       1.379  -3.905  -0.092  0.00  0.00    -0.491 OA
ATOM     17  C   UNL     1       1.593  -5.279  -0.425  0.00  0.00    +0.277 C 
ENDBRANCH  13  16
ENDBRANCH   1  11
BRANCH   6  18
ATOM     18  C   UNL     1       4.782   0.733  -5.752  0.00  0.00    +0.238 C 
ATOM     19  O   UNL     1       4.971   0.341  -4.615  0.00  0.00    -0.271 OA
ATOM     20  N   UNL     1       5.319   1.900  -6.160  0.00  0.00    -0.311 N 
ATOM     21  H   UNL     1       5.168   2.212  -7.066  0.00  0.00    +0.149 HD
BRANCH  20  22
ATOM     22  C   UNL     1       6.130   2.696  -5.236  0.00  0.00    +0.109 C 
BRANCH  22  23
ATOM     23  C   UNL     1       6.615   3.962  -5.945  0.00  0.00    +0.052 C 
BRANCH  23  24
ATOM     24  C   UNL     1       7.450   4.782  -4.995  0.00  0.00    -0.040 C 
ATOM     25  C   UNL     1       8.797   4.771  -4.880  0.00  0.00    -0.001 A 
ATOM     26  C   UNL     1       9.849   4.021  -5.577  0.00  0.00    +0.010 A 
ATOM     27  C   UNL     1      11.140   4.229  -5.234  0.00  0.00    +0.001 A 
ATOM     28  C   UNL     1      11.499   5.140  -4.231  0.00  0.00    +0.002 A 
ATOM     29  C   UNL     1      10.590   5.865  -3.545  0.00  0.00    +0.026 A 
ATOM     30  C   UNL     1       9.202   5.727  -3.824  0.00  0.00    +0.043 A 
ATOM     31  N   UNL     1       8.146   6.306  -3.307  0.00  0.00    -0.380 N 
ATOM     32  C   UNL     1       6.951   5.787  -3.981  0.00  0.00    +0.144 C 
ATOM     33  H   UNL     1       8.154   6.970  -2.600  0.00  0.00    +0.160 HD
ENDBRANCH  23  24
ENDBRANCH  22  23
ENDBRANCH  20  22
ENDBRANCH   6  18
TORSDOF 7
