REMARK  Name = ZINC13466333
REMARK  6 active torsions:
REMARK  status: ('A' for Active; 'I' for Inactive)
REMARK    1  A    between atoms: C_1  and  S_2
REMARK    2  A    between atoms: S_2  and  C_22
REMARK    3  A    between atoms: N_3  and  S_4
REMARK    4  A    between atoms: S_4  and  N_7
REMARK    5  A    between atoms: N_10  and  C_11
REMARK    6  A    between atoms: C_15  and  C_17
REMARK                            x       y       z     vdW  Elec       q    Type
REMARK                         _______ _______ _______ _____ _____    ______ ____
ROOT
ATOM      1  N   UNL     1       2.053  -0.230   3.523  0.00  0.00    -0.153 N 
ATOM      2  C   UNL     1       3.110  -1.028   3.274  0.00  0.00    +0.324 C 
ATOM      3  O   UNL     1       3.549  -1.120   2.144  0.00  0.00    -0.251 OA
ATOM      4  N   UNL     1       3.679  -1.725   4.277  0.00  0.00    -0.268 N 
ATOM      5  H   UNL     1       1.702  -0.157   4.425  0.00  0.00    +0.180 HD
ATOM      6  H   UNL     1       3.372  -1.602   5.189  0.00  0.00    +0.156 HD
ENDROOT
BRANCH   4   7
ATOM      7  C   UNL     1       4.714  -2.627   4.003  0.00  0.00    +0.035 A 
ATOM      8  C   UNL     1       4.821  -3.805   4.732  0.00  0.00    +0.023 A 
ATOM      9  C   UNL     1       5.843  -4.693   4.459  0.00  0.00    +0.002 A 
ATOM     10  C   UNL     1       6.758  -4.411   3.461  0.00  0.00    +0.012 A 
ATOM     11  C   UNL     1       6.654  -3.240   2.734  0.00  0.00    +0.057 A 
ATOM     12  C   UNL     1       5.631  -2.350   2.998  0.00  0.00    +0.035 A 
BRANCH  11  13
ATOM     13  C   UNL     1       7.654  -2.936   1.649  0.00  0.00    +0.417 C 
ATOM     14  F   UNL     1       8.583  -3.979   1.566  0.00  0.00    -0.166 F 
ATOM     15  F   UNL     1       6.989  -2.805   0.425  0.00  0.00    -0.166 F 
ATOM     16  F   UNL     1       8.319  -1.742   1.948  0.00  0.00    -0.166 F 
ENDBRANCH  11  13
ENDBRANCH   4   7
BRANCH   1  17
ATOM     17  S   UNL     1       1.353   0.626   2.291  0.00  0.00    +0.162 S 
ATOM     18  O   UNL     1       2.409   1.275   1.596  0.00  0.00    -0.131 OA
ATOM     19  O   UNL     1       0.264   1.340   2.860  0.00  0.00    -0.131 OA
BRANCH  17  22
ATOM     20  C   UNL     1      -0.025   1.810   0.014  0.00  0.00    +0.140 C 
ATOM     21  S   UNL     1      -0.009  -0.004   0.011  0.00  0.00    +0.098 S 
ATOM     22  N   UNL     1       0.700  -0.474   1.239  0.00  0.00    -0.058 NA
ATOM     23  O   UNL     1       0.630  -0.571  -1.124  0.00  0.00    -0.241 OA
BRANCH  21  24
ATOM     24  C   UNL     1      -1.674  -0.578   0.062  0.00  0.00    +0.049 A 
ATOM     25  C   UNL     1      -2.292  -0.800   1.278  0.00  0.00    +0.018 A 
ATOM     26  C   UNL     1      -3.598  -1.251   1.318  0.00  0.00    +0.001 A 
ATOM     27  C   UNL     1      -4.286  -1.480   0.141  0.00  0.00    +0.000 A 
ATOM     28  C   UNL     1      -3.668  -1.257  -1.075  0.00  0.00    +0.001 A 
ATOM     29  C   UNL     1      -2.364  -0.802  -1.115  0.00  0.00    +0.018 A 
ENDBRANCH  21  24
ENDBRANCH  17  22
ENDBRANCH   1  17
TORSDOF 5
