REMARK  Name = ZINC15087694
REMARK  8 active torsions:
REMARK  status: ('A' for Active; 'I' for Inactive)
REMARK    1  A    between atoms: C_1  and  C_2
REMARK    2  A    between atoms: C_5  and  N_8
REMARK    3  A    between atoms: N_23  and  C_24
REMARK    4  A    between atoms: C_24  and  C_25
REMARK    5  A    between atoms: N_27  and  C_28
REMARK    6  A    between atoms: C_31  and  O_34
REMARK    7  A    between atoms: C_35  and  C_36
REMARK    8  A    between atoms: C_35  and  C_37
REMARK                            x       y       z     vdW  Elec       q    Type
REMARK                         _______ _______ _______ _____ _____    ______ ____
ROOT
ATOM      1  N   UNL     1      -0.119  -4.173  -0.035  0.00  0.00    -0.209 N 
ATOM      2  C   UNL     1       0.070  -4.942   1.069  0.00  0.00    +0.232 C 
ATOM      3  O   UNL     1       0.487  -4.579   2.148  0.00  0.00    -0.274 OA
ATOM      4  C   UNL     1      -0.342  -6.328   0.685  0.00  0.00    +0.109 C 
ATOM      5  C   UNL     1       0.002  -6.316  -0.835  0.00  0.00    +0.152 C 
ATOM      6  C   UNL     1      -0.352  -4.891  -1.164  0.00  0.00    +0.240 C 
ATOM      7  O   UNL     1      -0.761  -4.468  -2.224  0.00  0.00    -0.274 OA
ATOM      8  S   UNL     1      -1.057  -7.577  -1.590  0.00  0.00    -0.093 S 
ATOM      9  C   UNL     1      -0.750  -8.948  -0.487  0.00  0.00    +0.091 A 
ATOM     10  C   UNL     1      -0.137  -8.763   0.703  0.00  0.00    +0.031 A 
ATOM     11  S   UNL     1      -0.071 -10.399   1.383  0.00  0.00    -0.030 S 
ATOM     12  C   UNL     1      -0.829 -11.221   0.126  0.00  0.00    +0.292 A 
ATOM     13  O   UNL     1      -1.071 -12.412   0.040  0.00  0.00    -0.259 OA
ATOM     14  N   UNL     1      -1.104 -10.246  -0.761  0.00  0.00    -0.288 N 
ATOM     15  C   UNL     1       0.361  -7.506   1.311  0.00  0.00    +0.012 C 
ATOM     16  C   UNL     1       0.085  -7.530   2.815  0.00  0.00    +0.017 C 
ATOM     17  C   UNL     1       1.867  -7.398   1.062  0.00  0.00    +0.017 C 
ENDROOT
BRANCH   1  22
ATOM     18  C   UNL     1       0.027   1.500   0.066  0.00  0.00    +0.044 C 
ATOM     19  C   UNL     1      -0.012  -0.006   0.039  0.00  0.00    -0.050 A 
ATOM     20  C   UNL     1      -0.254  -0.669  -1.150  0.00  0.00    +0.005 A 
ATOM     21  C   UNL     1      -0.290  -2.050  -1.178  0.00  0.00    +0.024 A 
ATOM     22  C   UNL     1      -0.082  -2.772  -0.010  0.00  0.00    +0.044 A 
ATOM     23  C   UNL     1       0.161  -2.103   1.182  0.00  0.00    +0.024 A 
ATOM     24  C   UNL     1       0.200  -0.723   1.202  0.00  0.00    +0.005 A 
ENDBRANCH   1  22
BRANCH  14  25
ATOM     25  C   UNL     1      -1.782 -10.570  -2.019  0.00  0.00    +0.222 C 
BRANCH  25  26
ATOM     26  C   UNL     1      -0.755 -10.893  -3.074  0.00  0.00    +0.237 C 
ATOM     27  O   UNL     1       0.426 -10.856  -2.802  0.00  0.00    -0.274 OA
ATOM     28  N   UNL     1      -1.150 -11.223  -4.320  0.00  0.00    -0.284 N 
ATOM     29  H   UNL     1      -2.095 -11.312  -4.522  0.00  0.00    +0.155 HD
BRANCH  28  30
ATOM     30  C   UNL     1      -0.196 -11.437  -5.323  0.00  0.00    +0.034 A 
ATOM     31  C   UNL     1      -0.466 -11.057  -6.631  0.00  0.00    +0.027 A 
ATOM     32  C   UNL     1       0.475 -11.268  -7.620  0.00  0.00    +0.047 A 
ATOM     33  C   UNL     1       1.690 -11.859  -7.306  0.00  0.00    +0.117 A 
ATOM     34  C   UNL     1       1.961 -12.239  -6.000  0.00  0.00    +0.047 A 
ATOM     35  C   UNL     1       1.023 -12.023  -5.009  0.00  0.00    +0.027 A 
BRANCH  33  36
ATOM     36  O   UNL     1       2.616 -12.066  -8.280  0.00  0.00    -0.507 OA
ATOM     37  H   UNL     1       3.230 -11.330  -8.402  0.00  0.00    +0.292 HD
ENDBRANCH  33  36
ENDBRANCH  28  30
ENDBRANCH  25  26
ENDBRANCH  14  25
TORSDOF 5
