REMARK  Name = ZINC35337667
REMARK  6 active torsions:
REMARK  status: ('A' for Active; 'I' for Inactive)
REMARK    1  A    between atoms: C_1  and  C_2
REMARK    2  A    between atoms: C_3  and  C_27
REMARK    3  A    between atoms: C_4  and  C_13
REMARK    4  A    between atoms: C_16  and  N_19
REMARK    5  A    between atoms: C_20  and  C_22
REMARK    6  A    between atoms: N_29  and  C_30
REMARK                            x       y       z     vdW  Elec       q    Type
REMARK                         _______ _______ _______ _____ _____    ______ ____
ROOT
ATOM      1  C   UNL     1      -0.292   1.442   0.366  0.00  0.00    +0.064 C 
ATOM      2  C   UNL     1      -0.264   0.018  -0.127  0.00  0.00    +0.025 C 
ATOM      3  C   UNL     1      -1.351  -0.780   0.065  0.00  0.00    +0.058 C 
ATOM      4  C   UNL     1      -1.346  -2.181  -0.494  0.00  0.00    +0.142 C 
ATOM      5  N   UNL     1       0.050  -2.637  -0.622  0.00  0.00    -0.300 N 
ATOM      6  C   UNL     1       0.343  -4.034  -0.321  0.00  0.00    +0.109 C 
ATOM      7  C   UNL     1       1.345  -4.653  -1.284  0.00  0.00    +0.030 C 
ATOM      8  C   UNL     1       2.705  -3.960  -1.114  0.00  0.00    +0.078 C 
ATOM      9  S   UNL     1       2.523  -2.252  -1.711  0.00  0.00    -0.092 S 
ATOM     10  C   UNL     1       1.005  -1.733  -0.977  0.00  0.00    +0.135 C 
ATOM     11  N   UNL     1       0.820  -0.439  -0.747  0.00  0.00    -0.341 N 
ATOM     12  H   UNL     1       1.496   0.193  -1.037  0.00  0.00    +0.167 HD
ENDROOT
BRANCH   4  13
ATOM     13  C   UNL     1      -2.008  -2.187  -1.848  0.00  0.00    -0.022 A 
ATOM     14  C   UNL     1      -1.299  -1.782  -2.964  0.00  0.00    +0.007 A 
ATOM     15  C   UNL     1      -1.903  -1.787  -4.206  0.00  0.00    +0.023 A 
ATOM     16  C   UNL     1      -3.223  -2.198  -4.333  0.00  0.00    +0.033 A 
ATOM     17  C   UNL     1      -3.932  -2.604  -3.210  0.00  0.00    +0.023 A 
ATOM     18  C   UNL     1      -3.321  -2.602  -1.972  0.00  0.00    +0.007 A 
BRANCH  16  19
ATOM     19  N   UNL     1      -3.838  -2.203  -5.590  0.00  0.00    -0.285 N 
ATOM     20  C   UNL     1      -3.113  -2.472  -6.694  0.00  0.00    +0.220 C 
ATOM     21  O   UNL     1      -1.950  -2.801  -6.590  0.00  0.00    -0.275 OA
ATOM     22  H   UNL     1      -4.786  -2.013  -5.667  0.00  0.00    +0.155 HD
BRANCH  20  23
ATOM     23  C   UNL     1      -3.747  -2.365  -8.057  0.00  0.00    +0.075 C 
ATOM     24  C   UNL     1      -4.897  -3.385  -8.187  0.00  0.00    +0.013 C 
ATOM     25  C   UNL     1      -4.809  -3.872  -9.654  0.00  0.00    +0.001 C 
ATOM     26  C   UNL     1      -3.281  -3.943  -9.899  0.00  0.00    +0.001 C 
ATOM     27  C   UNL     1      -2.720  -2.720  -9.146  0.00  0.00    +0.013 C 
ENDBRANCH  20  23
ENDBRANCH  16  19
ENDBRANCH   4  13
BRANCH   3  28
ATOM     28  C   UNL     1      -2.466  -0.302   0.777  0.00  0.00    +0.248 C 
ATOM     29  O   UNL     1      -2.463   0.831   1.226  0.00  0.00    -0.270 OA
ATOM     30  N   UNL     1      -3.538  -1.098   0.962  0.00  0.00    -0.282 N 
ATOM     31  H   UNL     1      -3.512  -2.023   0.671  0.00  0.00    +0.155 HD
BRANCH  30  32
ATOM     32  C   UNL     1      -4.688  -0.590   1.575  0.00  0.00    +0.034 A 
ATOM     33  C   UNL     1      -5.049   0.738   1.385  0.00  0.00    +0.023 A 
ATOM     34  C   UNL     1      -6.186   1.236   1.992  0.00  0.00    +0.002 A 
ATOM     35  C   UNL     1      -6.963   0.415   2.788  0.00  0.00    +0.000 A 
ATOM     36  C   UNL     1      -6.606  -0.907   2.979  0.00  0.00    +0.002 A 
ATOM     37  C   UNL     1      -5.474  -1.414   2.370  0.00  0.00    +0.023 A 
ENDBRANCH  30  32
ENDBRANCH   3  28
TORSDOF 5
