REMARK  Name = ZINC23334555
REMARK  10 active torsions:
REMARK  status: ('A' for Active; 'I' for Inactive)
REMARK    1  A    between atoms: C_1  and  C_2
REMARK    2  A    between atoms: C_2  and  O_3
REMARK    3  A    between atoms: O_3  and  C_4
REMARK    4  A    between atoms: C_4  and  C_6
REMARK    5  A    between atoms: C_7  and  C_14
REMARK    6  A    between atoms: C_8  and  C_12
REMARK    7  A    between atoms: C_9  and  N_11
REMARK    8  A    between atoms: C_14  and  N_15
REMARK    9  A    between atoms: N_18  and  C_21
REMARK   10  A    between atoms: C_21  and  C_22
REMARK                            x       y       z     vdW  Elec       q    Type
REMARK                         _______ _______ _______ _____ _____    ______ ____
ROOT
ATOM      1  C   UNL     1      -1.143   3.505   0.031  0.00  0.00    +0.100 A 
ATOM      2  C   UNL     1      -1.213   2.126   0.019  0.00  0.00    -0.024 A 
ATOM      3  C   UNL     1      -0.017   1.428   0.010  0.00  0.00    +0.082 A 
ATOM      4  C   UNL     1       1.171   2.166   0.003  0.00  0.00    +0.081 A 
ATOM      5  S   UNL     1       0.614   3.807   0.016  0.00  0.00    -0.066 S 
ENDROOT
BRANCH   4   6
ATOM      6  N   UNL     1       2.467   1.702  -0.011  0.00  0.00    -0.352 N 
ATOM      7  H   UNL     1       3.306   2.414  -0.016  0.00  0.00    +0.143 HD
ATOM      8  H   UNL     1       2.664   0.620  -0.018  0.00  0.00    +0.143 HD
ENDBRANCH   4   6
BRANCH   1   9
ATOM      9  C   UNL     1      -2.204   4.446   0.045  0.00  0.00    +0.346 C 
ATOM     10  O   UNL     1      -3.358   4.061   0.053  0.00  0.00    -0.244 OA
BRANCH   9  11
ATOM     11  O   UNL     1      -1.933   5.768   0.049  0.00  0.00    -0.461 OA
BRANCH  11  13
ATOM     12  C   UNL     1      -2.550   8.105   0.065  0.00  0.00    +0.048 C 
ATOM     13  C   UNL     1      -3.050   6.659   0.063  0.00  0.00    +0.229 C 
ENDBRANCH  11  13
ENDBRANCH   9  11
ENDBRANCH   1   9
BRANCH   3  14
ATOM     14  C   UNL     1       0.002  -0.004   0.002  0.00  0.00    +0.102 C 
ATOM     15  N   UNL     1       0.018  -1.140  -0.004  0.00  0.00    -0.191 NA
ENDBRANCH   3  14
BRANCH   2  16
ATOM     16  C   UNL     1      -2.539   1.409   0.022  0.00  0.00    -0.040 C 
BRANCH  16  17
ATOM     17  N   UNL     1      -2.963   1.170   1.408  0.00  0.00    +0.384 N 
ATOM     18  C   UNL     1      -2.058   0.228   2.080  0.00  0.00    -0.063 C 
ATOM     19  C   UNL     1      -2.487   0.067   3.541  0.00  0.00    +0.066 C 
ATOM     20  N   UNL     1      -3.875  -0.413   3.591  0.00  0.00    -0.301 NA
ATOM     21  C   UNL     1      -4.779   0.529   2.919  0.00  0.00    +0.066 C 
ATOM     22  C   UNL     1      -4.351   0.690   1.458  0.00  0.00    -0.063 C 
ATOM     23  H   UNL     1      -2.915   2.129   1.945  0.00  0.00    -0.081 HD
BRANCH  20  24
ATOM     24  C   UNL     1      -4.299  -0.653   4.977  0.00  0.00    +0.126 C 
BRANCH  24  25
ATOM     25  C   UNL     1      -3.226  -1.420   5.705  0.00  0.00    +0.005 A 
ATOM     26  C   UNL     1      -2.170  -0.948   6.412  0.00  0.00    +0.014 A 
ATOM     27  C   UNL     1      -1.302  -1.848   7.003  0.00  0.00    +0.028 A 
ATOM     28  C   UNL     1      -1.535  -3.177   6.859  0.00  0.00    +0.078 A 
ATOM     29  S   UNL     1      -3.020  -3.186   5.868  0.00  0.00    -0.080 S 
ATOM     30 CL   UNL     1      -0.628  -4.519   7.482  0.00  0.00    -0.076 Cl
ENDBRANCH  24  25
ENDBRANCH  20  24
ENDBRANCH  16  17
ENDBRANCH   2  16
TORSDOF 9
