REMARK  Name = ZINC35596818
REMARK  8 active torsions:
REMARK  status: ('A' for Active; 'I' for Inactive)
REMARK    1  A    between atoms: C_1  and  C_2
REMARK    2  A    between atoms: C_5  and  N_9
REMARK    3  A    between atoms: C_6  and  C_8
REMARK    4  A    between atoms: C_12  and  C_15
REMARK    5  A    between atoms: N_17  and  C_18
REMARK    6  A    between atoms: C_18  and  C_19
REMARK    7  A    between atoms: C_22  and  S_25
REMARK    8  A    between atoms: S_25  and  N_28
REMARK                            x       y       z     vdW  Elec       q    Type
REMARK                         _______ _______ _______ _____ _____    ______ ____
ROOT
ATOM      1  C   UNL     1      -0.336  -8.102  -2.880  0.00  0.00    +0.263 C 
ATOM      2  O   UNL     1      -0.418  -8.544  -4.010  0.00  0.00    -0.269 OA
ATOM      3  N   UNL     1      -0.344  -8.941  -1.825  0.00  0.00    -0.306 N 
ATOM      4  H   UNL     1      -0.279  -8.588  -0.924  0.00  0.00    +0.149 HD
ENDROOT
BRANCH   1   8
ATOM      5  N   UNL     1       0.058  -4.168  -0.021  0.00  0.00    -0.294 N 
ATOM      6  C   UNL     1      -0.043  -4.856  -1.220  0.00  0.00    +0.163 A 
ATOM      7  N   UNL     1      -0.140  -6.153  -1.429  0.00  0.00    -0.220 NA
ATOM      8  C   UNL     1      -0.230  -6.650  -2.664  0.00  0.00    +0.135 A 
ATOM      9  C   UNL     1      -0.222  -5.786  -3.731  0.00  0.00    +0.081 A 
ATOM     10  S   UNL     1      -0.086  -4.216  -2.887  0.00  0.00    -0.060 S 
ATOM     11  H   UNL     1      -0.039  -4.642   0.820  0.00  0.00    +0.154 HD
BRANCH   5  16
ATOM     12  C   UNL     1       1.042   1.417  -0.031  0.00  0.00    +0.044 C 
ATOM     13  C   UNL     1       0.780  -0.067  -0.028  0.00  0.00    -0.050 A 
ATOM     14  C   UNL     1       1.298  -0.860  -1.036  0.00  0.00    +0.005 A 
ATOM     15  C   UNL     1       1.061  -2.221  -1.036  0.00  0.00    +0.024 A 
ATOM     16  C   UNL     1       0.301  -2.792  -0.023  0.00  0.00    +0.036 A 
ATOM     17  C   UNL     1      -0.218  -1.992   0.987  0.00  0.00    -0.029 A 
ATOM     18  C   UNL     1       0.028  -0.633   0.985  0.00  0.00    +0.008 A 
ATOM     19  C   UNL     1      -1.043  -2.607   2.087  0.00  0.00    +0.045 C 
ENDBRANCH   5  16
ENDBRANCH   1   8
BRANCH   3  20
ATOM     20  C   UNL     1      -0.450 -10.386  -2.040  0.00  0.00    +0.140 C 
BRANCH  20  21
ATOM     21  C   UNL     1      -0.436 -11.094  -0.710  0.00  0.00    -0.030 A 
ATOM     22  C   UNL     1       0.764 -11.493  -0.152  0.00  0.00    +0.007 A 
ATOM     23  C   UNL     1       0.777 -12.142   1.068  0.00  0.00    +0.029 A 
ATOM     24  C   UNL     1      -0.410 -12.392   1.731  0.00  0.00    +0.105 A 
ATOM     25  C   UNL     1      -1.610 -11.992   1.173  0.00  0.00    +0.029 A 
ATOM     26  C   UNL     1      -1.623 -11.339  -0.045  0.00  0.00    +0.007 A 
BRANCH  24  27
ATOM     27  S   UNL     1      -0.394 -13.221   3.286  0.00  0.00    +0.056 S 
ATOM     28  O   UNL     1      -1.673 -13.819   3.441  0.00  0.00    -0.153 OA
ATOM     29  O   UNL     1       0.810 -13.975   3.331  0.00  0.00    -0.153 OA
BRANCH  27  30
ATOM     30  N   UNL     1      -0.269 -12.059   4.459  0.00  0.00    -0.204 NA
ATOM     31  H   UNL     1      -0.661 -12.208   5.333  0.00  0.00    +0.144 HD
ATOM     32  H   UNL     1       0.197 -11.228   4.271  0.00  0.00    +0.144 HD
ENDBRANCH  27  30
ENDBRANCH  24  27
ENDBRANCH  20  21
ENDBRANCH   3  20
TORSDOF 6
