REMARK  Name = ZINC11910771
REMARK  8 active torsions:
REMARK  status: ('A' for Active; 'I' for Inactive)
REMARK    1  A    between atoms: C_1  and  C_2
REMARK    2  A    between atoms: C_2  and  O_3
REMARK    3  A    between atoms: O_3  and  C_4
REMARK    4  A    between atoms: C_4  and  C_6
REMARK    5  A    between atoms: N_11  and  C_13
REMARK    6  A    between atoms: C_14  and  C_27
REMARK    7  A    between atoms: C_17  and  C_18
REMARK    8  A    between atoms: C_32  and  C_35
REMARK                            x       y       z     vdW  Elec       q    Type
REMARK                         _______ _______ _______ _____ _____    ______ ____
ROOT
ATOM      1  C   UNL     1      -0.167   1.036  -7.208  0.00  0.00    +0.112 A 
ATOM      2  C   UNL     1      -0.720   1.282  -8.478  0.00  0.00    +0.075 A 
ATOM      3  C   UNL     1      -0.124   0.698  -9.604  0.00  0.00    +0.018 A 
ATOM      4  C   UNL     1       0.987  -0.099  -9.422  0.00  0.00    +0.027 A 
ATOM      5  C   UNL     1       1.483  -0.300  -8.131  0.00  0.00    +0.054 A 
ATOM      6  N   UNL     1       0.932   0.257  -7.007  0.00  0.00    -0.342 N 
ATOM      7  H   UNL     1       1.324   0.097  -6.071  0.00  0.00    +0.167 HD
ENDROOT
BRANCH   5   8
ATOM      8  C   UNL     1       2.672  -1.152  -7.933  0.00  0.00    +0.037 A 
ATOM      9  C   UNL     1       3.304  -1.464  -6.773  0.00  0.00    +0.026 A 
ATOM     10  C   UNL     1       4.434  -2.306  -6.793  0.00  0.00    -0.010 A 
ATOM     11  C   UNL     1       5.220  -2.746  -5.698  0.00  0.00    +0.009 A 
ATOM     12  C   UNL     1       6.289  -3.561  -5.893  0.00  0.00    +0.001 A 
ATOM     13  C   UNL     1       6.654  -3.992  -7.163  0.00  0.00    +0.001 A 
ATOM     14  C   UNL     1       5.915  -3.586  -8.257  0.00  0.00    +0.015 A 
ATOM     15  C   UNL     1       4.828  -2.760  -8.073  0.00  0.00    +0.020 A 
ATOM     16  S   UNL     1       3.635  -2.019  -9.159  0.00  0.00    -0.087 S 
ENDBRANCH   5   8
BRANCH   2  17
ATOM     17  C   UNL     1      -1.907   2.141  -8.622  0.00  0.00    +0.250 C 
ATOM     18  O   UNL     1      -2.918   1.892  -7.994  0.00  0.00    -0.270 OA
ATOM     19  N   UNL     1      -1.873   3.204  -9.450  0.00  0.00    -0.297 N 
ATOM     20  C   UNL     1      -0.690   3.470 -10.280  0.00  0.00    +0.109 C 
ATOM     21  C   UNL     1      -0.222   4.903 -10.034  0.00  0.00    +0.032 C 
ATOM     22  C   UNL     1      -1.386   5.866 -10.274  0.00  0.00    +0.078 C 
ATOM     23  C   UNL     1      -2.520   5.552  -9.294  0.00  0.00    +0.032 C 
ATOM     24  C   UNL     1      -3.016   4.123  -9.536  0.00  0.00    +0.109 C 
BRANCH  22  25
ATOM     25  C   UNL     1      -0.918   7.282 -10.062  0.00  0.00    +0.214 C 
ATOM     26  O   UNL     1      -1.439   7.973  -9.212  0.00  0.00    -0.276 OA
ATOM     27  N   UNL     1       0.080   7.782 -10.818  0.00  0.00    -0.329 N 
ATOM     28  H   UNL     1       0.497   7.230 -11.497  0.00  0.00    +0.145 HD
ATOM     29  H   UNL     1       0.382   8.694 -10.681  0.00  0.00    +0.145 HD
ENDBRANCH  22  25
ENDBRANCH   2  17
BRANCH   1  34
ATOM     30  C   UNL     1      -1.426   1.298  -3.755  0.00  0.00    +0.115 C 
ATOM     31  C   UNL     1      -0.831   2.663  -3.401  0.00  0.00    +0.018 C 
ATOM     32  C   UNL     1      -0.890   3.571  -4.633  0.00  0.00    +0.020 C 
ATOM     33  C   UNL     1      -0.134   2.908  -5.787  0.00  0.00    +0.106 C 
ATOM     34  N   UNL     1      -0.742   1.605  -6.087  0.00  0.00    -0.315 N 
ATOM     35  C   UNL     1      -0.655   0.700  -4.934  0.00  0.00    +0.121 C 
BRANCH  30  36
ATOM     36  C   UNL     1      -1.319   0.379  -2.565  0.00  0.00    +0.312 C 
ATOM     37  O   UNL     1      -0.689  -0.649  -2.651  0.00  0.00    -0.250 OA
BRANCH  36  38
ATOM     38  O   UNL     1      -1.922   0.702  -1.411  0.00  0.00    -0.465 OA
BRANCH  38  40
ATOM     39  C   UNL     1      -2.525   0.305   0.915  0.00  0.00    +0.048 C 
ATOM     40  C   UNL     1      -1.775  -0.230  -0.307  0.00  0.00    +0.229 C 
ENDBRANCH  38  40
ENDBRANCH  36  38
ENDBRANCH  30  36
ENDBRANCH   1  34
TORSDOF 7
