REMARK  Name = ZINC38547534
REMARK  11 active torsions:
REMARK  status: ('A' for Active; 'I' for Inactive)
REMARK    1  A    between atoms: C_1  and  C_2
REMARK    2  A    between atoms: C_3  and  C_35
REMARK    3  A    between atoms: C_5  and  N_26
REMARK    4  A    between atoms: C_6  and  C_7
REMARK    5  A    between atoms: C_7  and  C_9
REMARK    6  A    between atoms: C_7  and  N_19
REMARK    7  A    between atoms: C_11  and  O_17
REMARK    8  A    between atoms: C_14  and  O_15
REMARK    9  A    between atoms: O_15  and  C_16
REMARK   10  A    between atoms: O_17  and  C_18
REMARK   11  A    between atoms: C_27  and  C_29
REMARK                            x       y       z     vdW  Elec       q    Type
REMARK                         _______ _______ _______ _____ _____    ______ ____
ROOT
ATOM      1  C   UNL     1       0.242  -0.022   2.467  0.00  0.00    +0.138 C 
ENDROOT
BRANCH   1   2
ATOM      2  N   UNL     1       1.317  -0.712   3.184  0.00  0.00    -0.319 N 
ATOM      3  C   UNL     1       1.919  -0.109   4.282  0.00  0.00    +0.097 A 
ATOM      4  C   UNL     1       1.422   1.098   4.765  0.00  0.00    +0.041 A 
ATOM      5  C   UNL     1       2.031   1.687   5.858  0.00  0.00    +0.005 A 
ATOM      6  C   UNL     1       3.120   1.048   6.435  0.00  0.00    +0.018 A 
ATOM      7  C   UNL     1       3.561  -0.148   5.905  0.00  0.00    +0.084 A 
ATOM      8  N   UNL     1       2.957  -0.690   4.864  0.00  0.00    -0.350 N 
ATOM      9  H   UNL     1       1.609  -1.590   2.893  0.00  0.00    +0.148 HD
ATOM     10  H   UNL     1       3.284  -1.534   4.513  0.00  0.00    +0.166 HD
ENDBRANCH   1   2
BRANCH   1  16
ATOM     11  C   UNL     1       0.168   1.773   0.173  0.00  0.00    +0.045 C 
ATOM     12  C   UNL     1       0.104   0.280  -0.022  0.00  0.00    -0.033 A 
ATOM     13  C   UNL     1       0.017  -0.247  -1.267  0.00  0.00    -0.008 A 
ATOM     14  S   UNL     1      -0.027  -1.999  -0.928  0.00  0.00    -0.078 S 
ATOM     15  C   UNL     1       0.074  -1.915   0.853  0.00  0.00    +0.078 A 
ATOM     16  C   UNL     1       0.139  -0.571   1.067  0.00  0.00    +0.009 A 
ATOM     17  C   UNL     1      -0.031   0.463  -2.595  0.00  0.00    +0.052 C 
BRANCH  15  18
ATOM     18  N   UNL     1       0.088  -2.956   1.783  0.00  0.00    -0.276 N 
ATOM     19  C   UNL     1       0.111  -4.236   1.362  0.00  0.00    +0.249 C 
ATOM     20  O   UNL     1       0.202  -4.484   0.175  0.00  0.00    -0.270 OA
ATOM     21  H   UNL     1       0.081  -2.758   2.733  0.00  0.00    +0.156 HD
BRANCH  19  22
ATOM     22  C   UNL     1       0.025  -5.339   2.343  0.00  0.00    +0.037 A 
ATOM     23  C   UNL     1      -0.196  -5.061   3.693  0.00  0.00    +0.013 A 
ATOM     24  C   UNL     1      -0.275  -6.094   4.603  0.00  0.00    +0.001 A 
ATOM     25  C   UNL     1      -0.135  -7.404   4.180  0.00  0.00    +0.000 A 
ATOM     26  C   UNL     1       0.086  -7.687   2.844  0.00  0.00    +0.001 A 
ATOM     27  C   UNL     1       0.161  -6.663   1.922  0.00  0.00    +0.013 A 
ENDBRANCH  19  22
ENDBRANCH  15  18
ENDBRANCH   1  16
BRANCH   1  28
ATOM     28  C   UNL     1      -1.062  -0.238   3.189  0.00  0.00    +0.022 A 
ATOM     29  C   UNL     1      -1.191  -1.280   4.087  0.00  0.00    +0.055 A 
ATOM     30  C   UNL     1      -2.392  -1.478   4.752  0.00  0.00    +0.121 A 
ATOM     31  C   UNL     1      -3.464  -0.630   4.515  0.00  0.00    +0.049 A 
ATOM     32  C   UNL     1      -3.335   0.412   3.617  0.00  0.00    +0.049 A 
ATOM     33  C   UNL     1      -2.133   0.613   2.956  0.00  0.00    +0.126 A 
BRANCH  33  34
ATOM     34  O   UNL     1      -2.004   1.642   2.077  0.00  0.00    -0.495 OA
ATOM     35  C   UNL     1      -3.147   2.479   1.886  0.00  0.00    +0.277 C 
ENDBRANCH  33  34
BRANCH  30  36
ATOM     36  O   UNL     1      -2.519  -2.504   5.635  0.00  0.00    -0.495 OA
ATOM     37  C   UNL     1      -3.784  -2.649   6.284  0.00  0.00    +0.277 C 
ENDBRANCH  30  36
ENDBRANCH   1  28
TORSDOF 7
