REMARK  Name = ZINC58836599
REMARK  5 active torsions:
REMARK  status: ('A' for Active; 'I' for Inactive)
REMARK    1  A    between atoms: C_9  and  O_32
REMARK    2  A    between atoms: C_10  and  C_11
REMARK    3  A    between atoms: N_12  and  N_13
REMARK    4  A    between atoms: C_17  and  C_22
REMARK    5  A    between atoms: N_24  and  C_25
REMARK                            x       y       z     vdW  Elec       q    Type
REMARK                         _______ _______ _______ _____ _____    ______ ____
ROOT
ATOM      1  N   UNL     1       7.510  -0.253  -0.046  0.00  0.00    -0.137 N 
ATOM      2  C   UNL     1       8.617  -0.978   0.026  0.00  0.00    +0.243 C 
ATOM      3  O   UNL     1       8.460  -2.152   0.285  0.00  0.00    -0.273 OA
ATOM      4  C   UNL     1      10.028  -0.542  -0.170  0.00  0.00    +0.122 C 
ATOM      5  C   UNL     1      10.240   0.931   0.181  0.00  0.00    +0.149 C 
ATOM      6  S   UNL     1       8.991   1.908  -0.720  0.00  0.00    -0.076 S 
ATOM      7  C   UNL     1       7.491   1.126  -0.196  0.00  0.00    +0.177 C 
ATOM      8  N   UNL     1       6.414   1.819   0.043  0.00  0.00    -0.278 NA
ATOM      9  H   UNL     1       6.423   2.783  -0.068  0.00  0.00    +0.189 HD
ENDROOT
BRANCH   5  10
ATOM     10  C   UNL     1      11.623   1.361  -0.236  0.00  0.00    +0.231 C 
ATOM     11  O   UNL     1      12.124   0.900  -1.240  0.00  0.00    -0.274 OA
ATOM     12  N   UNL     1      12.303   2.257   0.507  0.00  0.00    -0.285 N 
ATOM     13  H   UNL     1      11.933   2.571   1.347  0.00  0.00    +0.155 HD
BRANCH  12  14
ATOM     14  C   UNL     1      13.542   2.735   0.065  0.00  0.00    +0.033 A 
ATOM     15  C   UNL     1      14.538   3.038   0.984  0.00  0.00    +0.024 A 
ATOM     16  C   UNL     1      15.760   3.509   0.545  0.00  0.00    +0.017 A 
ATOM     17  C   UNL     1      15.992   3.680  -0.808  0.00  0.00    +0.018 A 
ATOM     18  C   UNL     1      15.001   3.379  -1.725  0.00  0.00    +0.017 A 
ATOM     19  C   UNL     1      13.779   2.903  -1.293  0.00  0.00    +0.024 A 
ATOM     20 BR   UNL     1      17.666   4.326  -1.404  0.00  0.00    -0.050 Br
ENDBRANCH  12  14
ENDBRANCH   5  10
BRANCH   1  22
ATOM     21  C   UNL     1       5.479  -0.923  -0.995  0.00  0.00    +0.143 C 
ATOM     22  N   UNL     1       6.282  -0.922   0.028  0.00  0.00    -0.178 NA
BRANCH  21  32
ATOM     23  C   UNL     1       1.555  -1.787  -4.226  0.00  0.00    +0.001 A 
ATOM     24  C   UNL     1       2.719  -1.027  -4.300  0.00  0.00    +0.001 A 
ATOM     25  C   UNL     1       3.598  -0.989  -3.258  0.00  0.00    +0.009 A 
ATOM     26  C   UNL     1       3.327  -1.724  -2.098  0.00  0.00    -0.006 A 
ATOM     27  C   UNL     1       2.144  -2.498  -2.019  0.00  0.00    -0.017 A 
ATOM     28  C   UNL     1       1.261  -2.514  -3.113  0.00  0.00    +0.008 A 
ATOM     29  C   UNL     1       1.873  -3.235  -0.853  0.00  0.00    +0.012 A 
ATOM     30  C   UNL     1       2.733  -3.213   0.199  0.00  0.00    +0.046 A 
ATOM     31  C   UNL     1       3.910  -2.466   0.170  0.00  0.00    +0.126 A 
ATOM     32  C   UNL     1       4.240  -1.712  -0.957  0.00  0.00    +0.044 A 
BRANCH  31  33
ATOM     33  O   UNL     1       4.740  -2.472   1.244  0.00  0.00    -0.506 OA
ATOM     34  H   UNL     1       5.412  -3.167   1.218  0.00  0.00    +0.292 HD
ENDBRANCH  31  33
ENDBRANCH  21  32
ENDBRANCH   1  22
TORSDOF 5
