REMARK  Name = ZINC34867669
REMARK  8 active torsions:
REMARK  status: ('A' for Active; 'I' for Inactive)
REMARK    1  A    between atoms: C_1  and  C_2
REMARK    2  A    between atoms: C_7  and  C_9
REMARK    3  A    between atoms: C_7  and  C_10
REMARK    4  A    between atoms: N_16  and  C_24
REMARK    5  A    between atoms: C_24  and  C_25
REMARK    6  A    between atoms: N_27  and  C_28
REMARK    7  A    between atoms: C_32  and  C_34
REMARK    8  A    between atoms: N_36  and  C_37
REMARK                            x       y       z     vdW  Elec       q    Type
REMARK                         _______ _______ _______ _____ _____    ______ ____
ROOT
ATOM      1  C   UNL     1      -0.023   1.524   0.058  0.00  0.00    +0.013 C 
ATOM      2  C   UNL     1      -0.002  -0.012   0.038  0.00  0.00    -0.014 C 
ATOM      3  C   UNL     1       0.687  -0.577  -1.234  0.00  0.00    +0.030 C 
ATOM      4  C   UNL     1       0.128  -2.022  -1.211  0.00  0.00    +0.076 C 
ATOM      5  C   UNL     1       0.880  -2.782  -0.121  0.00  0.00    +0.029 C 
ATOM      6  C   UNL     1       0.823  -2.121   1.244  0.00  0.00    -0.033 C 
ATOM      7  C   UNL     1       0.719  -0.607   1.246  0.00  0.00    +0.014 C 
ATOM      8  C   UNL     1       2.135  -2.489   1.982  0.00  0.00    +0.011 C 
ATOM      9  C   UNL     1      -0.322  -2.728   2.067  0.00  0.00    +0.011 C 
ATOM     10  N   UNL     1      -1.286  -1.875  -0.810  0.00  0.00    -0.307 N 
ATOM     11  C   UNL     1      -1.420  -0.618  -0.058  0.00  0.00    +0.113 C 
ATOM     12  C   UNL     1      -2.310  -2.759  -1.099  0.00  0.00    +0.188 A 
ATOM     13  C   UNL     1      -3.681  -2.476  -0.635  0.00  0.00    +0.292 A 
ATOM     14  O   UNL     1      -3.920  -1.467   0.003  0.00  0.00    -0.264 OA
ATOM     15  N   UNL     1      -4.668  -3.351  -0.927  0.00  0.00    -0.295 N 
ATOM     16  C   UNL     1      -4.364  -4.488  -1.654  0.00  0.00    +0.071 A 
ATOM     17  C   UNL     1      -5.361  -5.405  -1.968  0.00  0.00    +0.028 A 
ATOM     18  C   UNL     1      -5.051  -6.536  -2.693  0.00  0.00    +0.002 A 
ATOM     19  C   UNL     1      -3.748  -6.767  -3.112  0.00  0.00    +0.002 A 
ATOM     20  C   UNL     1      -2.754  -5.880  -2.814  0.00  0.00    +0.030 A 
ATOM     21  C   UNL     1      -3.044  -4.723  -2.078  0.00  0.00    +0.090 A 
ATOM     22  N   UNL     1      -2.062  -3.843  -1.789  0.00  0.00    -0.225 NA
ENDROOT
BRANCH  15  23
ATOM     23  C   UNL     1      -6.040  -3.100  -0.480  0.00  0.00    +0.221 C 
BRANCH  23  24
ATOM     24  C   UNL     1      -6.775  -2.312  -1.534  0.00  0.00    +0.237 C 
ATOM     25  O   UNL     1      -6.208  -1.993  -2.558  0.00  0.00    -0.274 OA
ATOM     26  N   UNL     1      -8.062  -1.964  -1.339  0.00  0.00    -0.284 N 
ATOM     27  H   UNL     1      -8.536  -2.276  -0.552  0.00  0.00    +0.155 HD
BRANCH  26  28
ATOM     28  C   UNL     1      -8.716  -1.151  -2.273  0.00  0.00    +0.034 A 
ATOM     29  C   UNL     1      -9.652  -0.216  -1.846  0.00  0.00    +0.023 A 
ATOM     30  C   UNL     1     -10.300   0.589  -2.763  0.00  0.00    +0.003 A 
ATOM     31  C   UNL     1     -10.023   0.469  -4.110  0.00  0.00    +0.013 A 
ATOM     32  C   UNL     1      -9.085  -0.466  -4.549  0.00  0.00    +0.038 A 
ATOM     33  C   UNL     1      -8.426  -1.274  -3.622  0.00  0.00    +0.036 A 
BRANCH  32  34
ATOM     34  C   UNL     1      -8.786  -0.596  -5.991  0.00  0.00    +0.244 C 
ATOM     35  O   UNL     1      -7.968  -1.411  -6.372  0.00  0.00    -0.270 OA
ATOM     36  N   UNL     1      -9.419   0.190  -6.884  0.00  0.00    -0.314 N 
ATOM     37  C   UNL     1      -9.123   0.061  -8.313  0.00  0.00    +0.128 C 
ATOM     38  H   UNL     1     -10.072   0.841  -6.581  0.00  0.00    +0.149 HD
ENDBRANCH  32  34
ENDBRANCH  26  28
ENDBRANCH  23  24
ENDBRANCH  15  23
TORSDOF 4
