REMARK  Name = ZINC40514908
REMARK  4 active torsions:
REMARK  status: ('A' for Active; 'I' for Inactive)
REMARK    1  A    between atoms: C_1  and  C_2
REMARK    2  A    between atoms: C_4  and  C_16
REMARK    3  A    between atoms: C_7  and  C_8
REMARK    4  A    between atoms: C_8  and  N_10
REMARK                            x       y       z     vdW  Elec       q    Type
REMARK                         _______ _______ _______ _____ _____    ______ ____
ROOT
ATOM      1  C   UNL     1      -0.303   1.485   0.027  0.00  0.00    +0.044 C 
ATOM      2  C   UNL     1      -0.135  -0.013   0.010  0.00  0.00    -0.036 A 
ATOM      3  C   UNL     1      -0.093  -0.708  -1.186  0.00  0.00    +0.027 A 
ATOM      4  C   UNL     1       0.062  -2.083  -1.168  0.00  0.00    +0.041 A 
ATOM      5  N   UNL     1       0.170  -2.744  -0.032  0.00  0.00    -0.232 NA
ATOM      6  C   UNL     1       0.136  -2.129   1.138  0.00  0.00    +0.164 A 
ATOM      7  C   UNL     1      -0.013  -0.735   1.203  0.00  0.00    +0.050 A 
ATOM      8  N   UNL     1       0.254  -2.869   2.313  0.00  0.00    -0.221 N 
ATOM      9  C   UNL     1      -0.085  -4.175   2.475  0.00  0.00    +0.116 A 
ATOM     10  C   UNL     1       0.182  -4.511   3.757  0.00  0.00    +0.041 A 
ATOM     11  C   UNL     1       0.701  -3.381   4.401  0.00  0.00    +0.135 A 
ATOM     12  N   UNL     1       0.749  -2.401   3.537  0.00  0.00    -0.173 NA
ATOM     13  C   UNL     1       0.108  -2.839  -2.471  0.00  0.00    +0.065 C 
ENDROOT
BRANCH   7  14
ATOM     14  C   UNL     1      -0.045  -0.043   2.505  0.00  0.00    +0.081 C 
ATOM     15  S   UNL     1      -1.516   0.080   3.373  0.00  0.00    -0.035 S 
BRANCH  14  16
ATOM     16  N   UNL     1       1.083   0.492   3.012  0.00  0.00    -0.352 N 
ATOM     17  H   UNL     1       1.930   0.360   2.557  0.00  0.00    +0.143 HD
ATOM     18  H   UNL     1       1.049   1.009   3.832  0.00  0.00    +0.143 HD
ENDBRANCH  14  16
ENDBRANCH   7  14
TORSDOF 2
