REMARK  Name = ZINC15958228
REMARK  5 active torsions:
REMARK  status: ('A' for Active; 'I' for Inactive)
REMARK    1  A    between atoms: C_1  and  C_2
REMARK    2  A    between atoms: C_2  and  C_4
REMARK    3  A    between atoms: C_7  and  N_10
REMARK    4  A    between atoms: C_15  and  C_32
REMARK    5  A    between atoms: C_32  and  C_33
REMARK                            x       y       z     vdW  Elec       q    Type
REMARK                         _______ _______ _______ _____ _____    ______ ____
ROOT
ATOM      1  N   UNL     1      -4.695  -3.430  -0.404  0.00  0.00    -0.210 N 
ATOM      2  C   UNL     1      -5.817  -2.883   0.078  0.00  0.00    +0.232 C 
ATOM      3  O   UNL     1      -5.894  -1.798   0.612  0.00  0.00    -0.274 OA
ATOM      4  C   UNL     1      -6.974  -3.829  -0.148  0.00  0.00    +0.108 C 
ATOM      5  C   UNL     1      -7.943  -3.213  -1.180  0.00  0.00    +0.072 C 
ATOM      6  N   UNL     1      -7.410  -3.633  -2.503  0.00  0.00    -0.295 NA
ATOM      7  C   UNL     1      -6.947  -5.016  -2.283  0.00  0.00    +0.136 C 
ATOM      8  C   UNL     1      -6.315  -5.038  -0.869  0.00  0.00    +0.123 C 
ATOM      9  C   UNL     1      -4.859  -4.636  -0.959  0.00  0.00    +0.233 C 
ATOM     10  O   UNL     1      -3.978  -5.304  -1.456  0.00  0.00    -0.274 OA
ATOM     11  C   UNL     1      -5.967  -5.444  -3.337  0.00  0.00    +0.003 A 
ATOM     12  C   UNL     1      -4.740  -4.967  -3.743  0.00  0.00    +0.008 A 
ATOM     13  C   UNL     1      -4.059  -5.592  -4.772  0.00  0.00    +0.000 A 
ATOM     14  C   UNL     1      -4.613  -6.697  -5.392  0.00  0.00    +0.002 A 
ATOM     15  C   UNL     1      -5.841  -7.180  -4.989  0.00  0.00    +0.023 A 
ATOM     16  C   UNL     1      -6.533  -6.557  -3.953  0.00  0.00    +0.039 A 
ATOM     17  N   UNL     1      -7.768  -6.854  -3.373  0.00  0.00    -0.283 N 
ATOM     18  C   UNL     1      -8.084  -5.996  -2.384  0.00  0.00    +0.243 C 
ATOM     19  O   UNL     1      -9.090  -6.011  -1.706  0.00  0.00    -0.273 OA
ATOM     20  H   UNL     1      -8.129  -3.600  -3.210  0.00  0.00    +0.124 HD
ATOM     21  H   UNL     1      -8.334  -7.591  -3.651  0.00  0.00    +0.155 HD
ENDROOT
BRANCH   1  25
ATOM     22  C   UNL     1      -0.993  -1.524  -0.202  0.00  0.00    +0.017 A 
ATOM     23  C   UNL     1      -2.010  -1.000  -1.009  0.00  0.00    +0.013 A 
ATOM     24  C   UNL     1      -3.230  -1.633  -1.073  0.00  0.00    +0.024 A 
ATOM     25  C   UNL     1      -3.454  -2.792  -0.336  0.00  0.00    +0.044 A 
ATOM     26  C   UNL     1      -2.447  -3.317   0.467  0.00  0.00    +0.024 A 
ATOM     27  C   UNL     1      -1.221  -2.694   0.532  0.00  0.00    +0.013 A 
BRANCH  22  29
ATOM     28  C   UNL     1       0.555   0.407  -0.922  0.00  0.00    +0.091 C 
ATOM     29  C   UNL     1       0.312  -0.853  -0.131  0.00  0.00    +0.160 C 
ATOM     30  O   UNL     1       1.193  -1.311   0.565  0.00  0.00    -0.292 OA
ENDBRANCH  22  29
ENDBRANCH   1  25
BRANCH   5  31
ATOM     31  C   UNL     1      -9.357  -3.762  -0.976  0.00  0.00    +0.054 C 
BRANCH  31  32
ATOM     32  C   UNL     1     -10.125  -2.841  -0.062  0.00  0.00    -0.046 A 
ATOM     33  C   UNL     1     -10.094  -3.041   1.305  0.00  0.00    +0.004 A 
ATOM     34  C   UNL     1     -10.799  -2.196   2.143  0.00  0.00    +0.000 A 
ATOM     35  C   UNL     1     -11.535  -1.153   1.613  0.00  0.00    +0.000 A 
ATOM     36  C   UNL     1     -11.565  -0.953   0.245  0.00  0.00    +0.000 A 
ATOM     37  C   UNL     1     -10.857  -1.795  -0.592  0.00  0.00    +0.004 A 
ENDBRANCH  31  32
ENDBRANCH   5  31
TORSDOF 4
