REMARK  Name = ZINC09472353
REMARK  9 active torsions:
REMARK  status: ('A' for Active; 'I' for Inactive)
REMARK    1  A    between atoms: C_1  and  C_2
REMARK    2  A    between atoms: C_3  and  C_33
REMARK    3  A    between atoms: C_4  and  N_11
REMARK    4  A    between atoms: C_6  and  C_7
REMARK    5  A    between atoms: C_7  and  O_9
REMARK    6  A    between atoms: O_9  and  C_10
REMARK    7  A    between atoms: C_12  and  C_14
REMARK    8  A    between atoms: C_17  and  S_20
REMARK    9  A    between atoms: S_20  and  N_23
REMARK                            x       y       z     vdW  Elec       q    Type
REMARK                         _______ _______ _______ _____ _____    ______ ____
ROOT
ATOM      1  N   UNL     1      -2.642   0.723   2.511  0.00  0.00    -0.275 N 
ATOM      2  C   UNL     1      -3.374   0.273   3.550  0.00  0.00    +0.249 C 
ATOM      3  O   UNL     1      -4.404  -0.339   3.348  0.00  0.00    -0.270 OA
ATOM      4  H   UNL     1      -1.820   1.211   2.672  0.00  0.00    +0.156 HD
ENDROOT
BRANCH   1   8
ATOM      5  C   UNL     1      -2.478   0.876  -2.501  0.00  0.00    +0.046 C 
ATOM      6  C   UNL     1      -3.073   0.510  -1.166  0.00  0.00    -0.015 A 
ATOM      7  C   UNL     1      -2.452   0.870   0.019  0.00  0.00    +0.069 A 
ATOM      8  C   UNL     1      -3.064   0.489   1.217  0.00  0.00    +0.085 A 
ATOM      9  S   UNL     1      -4.484  -0.346   0.679  0.00  0.00    -0.066 S 
ATOM     10  C   UNL     1      -4.247  -0.190  -1.081  0.00  0.00    +0.102 A 
BRANCH   7  11
ATOM     11  C   UNL     1      -1.190   1.622   0.016  0.00  0.00    +0.244 C 
ATOM     12  O   UNL     1      -1.206   2.838   0.023  0.00  0.00    -0.270 OA
ATOM     13  N   UNL     1      -0.014   0.964   0.007  0.00  0.00    -0.325 N 
ATOM     14  H   UNL     1      -0.001  -0.006   0.002  0.00  0.00    +0.145 HD
ATOM     15  H   UNL     1       0.820   1.460   0.001  0.00  0.00    +0.145 HD
ENDBRANCH   7  11
BRANCH  10  16
ATOM     16  C   UNL     1      -5.095  -0.687  -2.164  0.00  0.00    +0.346 C 
ATOM     17  O   UNL     1      -4.779  -0.489  -3.323  0.00  0.00    -0.244 OA
BRANCH  16  18
ATOM     18  O   UNL     1      -6.227  -1.363  -1.879  0.00  0.00    -0.464 OA
ATOM     19  C   UNL     1      -7.006  -1.819  -2.987  0.00  0.00    +0.280 C 
ENDBRANCH  16  18
ENDBRANCH  10  16
ENDBRANCH   1   8
BRANCH   2  20
ATOM     20  C   UNL     1      -2.922   0.523   4.934  0.00  0.00    +0.037 A 
ATOM     21  C   UNL     1      -1.736   1.220   5.170  0.00  0.00    +0.015 A 
ATOM     22  C   UNL     1      -1.323   1.456   6.465  0.00  0.00    +0.029 A 
ATOM     23  C   UNL     1      -2.076   0.992   7.529  0.00  0.00    +0.109 A 
ATOM     24  C   UNL     1      -3.250   0.295   7.303  0.00  0.00    +0.029 A 
ATOM     25  C   UNL     1      -3.677   0.058   6.013  0.00  0.00    +0.015 A 
BRANCH  23  26
ATOM     26  S   UNL     1      -1.538   1.290   9.180  0.00  0.00    +0.075 S 
ATOM     27  O   UNL     1      -0.697   2.434   9.132  0.00  0.00    -0.150 OA
ATOM     28  O   UNL     1      -2.696   1.230  10.002  0.00  0.00    -0.150 OA
BRANCH  26  29
ATOM     29  N   UNL     1      -0.578   0.015   9.621  0.00  0.00    -0.203 N 
ATOM     30  C   UNL     1      -1.141  -1.121  10.363  0.00  0.00    +0.132 C 
ATOM     31  C   UNL     1      -0.172  -1.474  11.494  0.00  0.00    +0.025 C 
ATOM     32  C   UNL     1       1.158  -1.919  10.888  0.00  0.00    +0.038 C 
ATOM     33  C   UNL     1       1.646  -0.906   9.886  0.00  0.00    -0.025 A 
ATOM     34  C   UNL     1       0.783   0.004   9.297  0.00  0.00    +0.054 A 
ATOM     35  C   UNL     1       1.266   0.922   8.372  0.00  0.00    +0.025 A 
ATOM     36  C   UNL     1       2.606   0.930   8.041  0.00  0.00    +0.002 A 
ATOM     37  C   UNL     1       3.467   0.024   8.631  0.00  0.00    +0.000 A 
ATOM     38  C   UNL     1       2.989  -0.891   9.550  0.00  0.00    +0.005 A 
ENDBRANCH  26  29
ENDBRANCH  23  26
ENDBRANCH   2  20
TORSDOF 7
