REMARK  Name = ZINC36048484
REMARK  14 active torsions:
REMARK  status: ('A' for Active; 'I' for Inactive)
REMARK    1  A    between atoms: C_1  and  C_2
REMARK    2  A    between atoms: C_2  and  C_3
REMARK    3  A    between atoms: C_3  and  C_5
REMARK    4  A    between atoms: C_3  and  N_28
REMARK    5  A    between atoms: C_9  and  O_26
REMARK    6  A    between atoms: C_10  and  O_24
REMARK    7  A    between atoms: N_15  and  C_16
REMARK    8  A    between atoms: C_16  and  C_17
REMARK    9  A    between atoms: O_24  and  C_25
REMARK   10  A    between atoms: O_26  and  C_27
REMARK   11  A    between atoms: N_31  and  C_32
REMARK   12  A    between atoms: C_32  and  C_33
REMARK   13  A    between atoms: C_32  and  C_34
REMARK   14  A    between atoms: C_32  and  C_35
REMARK                            x       y       z     vdW  Elec       q    Type
REMARK                         _______ _______ _______ _____ _____    ______ ____
ROOT
ATOM      1  C   UNL     1       0.860  -1.918  -1.115  0.00  0.00    -0.016 C 
ATOM      2  C   UNL     1       1.597  -2.481  -2.301  0.00  0.00    -0.052 A 
ATOM      3  C   UNL     1       1.444  -1.858  -3.532  0.00  0.00    +0.051 A 
ATOM      4  C   UNL     1       2.100  -2.343  -4.648  0.00  0.00    +0.162 A 
ATOM      5  C   UNL     1       2.918  -3.464  -4.536  0.00  0.00    +0.162 A 
ATOM      6  C   UNL     1       3.068  -4.082  -3.308  0.00  0.00    +0.053 A 
ATOM      7  C   UNL     1       2.409  -3.590  -2.191  0.00  0.00    -0.044 A 
ATOM      8  C   UNL     1       2.608  -4.290  -0.870  0.00  0.00    +0.017 C 
ATOM      9  C   UNL     1       1.518  -3.861   0.112  0.00  0.00    -0.073 C 
ATOM     10  N   UNL     1       1.460  -2.392   0.136  0.00  0.00    +0.388 N 
ATOM     11  H   UNL     1       2.393  -2.018   0.226  0.00  0.00    -0.080 HD
ENDROOT
BRANCH   5  12
ATOM     12  O   UNL     1       3.566  -3.949  -5.629  0.00  0.00    -0.491 OA
ATOM     13  C   UNL     1       4.388  -5.102  -5.437  0.00  0.00    +0.277 C 
ENDBRANCH   5  12
BRANCH   4  14
ATOM     14  O   UNL     1       1.947  -1.728  -5.851  0.00  0.00    -0.491 OA
ATOM     15  C   UNL     1       1.092  -0.583  -5.890  0.00  0.00    +0.277 C 
ENDBRANCH   4  14
BRANCH   1  16
ATOM     16  C   UNL     1       0.927  -0.390  -1.159  0.00  0.00    +0.065 C 
BRANCH  16  17
ATOM     17  N   UNL     1       2.168   0.026  -1.816  0.00  0.00    -0.298 N 
ATOM     18  C   UNL     1       2.761   1.184  -1.464  0.00  0.00    +0.300 C 
ATOM     19  O   UNL     1       2.266   1.884  -0.602  0.00  0.00    -0.253 OA
ATOM     20  N   UNL     1       3.903   1.567  -2.069  0.00  0.00    -0.295 N 
ATOM     21  H   UNL     1       2.563  -0.532  -2.504  0.00  0.00    +0.150 HD
ATOM     22  H   UNL     1       4.298   1.009  -2.757  0.00  0.00    +0.151 HD
BRANCH  20  23
ATOM     23  C   UNL     1       4.548   2.826  -1.687  0.00  0.00    +0.028 C 
ATOM     24  C   UNL     1       4.912   2.782  -0.202  0.00  0.00    +0.031 C 
ATOM     25  C   UNL     1       5.817   3.022  -2.518  0.00  0.00    +0.031 C 
ATOM     26  C   UNL     1       3.586   3.989  -1.942  0.00  0.00    +0.031 C 
ENDBRANCH  20  23
ENDBRANCH  16  17
BRANCH  16  28
ATOM     27  C   UNL     1      -0.463   1.634  -1.622  0.00  0.00    +0.005 C 
ATOM     28  C   UNL     1      -0.271   0.150  -1.942  0.00  0.00    +0.017 C 
ENDBRANCH  16  28
ENDBRANCH   1  16
BRANCH  10  29
ATOM     29  C   UNL     1       0.639  -1.952   1.272  0.00  0.00    -0.042 C 
BRANCH  29  30
ATOM     30  C   UNL     1       1.331  -2.312   2.561  0.00  0.00    -0.064 A 
ATOM     31  C   UNL     1       1.092  -3.538   3.154  0.00  0.00    +0.004 A 
ATOM     32  C   UNL     1       1.726  -3.870   4.336  0.00  0.00    +0.038 A 
ATOM     33  C   UNL     1       2.602  -2.975   4.926  0.00  0.00    +0.123 A 
ATOM     34  C   UNL     1       2.841  -1.748   4.332  0.00  0.00    +0.038 A 
ATOM     35  C   UNL     1       2.210  -1.420   3.147  0.00  0.00    +0.004 A 
ATOM     36  F   UNL     1       3.223  -3.298   6.082  0.00  0.00    -0.205 F 
ENDBRANCH  29  30
ENDBRANCH  10  29
TORSDOF 8
