REMARK  Name = ZINC39426537
REMARK  6 active torsions:
REMARK  status: ('A' for Active; 'I' for Inactive)
REMARK    1  A    between atoms: C_1  and  C_2
REMARK    2  A    between atoms: C_2  and  C_4
REMARK    3  A    between atoms: C_2  and  S_21
REMARK    4  A    between atoms: N_6  and  C_7
REMARK    5  A    between atoms: C_10  and  C_15
REMARK    6  A    between atoms: S_21  and  C_22
REMARK                            x       y       z     vdW  Elec       q    Type
REMARK                         _______ _______ _______ _____ _____    ______ ____
ROOT
ATOM      1  C   UNL     1       1.421   0.656   1.184  0.00  0.00    +0.230 C 
ATOM      2  O   UNL     1       1.338   1.356   2.172  0.00  0.00    -0.274 OA
ATOM      3  N   UNL     1       2.079  -0.519   1.244  0.00  0.00    -0.280 N 
ATOM      4  H   UNL     1       2.082  -1.112   0.476  0.00  0.00    +0.155 HD
ENDROOT
BRANCH   3   5
ATOM      5  C   UNL     1       2.757  -0.883   2.415  0.00  0.00    +0.110 A 
ATOM      6  C   UNL     1       2.104  -1.617   3.398  0.00  0.00    +0.183 A 
ATOM      7  C   UNL     1       2.777  -1.976   4.554  0.00  0.00    +0.175 A 
ATOM      8  C   UNL     1       4.099  -1.605   4.731  0.00  0.00    +0.131 A 
ATOM      9  C   UNL     1       4.752  -0.873   3.753  0.00  0.00    +0.175 A 
ATOM     10  C   UNL     1       4.085  -0.516   2.593  0.00  0.00    +0.183 A 
ATOM     11  F   UNL     1       4.724   0.193   1.637  0.00  0.00    -0.200 F 
ATOM     12  F   UNL     1       6.042  -0.512   3.929  0.00  0.00    -0.202 F 
ATOM     13  F   UNL     1       2.143  -2.690   5.510  0.00  0.00    -0.202 F 
ATOM     14  F   UNL     1       0.814  -1.980   3.226  0.00  0.00    -0.200 F 
BRANCH   8  15
ATOM     15  C   UNL     1       4.829  -1.997   5.989  0.00  0.00    +0.423 C 
ATOM     16  F   UNL     1       5.446  -3.239   5.803  0.00  0.00    -0.166 F 
ATOM     17  F   UNL     1       5.799  -1.034   6.286  0.00  0.00    -0.166 F 
ATOM     18  F   UNL     1       3.919  -2.084   7.048  0.00  0.00    -0.166 F 
ENDBRANCH   8  15
ENDBRANCH   3   5
BRANCH   1  20
ATOM     19  C   UNL     1       1.861   1.698  -1.022  0.00  0.00    +0.029 C 
ATOM     20  C   UNL     1       0.788   1.101  -0.109  0.00  0.00    +0.136 C 
BRANCH  20  21
ATOM     21  S   UNL     1      -0.478   2.353   0.236  0.00  0.00    -0.084 S 
BRANCH  21  22
ATOM     22  C   UNL     1      -1.216   2.657  -1.335  0.00  0.00    +0.161 A 
ATOM     23  N   UNL     1      -0.942   2.115  -2.507  0.00  0.00    -0.133 NA
ATOM     24  N   UNL     1      -1.649   2.502  -3.622  0.00  0.00    -0.125 NA
ATOM     25  C   UNL     1      -2.598   3.412  -3.515  0.00  0.00    +0.180 A 
ATOM     26  S   UNL     1      -2.540   3.776  -1.767  0.00  0.00    -0.025 S 
ATOM     27  N   UNL     1      -3.424   3.942  -4.498  0.00  0.00    -0.336 N 
ATOM     28  H   UNL     1      -3.341   3.640  -5.416  0.00  0.00    +0.144 HD
ATOM     29  H   UNL     1      -4.084   4.614  -4.266  0.00  0.00    +0.144 HD
ENDBRANCH  21  22
ENDBRANCH  20  21
ENDBRANCH   1  20
TORSDOF 5
