REMARK  Name = ZINC46901025
REMARK  6 active torsions:
REMARK  status: ('A' for Active; 'I' for Inactive)
REMARK    1  A    between atoms: C_1  and  C_2
REMARK    2  A    between atoms: C_3  and  C_15
REMARK    3  A    between atoms: C_4  and  C_14
REMARK    4  A    between atoms: N_5  and  C_7
REMARK    5  A    between atoms: N_17  and  N_18
REMARK    6  A    between atoms: C_19  and  C_21
REMARK                            x       y       z     vdW  Elec       q    Type
REMARK                         _______ _______ _______ _____ _____    ______ ____
ROOT
ATOM      1  C   UNL     1      -0.372  -0.396  -2.525  0.00  0.00    +0.264 C 
ATOM      2  O   UNL     1       0.573  -0.061  -3.212  0.00  0.00    -0.269 OA
ATOM      3  N   UNL     1      -1.620  -0.363  -3.034  0.00  0.00    -0.230 N 
ATOM      4  H   UNL     1      -2.374  -0.630  -2.486  0.00  0.00    +0.173 HD
ENDROOT
BRANCH   1   7
ATOM      5  C   UNL     1      -0.366   1.475   0.038  0.00  0.00    +0.068 C 
ATOM      6  C   UNL     1      -0.149  -0.016   0.014  0.00  0.00    +0.073 A 
ATOM      7  C   UNL     1      -0.154  -0.838  -1.136  0.00  0.00    +0.082 A 
ATOM      8  C   UNL     1       0.083  -2.131  -0.715  0.00  0.00    +0.054 A 
ATOM      9  N   UNL     1       0.224  -2.098   0.623  0.00  0.00    -0.236 N 
ATOM     10  N   UNL     1       0.081  -0.774   1.051  0.00  0.00    -0.171 NA
ATOM     11  C   UNL     1       0.166  -3.354  -1.591  0.00  0.00    +0.066 C 
BRANCH   9  12
ATOM     12  C   UNL     1       0.477  -3.204   1.447  0.00  0.00    +0.066 A 
ATOM     13  C   UNL     1       1.401  -4.165   1.057  0.00  0.00    +0.029 A 
ATOM     14  C   UNL     1       1.649  -5.252   1.872  0.00  0.00    +0.017 A 
ATOM     15  C   UNL     1       0.978  -5.385   3.074  0.00  0.00    +0.018 A 
ATOM     16  C   UNL     1       0.057  -4.428   3.465  0.00  0.00    +0.017 A 
ATOM     17  C   UNL     1      -0.190  -3.336   2.657  0.00  0.00    +0.029 A 
ATOM     18 BR   UNL     1       1.319  -6.876   4.186  0.00  0.00    -0.050 Br
ENDBRANCH   9  12
ENDBRANCH   1   7
BRANCH   3  19
ATOM     19  N   UNL     1      -1.827   0.056  -4.355  0.00  0.00    -0.234 N 
ATOM     20  C   UNL     1      -3.075   0.089  -4.863  0.00  0.00    +0.235 C 
ATOM     21  O   UNL     1      -4.018  -0.245  -4.178  0.00  0.00    -0.274 OA
ATOM     22  H   UNL     1      -1.073   0.323  -4.903  0.00  0.00    +0.173 HD
BRANCH  20  23
ATOM     23  C   UNL     1      -3.298   0.540  -6.284  0.00  0.00    +0.049 C 
ATOM     24  C   UNL     1      -2.534  -0.380  -7.237  0.00  0.00    +0.019 C 
ATOM     25  C   UNL     1      -2.760   0.078  -8.680  0.00  0.00    -0.009 C 
ATOM     26  C   UNL     1      -4.254   0.022  -9.004  0.00  0.00    +0.007 C 
ATOM     27  C   UNL     1      -5.019   0.942  -8.050  0.00  0.00    -0.009 C 
ATOM     28  C   UNL     1      -4.792   0.484  -6.608  0.00  0.00    +0.019 C 
ATOM     29  C   UNL     1      -4.515   2.378  -8.214  0.00  0.00    +0.007 C 
ATOM     30  C   UNL     1      -3.021   2.434  -7.890  0.00  0.00    -0.009 C 
ATOM     31  C   UNL     1      -2.257   1.513  -8.844  0.00  0.00    +0.007 C 
ATOM     32  C   UNL     1      -2.794   1.976  -6.448  0.00  0.00    +0.019 C 
ENDBRANCH  20  23
ENDBRANCH   3  19
TORSDOF 4
