REMARK  Name = ZINC59921061
REMARK  6 active torsions:
REMARK  status: ('A' for Active; 'I' for Inactive)
REMARK    1  A    between atoms: C_4  and  O_28
REMARK    2  A    between atoms: C_5  and  C_7
REMARK    3  A    between atoms: N_8  and  N_9
REMARK    4  A    between atoms: C_10  and  C_12
REMARK    5  A    between atoms: N_15  and  S_18
REMARK    6  A    between atoms: S_18  and  C_21
REMARK                            x       y       z     vdW  Elec       q    Type
REMARK                         _______ _______ _______ _____ _____    ______ ____
ROOT
ATOM      1  C   UNL     1       3.619  -6.344  -0.072  0.00  0.00    +0.079 C 
ATOM      2  C   UNL     1       2.919  -6.875   1.181  0.00  0.00    +0.030 C 
ATOM      3  C   UNL     1       2.919  -8.407   1.151  0.00  0.00    +0.110 C 
ATOM      4  N   UNL     1       4.301  -8.877   0.988  0.00  0.00    -0.177 NA
ATOM      5  C   UNL     1       5.096  -8.358  -0.134  0.00  0.00    +0.110 C 
ATOM      6  C   UNL     1       5.072  -6.827  -0.090  0.00  0.00    +0.030 C 
ENDROOT
BRANCH   1   8
ATOM      7  N   UNL     1       2.412  -4.186  -0.047  0.00  0.00    -0.207 N 
ATOM      8  C   UNL     1       3.591  -4.838  -0.063  0.00  0.00    +0.235 C 
ATOM      9  O   UNL     1       4.630  -4.212  -0.070  0.00  0.00    -0.274 OA
ATOM     10  H   UNL     1       1.581  -4.686  -0.041  0.00  0.00    +0.177 HD
BRANCH   7  12
ATOM     11  C   UNL     1       1.250  -2.157  -0.023  0.00  0.00    +0.142 C 
ATOM     12  N   UNL     1       2.386  -2.785  -0.038  0.00  0.00    -0.188 NA
BRANCH  11  17
ATOM     13  C   UNL     1      -0.017   1.375   0.010  0.00  0.00    +0.001 A 
ATOM     14  C   UNL     1       1.169   2.089   0.002  0.00  0.00    +0.004 A 
ATOM     15  C   UNL     1       2.383   1.428  -0.013  0.00  0.00    +0.046 A 
ATOM     16  C   UNL     1       2.420   0.044  -0.022  0.00  0.00    +0.125 A 
ATOM     17  C   UNL     1       1.222  -0.684  -0.014  0.00  0.00    +0.036 A 
ATOM     18  C   UNL     1       0.002  -0.004   0.002  0.00  0.00    +0.013 A 
BRANCH  16  19
ATOM     19  O   UNL     1       3.612  -0.607  -0.038  0.00  0.00    -0.506 OA
ATOM     20  H   UNL     1       3.967  -0.800   0.841  0.00  0.00    +0.292 HD
ENDBRANCH  16  19
ENDBRANCH  11  17
ENDBRANCH   7  12
ENDBRANCH   1   8
BRANCH   4  21
ATOM     21  S   UNL     1       4.952  -9.969   2.048  0.00  0.00    +0.061 S 
ATOM     22  O   UNL     1       6.362  -9.800   1.992  0.00  0.00    -0.153 OA
ATOM     23  O   UNL     1       4.218  -9.847   3.259  0.00  0.00    -0.153 OA
BRANCH  21  24
ATOM     24  C   UNL     1       4.613 -11.577   1.413  0.00  0.00    +0.106 A 
ATOM     25  C   UNL     1       3.446 -12.228   1.769  0.00  0.00    +0.029 A 
ATOM     26  C   UNL     1       3.179 -13.490   1.270  0.00  0.00    +0.017 A 
ATOM     27  C   UNL     1       4.080 -14.101   0.416  0.00  0.00    +0.018 A 
ATOM     28  C   UNL     1       5.247 -13.449   0.061  0.00  0.00    +0.017 A 
ATOM     29  C   UNL     1       5.510 -12.185   0.556  0.00  0.00    +0.029 A 
ATOM     30 BR   UNL     1       3.716 -15.827  -0.265  0.00  0.00    -0.050 Br
ENDBRANCH  21  24
ENDBRANCH   4  21
TORSDOF 6
