REMARK  Name = ZINC37276542
REMARK  7 active torsions:
REMARK  status: ('A' for Active; 'I' for Inactive)
REMARK    1  A    between atoms: C_1  and  C_2
REMARK    2  A    between atoms: C_2  and  C_4
REMARK    3  A    between atoms: C_2  and  N_10
REMARK    4  A    between atoms: C_11  and  C_13
REMARK    5  A    between atoms: C_18  and  N_19
REMARK    6  A    between atoms: C_22  and  N_25
REMARK    7  A    between atoms: C_26  and  C_28
REMARK                            x       y       z     vdW  Elec       q    Type
REMARK                         _______ _______ _______ _____ _____    ______ ____
ROOT
ATOM      1  C   UNL     1       0.758  -1.141   3.546  0.00  0.00    +0.058 A 
ATOM      2  C   UNL     1       2.091  -1.549   3.451  0.00  0.00    +0.015 A 
ATOM      3  C   UNL     1       2.758  -1.985   4.574  0.00  0.00    +0.001 A 
ATOM      4  C   UNL     1       2.114  -2.023   5.801  0.00  0.00    +0.002 A 
ATOM      5  C   UNL     1       0.798  -1.624   5.911  0.00  0.00    +0.024 A 
ATOM      6  C   UNL     1       0.110  -1.174   4.790  0.00  0.00    +0.042 A 
ENDROOT
BRANCH   6   7
ATOM      7  N   UNL     1      -1.213  -0.766   4.900  0.00  0.00    -0.329 N 
ATOM      8  C   UNL     1      -1.545   0.650   5.104  0.00  0.00    +0.107 C 
ATOM      9  C   UNL     1      -2.446   0.773   6.336  0.00  0.00    +0.041 C 
ATOM     10  C   UNL     1      -3.663  -0.140   6.166  0.00  0.00    +0.076 C 
ATOM     11  C   UNL     1      -3.200  -1.593   6.050  0.00  0.00    +0.041 C 
ATOM     12  C   UNL     1      -2.307  -1.742   4.808  0.00  0.00    +0.107 C 
BRANCH  10  13
ATOM     13  N   UNL     1      -4.544   0.000   7.328  0.00  0.00    -0.308 N 
ATOM     14  C   UNL     1      -5.859  -0.275   7.214  0.00  0.00    +0.244 C 
ATOM     15  O   UNL     1      -6.313  -0.640   6.147  0.00  0.00    -0.270 OA
ATOM     16  H   UNL     1      -4.182   0.291   8.180  0.00  0.00    +0.149 HD
BRANCH  14  17
ATOM     17  C   UNL     1      -6.747  -0.134   8.387  0.00  0.00    +0.037 A 
ATOM     18  C   UNL     1      -6.230   0.290   9.612  0.00  0.00    +0.014 A 
ATOM     19  C   UNL     1      -7.064   0.419  10.702  0.00  0.00    +0.016 A 
ATOM     20  C   UNL     1      -8.413   0.130  10.583  0.00  0.00    +0.018 A 
ATOM     21  C   UNL     1      -8.933  -0.291   9.371  0.00  0.00    +0.016 A 
ATOM     22  C   UNL     1      -8.109  -0.419   8.272  0.00  0.00    +0.014 A 
ATOM     23 BR   UNL     1      -9.550   0.310  12.084  0.00  0.00    -0.050 Br
ENDBRANCH  14  17
ENDBRANCH  10  13
ENDBRANCH   6   7
BRANCH   1  25
ATOM     24  N   UNL     1       0.697  -0.524   1.181  0.00  0.00    -0.305 N 
ATOM     25  C   UNL     1       0.038  -0.673   2.347  0.00  0.00    +0.246 C 
ATOM     26  O   UNL     1      -1.150  -0.422   2.411  0.00  0.00    -0.270 OA
ATOM     27  H   UNL     1       1.645  -0.724   1.130  0.00  0.00    +0.150 HD
BRANCH  24  29
ATOM     28  C   UNL     1      -0.068   1.470  -0.011  0.00  0.00    +0.033 C 
ATOM     29  C   UNL     1      -0.018  -0.059  -0.010  0.00  0.00    +0.100 C 
BRANCH  29  30
ATOM     30  C   UNL     1       0.699  -0.539  -1.246  0.00  0.00    -0.027 A 
ATOM     31  C   UNL     1       2.080  -0.534  -1.289  0.00  0.00    +0.005 A 
ATOM     32  C   UNL     1       2.738  -0.974  -2.422  0.00  0.00    +0.000 A 
ATOM     33  C   UNL     1       2.014  -1.420  -3.512  0.00  0.00    +0.000 A 
ATOM     34  C   UNL     1       0.632  -1.426  -3.469  0.00  0.00    +0.000 A 
ATOM     35  C   UNL     1      -0.025  -0.990  -2.334  0.00  0.00    +0.005 A 
ENDBRANCH  29  30
ENDBRANCH  24  29
ENDBRANCH   1  25
TORSDOF 6
