REMARK  Name = ZINC46846201
REMARK  11 active torsions:
REMARK  status: ('A' for Active; 'I' for Inactive)
REMARK    1  A    between atoms: C_1  and  C_2
REMARK    2  A    between atoms: C_2  and  C_3
REMARK    3  A    between atoms: C_2  and  C_4
REMARK    4  A    between atoms: C_7  and  C_10
REMARK    5  A    between atoms: C_10  and  C_12
REMARK    6  A    between atoms: C_10  and  N_27
REMARK    7  A    between atoms: C_12  and  N_13
REMARK    8  A    between atoms: C_14  and  C_16
REMARK    9  A    between atoms: C_19  and  N_22
REMARK   10  A    between atoms: N_22  and  S_23
REMARK   11  A    between atoms: S_23  and  C_26
REMARK                            x       y       z     vdW  Elec       q    Type
REMARK                         _______ _______ _______ _____ _____    ______ ____
ROOT
ATOM      1  C   UNL     1      -5.141  -2.758  -0.206  0.00  0.00    +0.104 C 
ENDROOT
BRANCH   1   2
ATOM      2  N   UNL     1      -5.367  -2.736  -1.658  0.00  0.00    -0.289 NA
ATOM      3  C   UNL     1      -6.716  -2.244  -1.973  0.00  0.00    +0.090 C 
ATOM      4  C   UNL     1      -6.765  -1.849  -3.459  0.00  0.00    +0.058 C 
ATOM      5  C   UNL     1      -6.136  -2.954  -4.244  0.00  0.00    -0.005 A 
ATOM      6  C   UNL     1      -5.381  -3.975  -3.751  0.00  0.00    -0.023 A 
ATOM      7  C   UNL     1      -4.899  -4.896  -4.677  0.00  0.00    +0.013 A 
ATOM      8  C   UNL     1      -5.186  -4.748  -5.992  0.00  0.00    +0.046 A 
ATOM      9  S   UNL     1      -6.179  -3.261  -5.987  0.00  0.00    -0.101 S 
ATOM     10  C   UNL     1      -5.107  -4.053  -2.252  0.00  0.00    +0.121 C 
ENDBRANCH   1   2
BRANCH   1  14
ATOM     11  C   UNL     1      -1.092  -1.679   0.623  0.00  0.00    -0.045 A 
ATOM     12  C   UNL     1      -2.120  -1.130   1.367  0.00  0.00    +0.004 A 
ATOM     13  C   UNL     1      -3.430  -1.480   1.099  0.00  0.00    +0.005 A 
ATOM     14  C   UNL     1      -3.713  -2.377   0.085  0.00  0.00    -0.029 A 
ATOM     15  C   UNL     1      -2.685  -2.924  -0.660  0.00  0.00    +0.005 A 
ATOM     16  C   UNL     1      -1.375  -2.572  -0.394  0.00  0.00    +0.004 A 
BRANCH  11  18
ATOM     17  C   UNL     1       0.508   0.212   0.737  0.00  0.00    +0.012 C 
ATOM     18  C   UNL     1       0.336  -1.298   0.915  0.00  0.00    +0.013 C 
ATOM     19  C   UNL     1       0.683  -1.684   2.354  0.00  0.00    +0.012 C 
ENDBRANCH  11  18
ENDBRANCH   1  14
BRANCH   1  20
ATOM     20  C   UNL     1      -5.413  -4.165   0.330  0.00  0.00    +0.128 C 
BRANCH  20  21
ATOM     21  N   UNL     1      -6.807  -4.529   0.062  0.00  0.00    -0.310 N 
ATOM     22  C   UNL     1      -7.243  -5.774   0.338  0.00  0.00    +0.244 C 
ATOM     23  O   UNL     1      -6.480  -6.596   0.808  0.00  0.00    -0.270 OA
ATOM     24  H   UNL     1      -7.415  -3.874  -0.313  0.00  0.00    +0.149 HD
BRANCH  22  25
ATOM     25  C   UNL     1      -8.646  -6.141   0.068  0.00  0.00    +0.037 A 
ATOM     26  C   UNL     1      -9.523  -5.199  -0.479  0.00  0.00    +0.015 A 
ATOM     27  C   UNL     1     -10.832  -5.544  -0.730  0.00  0.00    +0.025 A 
ATOM     28  C   UNL     1     -11.282  -6.829  -0.439  0.00  0.00    +0.048 A 
ATOM     29  C   UNL     1     -10.411  -7.769   0.105  0.00  0.00    +0.025 A 
ATOM     30  C   UNL     1      -9.100  -7.432   0.353  0.00  0.00    +0.015 A 
BRANCH  28  31
ATOM     31  N   UNL     1     -12.605  -7.174  -0.693  0.00  0.00    -0.221 N 
ATOM     32  H   UNL     1     -13.233  -7.262   0.041  0.00  0.00    +0.173 HD
BRANCH  31  33
ATOM     33  S   UNL     1     -13.108  -7.436  -2.249  0.00  0.00    +0.040 S 
ATOM     34  O   UNL     1     -14.492  -7.739  -2.137  0.00  0.00    -0.155 OA
ATOM     35  O   UNL     1     -12.674  -6.290  -2.968  0.00  0.00    -0.155 OA
ATOM     36  C   UNL     1     -12.190  -8.902  -2.796  0.00  0.00    +0.218 C 
ENDBRANCH  31  33
ENDBRANCH  28  31
ENDBRANCH  22  25
ENDBRANCH  20  21
ENDBRANCH   1  20
TORSDOF 8
