REMARK  Name = ZINC39389428
REMARK  10 active torsions:
REMARK  status: ('A' for Active; 'I' for Inactive)
REMARK    1  A    between atoms: C_1  and  C_2
REMARK    2  A    between atoms: C_2  and  O_3
REMARK    3  A    between atoms: O_3  and  C_4
REMARK    4  A    between atoms: C_4  and  C_6
REMARK    5  A    between atoms: C_8  and  N_17
REMARK    6  A    between atoms: C_18  and  C_20
REMARK    7  A    between atoms: C_20  and  C_22
REMARK    8  A    between atoms: C_20  and  S_23
REMARK    9  A    between atoms: S_23  and  C_24
REMARK   10  A    between atoms: C_29  and  C_34
REMARK                            x       y       z     vdW  Elec       q    Type
REMARK                         _______ _______ _______ _____ _____    ______ ____
ROOT
ATOM      1  N   UNL     1       3.453  -1.769   1.058  0.00  0.00    -0.301 N 
ATOM      2  C   UNL     1       4.200  -0.692   0.744  0.00  0.00    +0.227 C 
ATOM      3  O   UNL     1       4.504   0.106   1.604  0.00  0.00    -0.275 OA
ATOM      4  H   UNL     1       3.210  -2.408   0.369  0.00  0.00    +0.150 HD
ENDROOT
BRANCH   1   6
ATOM      5  C   UNL     1       1.516  -2.381   2.500  0.00  0.00    +0.155 C 
ATOM      6  C   UNL     1       3.008  -1.975   2.438  0.00  0.00    +0.153 C 
ATOM      7  S   UNL     1       3.743  -3.499   3.166  0.00  0.00    -0.106 S 
ATOM      8  C   UNL     1       2.400  -4.616   2.837  0.00  0.00    -0.013 C 
ATOM      9  C   UNL     1       1.349  -3.879   2.502  0.00  0.00    -0.044 C 
ATOM     10  C   UNL     1       0.017  -4.531   2.138  0.00  0.00    +0.032 C 
ATOM     11  C   UNL     1       0.256  -6.000   1.789  0.00  0.00    +0.005 C 
ATOM     12  C   UNL     1       1.040  -6.672   2.921  0.00  0.00    +0.005 C 
ATOM     13  C   UNL     1       2.463  -6.116   2.922  0.00  0.00    +0.042 C 
BRANCH   5  14
ATOM     14  C   UNL     1       0.801  -1.808   1.304  0.00  0.00    +0.317 C 
ATOM     15  O   UNL     1       0.799  -2.409   0.256  0.00  0.00    -0.250 OA
BRANCH  14  16
ATOM     16  O   UNL     1       0.165  -0.630   1.403  0.00  0.00    -0.464 OA
BRANCH  16  18
ATOM     17  C   UNL     1      -1.156   1.198   0.534  0.00  0.00    +0.048 C 
ATOM     18  C   UNL     1      -0.492  -0.146   0.230  0.00  0.00    +0.229 C 
ENDBRANCH  16  18
ENDBRANCH  14  16
ENDBRANCH   5  14
ENDBRANCH   1   6
BRANCH   2  19
ATOM     19  C   UNL     1       4.657  -0.480  -0.676  0.00  0.00    +0.137 C 
ATOM     20  C   UNL     1       3.558   0.235  -1.465  0.00  0.00    +0.029 C 
BRANCH  19  21
ATOM     21  S   UNL     1       6.163   0.532  -0.682  0.00  0.00    -0.073 S 
BRANCH  21  22
ATOM     22  C   UNL     1       6.648   0.564  -2.376  0.00  0.00    +0.198 A 
ATOM     23  N   UNL     1       6.029  -0.019  -3.375  0.00  0.00    -0.120 NA
ATOM     24  N   UNL     1       6.650   0.206  -4.478  0.00  0.00    -0.107 NA
ATOM     25  C   UNL     1       7.713   0.953  -4.250  0.00  0.00    +0.260 A 
ATOM     26  N   UNL     1       7.736   1.207  -2.895  0.00  0.00    -0.259 N 
ATOM     27  C   UNL     1       8.733   1.970  -2.355  0.00  0.00    +0.031 A 
ATOM     28  C   UNL     1       9.689   2.472  -3.167  0.00  0.00    +0.093 A 
ATOM     29  C   UNL     1       9.637   2.198  -4.551  0.00  0.00    +0.275 A 
ATOM     30  O   UNL     1      10.591   2.696  -5.373  0.00  0.00    -0.266 OA
ATOM     31  N   UNL     1       8.669   1.454  -5.046  0.00  0.00    -0.172 NA
ATOM     32  C   UNL     1       8.765   2.249  -0.874  0.00  0.00    +0.064 C 
ENDBRANCH  21  22
ENDBRANCH  19  21
ENDBRANCH   2  19
TORSDOF 7
