REMARK  Name = ZINC34912078
REMARK  4 active torsions:
REMARK  status: ('A' for Active; 'I' for Inactive)
REMARK    1  A    between atoms: C_6  and  N_7
REMARK    2  A    between atoms: C_8  and  C_10
REMARK    3  A    between atoms: N_13  and  C_16
REMARK    4  A    between atoms: C_22  and  C_24
REMARK                            x       y       z     vdW  Elec       q    Type
REMARK                         _______ _______ _______ _____ _____    ______ ____
ROOT
ATOM      1  C   UNL     1      -1.913  -2.767  -1.069  0.00  0.00    +0.072 C 
ATOM      2  C   UNL     1      -2.847  -2.334  -2.203  0.00  0.00    -0.006 C 
ATOM      3  C   UNL     1      -4.131  -3.164  -2.144  0.00  0.00    -0.078 C 
ATOM      4  N   UNL     1      -3.805  -4.588  -2.293  0.00  0.00    +0.382 N 
ATOM      5  C   UNL     1      -2.968  -5.027  -1.170  0.00  0.00    -0.078 C 
ATOM      6  C   UNL     1      -1.639  -4.269  -1.192  0.00  0.00    -0.006 C 
ATOM      7  H   UNL     1      -3.306  -4.728  -3.159  0.00  0.00    -0.081 HD
ENDROOT
BRANCH   4   8
ATOM      8  C   UNL     1      -5.046  -5.373  -2.314  0.00  0.00    -0.066 C 
ATOM      9  C   UNL     1      -4.707  -6.858  -2.468  0.00  0.00    +0.004 C 
ATOM     10  C   UNL     1      -6.002  -7.677  -2.455  0.00  0.00    +0.106 C 
ATOM     11  N   UNL     1      -6.904  -7.153  -3.490  0.00  0.00    -0.298 N 
ATOM     12  C   UNL     1      -7.223  -5.719  -3.489  0.00  0.00    +0.106 C 
ATOM     13  C   UNL     1      -5.915  -4.922  -3.490  0.00  0.00    +0.004 C 
ATOM     14  C   UNL     1      -7.427  -7.973  -4.423  0.00  0.00    +0.247 C 
ATOM     15  O   UNL     1      -8.092  -7.513  -5.331  0.00  0.00    -0.270 OA
BRANCH  14  16
ATOM     16  C   UNL     1      -7.191  -9.429  -4.343  0.00  0.00    +0.038 A 
ATOM     17  C   UNL     1      -7.086 -10.055  -3.100  0.00  0.00    +0.014 A 
ATOM     18  C   UNL     1      -6.866 -11.414  -3.031  0.00  0.00    +0.022 A 
ATOM     19  C   UNL     1      -6.749 -12.160  -4.192  0.00  0.00    +0.059 A 
ATOM     20  C   UNL     1      -6.853 -11.545  -5.430  0.00  0.00    +0.060 A 
ATOM     21  C   UNL     1      -7.079 -10.186  -5.511  0.00  0.00    +0.034 A 
ATOM     22 CL   UNL     1      -6.705 -12.488  -6.880  0.00  0.00    -0.082 Cl
ATOM     23 CL   UNL     1      -6.471 -13.871  -4.097  0.00  0.00    -0.082 Cl
ENDBRANCH  14  16
ENDBRANCH   4   8
BRANCH   1  25
ATOM     24  N   UNL     1      -0.612  -0.663  -1.086  0.00  0.00    -0.285 N 
ATOM     25  C   UNL     1      -0.615  -2.008  -1.168  0.00  0.00    +0.220 C 
ATOM     26  O   UNL     1       0.428  -2.609  -1.322  0.00  0.00    -0.275 OA
ATOM     27  H   UNL     1      -1.435  -0.188  -0.888  0.00  0.00    +0.155 HD
BRANCH  24  33
ATOM     28  C   UNL     1       1.582  -0.487  -2.080  0.00  0.00    +0.026 A 
ATOM     29  C   UNL     1       2.755   0.216  -2.277  0.00  0.00    +0.040 A 
ATOM     30  C   UNL     1       2.928   1.455  -1.683  0.00  0.00    +0.124 A 
ATOM     31  C   UNL     1       1.926   1.991  -0.890  0.00  0.00    +0.040 A 
ATOM     32  C   UNL     1       0.753   1.290  -0.691  0.00  0.00    +0.026 A 
ATOM     33  C   UNL     1       0.577   0.048  -1.286  0.00  0.00    +0.034 A 
ATOM     34  F   UNL     1       4.075   2.141  -1.876  0.00  0.00    -0.205 F 
ENDBRANCH  24  33
ENDBRANCH   1  25
TORSDOF 4
