REMARK  Name = ZINC14067390
REMARK  7 active torsions:
REMARK  status: ('A' for Active; 'I' for Inactive)
REMARK    1  A    between atoms: C_1  and  C_2
REMARK    2  A    between atoms: C_2  and  C_4
REMARK    3  A    between atoms: C_2  and  N_20
REMARK    4  A    between atoms: N_6  and  C_7
REMARK    5  A    between atoms: C_7  and  C_8
REMARK    6  A    between atoms: C_7  and  C_14
REMARK    7  A    between atoms: C_29  and  C_32
REMARK                            x       y       z     vdW  Elec       q    Type
REMARK                         _______ _______ _______ _____ _____    ______ ____
ROOT
ATOM      1  C   UNL     1      -6.602   2.859   7.022  0.00  0.00    -0.004 C 
ATOM      2  C   UNL     1      -5.454   3.495   7.810  0.00  0.00    +0.016 C 
ENDROOT
BRANCH   2   3
ATOM      3  N   UNL     1      -4.274   3.617   6.943  0.00  0.00    +0.389 N 
ATOM      4  C   UNL     1      -3.091   4.018   7.717  0.00  0.00    -0.059 C 
ATOM      5  C   UNL     1      -1.905   4.211   6.769  0.00  0.00    +0.088 C 
ATOM      6  N   UNL     1      -1.655   2.959   6.041  0.00  0.00    -0.319 N 
ATOM      7  C   UNL     1      -2.838   2.557   5.267  0.00  0.00    +0.088 C 
ATOM      8  C   UNL     1      -4.024   2.365   6.215  0.00  0.00    -0.059 C 
ATOM      9  C   UNL     1      -0.539   3.074   5.221  0.00  0.00    +0.121 A 
ATOM     10  C   UNL     1      -0.137   1.990   4.447  0.00  0.00    +0.044 A 
ATOM     11  C   UNL     1       0.976   2.118   3.636  0.00  0.00    +0.017 A 
ATOM     12  C   UNL     1       1.652   3.331   3.626  0.00  0.00    +0.073 A 
ATOM     13  C   UNL     1       1.201   4.363   4.423  0.00  0.00    +0.125 A 
ATOM     14  N   UNL     1       0.133   4.214   5.183  0.00  0.00    -0.240 NA
ATOM     15  H   UNL     1      -4.479   4.405   6.203  0.00  0.00    -0.081 HD
BRANCH  12  16
ATOM     16  C   UNL     1       2.870   3.516   2.757  0.00  0.00    +0.419 C 
ATOM     17  F   UNL     1       2.479   3.993   1.501  0.00  0.00    -0.166 F 
ATOM     18  F   UNL     1       3.526   2.290   2.607  0.00  0.00    -0.166 F 
ATOM     19  F   UNL     1       3.735   4.437   3.357  0.00  0.00    -0.166 F 
ENDBRANCH  12  16
ENDBRANCH   2   3
BRANCH   2  20
ATOM     20  C   UNL     1      -5.119   2.629   8.996  0.00  0.00    +0.200 C 
ATOM     21  O   UNL     1      -4.272   1.767   8.898  0.00  0.00    -0.278 OA
ATOM     22  N   UNL     1      -5.760   2.813  10.168  0.00  0.00    -0.306 N 
ATOM     23  H   UNL     1      -6.527   3.596  10.257  0.00  0.00    +0.150 HD
BRANCH  22  24
ATOM     24  C   UNL     1      -5.433   1.972  11.321  0.00  0.00    +0.133 C 
BRANCH  24  25
ATOM     25  C   UNL     1      -4.245   2.551  12.046  0.00  0.00    -0.023 A 
ATOM     26  C   UNL     1      -4.131   3.919  12.203  0.00  0.00    +0.006 A 
ATOM     27  C   UNL     1      -3.044   4.450  12.872  0.00  0.00    +0.000 A 
ATOM     28  C   UNL     1      -2.066   3.613  13.375  0.00  0.00    +0.000 A 
ATOM     29  C   UNL     1      -2.178   2.244  13.213  0.00  0.00    +0.000 A 
ATOM     30  C   UNL     1      -3.267   1.713  12.549  0.00  0.00    +0.006 A 
ENDBRANCH  24  25
BRANCH  24  31
ATOM     31  C   UNL     1      -6.615   1.919  12.255  0.00  0.00    -0.023 A 
ATOM     32  C   UNL     1      -7.356   3.061  12.497  0.00  0.00    +0.006 A 
ATOM     33  C   UNL     1      -8.443   3.012  13.349  0.00  0.00    +0.000 A 
ATOM     34  C   UNL     1      -8.782   1.824  13.969  0.00  0.00    +0.000 A 
ATOM     35  C   UNL     1      -8.038   0.684  13.732  0.00  0.00    +0.000 A 
ATOM     36  C   UNL     1      -6.955   0.731  12.875  0.00  0.00    +0.006 A 
ENDBRANCH  24  31
ENDBRANCH  22  24
ENDBRANCH   2  20
TORSDOF 6
