REMARK  Name = ZINC22917274
REMARK  6 active torsions:
REMARK  status: ('A' for Active; 'I' for Inactive)
REMARK    1  A    between atoms: C_1  and  N_2
REMARK    2  A    between atoms: N_5  and  C_8
REMARK    3  A    between atoms: C_8  and  C_10
REMARK    4  A    between atoms: C_8  and  C_31
REMARK    5  A    between atoms: C_10  and  N_11
REMARK    6  A    between atoms: C_19  and  C_21
REMARK                            x       y       z     vdW  Elec       q    Type
REMARK                         _______ _______ _______ _____ _____    ______ ____
ROOT
ATOM      1  N   UNL     1      -5.000   0.676  -2.421  0.00  0.00    -0.327 N 
ATOM      2  C   UNL     1      -5.571   1.158  -1.257  0.00  0.00    +0.131 A 
ATOM      3  C   UNL     1      -4.797   1.791  -0.240  0.00  0.00    +0.051 A 
ATOM      4  C   UNL     1      -3.363   2.026  -0.250  0.00  0.00    -0.025 A 
ATOM      5  C   UNL     1      -2.842   2.648   0.833  0.00  0.00    -0.004 A 
ATOM      6  S   UNL     1      -4.223   2.949   1.909  0.00  0.00    -0.073 S 
ATOM      7  C   UNL     1      -5.494   2.244   0.910  0.00  0.00    +0.114 A 
ATOM      8  N   UNL     1      -6.793   2.106   1.072  0.00  0.00    -0.220 NA
ATOM      9  C   UNL     1      -7.462   1.505   0.084  0.00  0.00    +0.164 A 
ATOM     10  N   UNL     1      -6.875   1.058  -1.018  0.00  0.00    -0.212 NA
ATOM     11  C   UNL     1      -1.404   3.004   1.075  0.00  0.00    +0.043 C 
ATOM     12  C   UNL     1      -0.541   2.229   0.069  0.00  0.00    +0.005 C 
ATOM     13  C   UNL     1      -1.151   2.384  -1.327  0.00  0.00    +0.005 C 
ATOM     14  C   UNL     1      -2.463   1.605  -1.409  0.00  0.00    +0.037 C 
ATOM     15  H   UNL     1      -3.906   0.691  -2.544  0.00  0.00    +0.148 HD
ENDROOT
BRANCH   9  16
ATOM     16  C   UNL     1      -8.927   1.331   0.226  0.00  0.00    +0.037 A 
ATOM     17  C   UNL     1      -9.589   1.781   1.373  0.00  0.00    +0.014 A 
ATOM     18  C   UNL     1     -10.958   1.599   1.455  0.00  0.00    +0.020 A 
ATOM     19  C   UNL     1     -11.621   0.974   0.414  0.00  0.00    +0.111 A 
ATOM     20  N   UNL     1     -10.969   0.554  -0.653  0.00  0.00    -0.263 NA
ATOM     21  C   UNL     1      -9.667   0.709  -0.778  0.00  0.00    +0.122 A 
ENDBRANCH   9  16
BRANCH   1  22
ATOM     22  C   UNL     1      -5.850   0.147  -3.490  0.00  0.00    +0.127 C 
BRANCH  22  23
ATOM     23  C   UNL     1      -4.974  -0.316  -4.656  0.00  0.00    +0.110 C 
BRANCH  23  28
ATOM     24  C   UNL     1      -2.331   3.908  -7.317  0.00  0.00    -0.096 C 
ATOM     25  N   UNL     1      -3.196   2.802  -6.884  0.00  0.00    +0.379 N 
ATOM     26  C   UNL     1      -2.415   1.575  -6.671  0.00  0.00    -0.064 C 
ATOM     27  C   UNL     1      -3.360   0.430  -6.300  0.00  0.00    +0.066 C 
ATOM     28  N   UNL     1      -4.110   0.790  -5.089  0.00  0.00    -0.297 NA
ATOM     29  C   UNL     1      -4.891   2.017  -5.301  0.00  0.00    +0.066 C 
ATOM     30  C   UNL     1      -3.946   3.162  -5.673  0.00  0.00    -0.064 C 
ATOM     31  H   UNL     1      -3.921   2.608  -7.688  0.00  0.00    -0.082 HD
ENDBRANCH  23  28
BRANCH  23  32
ATOM     32  C   UNL     1      -5.852  -0.746  -5.803  0.00  0.00    +0.008 A 
ATOM     33  C   UNL     1      -6.088  -1.994  -6.276  0.00  0.00    +0.013 A 
ATOM     34  C   UNL     1      -6.943  -2.153  -7.351  0.00  0.00    +0.008 A 
ATOM     35  C   UNL     1      -7.512  -1.055  -7.906  0.00  0.00    +0.045 A 
ATOM     36  S   UNL     1      -6.844   0.258  -6.897  0.00  0.00    -0.100 S 
ENDBRANCH  23  32
ENDBRANCH  22  23
ENDBRANCH   1  22
TORSDOF 5
