REMARK  Name = ZINC22058344
REMARK  11 active torsions:
REMARK  status: ('A' for Active; 'I' for Inactive)
REMARK    1  A    between atoms: C_1  and  C_2
REMARK    2  A    between atoms: C_4  and  C_7
REMARK    3  A    between atoms: C_8  and  C_9
REMARK    4  A    between atoms: C_8  and  C_10
REMARK    5  A    between atoms: C_15  and  C_41
REMARK    6  A    between atoms: C_20  and  C_40
REMARK    7  A    between atoms: C_22  and  O_39
REMARK    8  A    between atoms: C_24  and  C_38
REMARK    9  A    between atoms: C_28  and  C_36
REMARK   10  A    between atoms: C_28  and  C_37
REMARK   11  A    between atoms: C_29  and  O_35
REMARK                            x       y       z     vdW  Elec       q    Type
REMARK                         _______ _______ _______ _____ _____    ______ ____
ROOT
ATOM      1  C   UNL     1       4.064  -2.032   0.149  0.00  0.00    +0.205 C 
ATOM      2  C   UNL     1       4.214  -3.514   0.517  0.00  0.00    +0.083 C 
ATOM      3  C   UNL     1       3.364  -4.361  -0.427  0.00  0.00    +0.154 C 
ATOM      4  C   UNL     1       3.083  -5.824  -0.095  0.00  0.00    +0.093 C 
ATOM      5  O   UNL     1       4.014  -5.434  -1.111  0.00  0.00    -0.365 OA
ATOM      6  C   UNL     1       1.751  -6.416  -0.563  0.00  0.00    +0.037 C 
ATOM      7  C   UNL     1       0.607  -5.889   0.307  0.00  0.00    +0.003 C 
ATOM      8  C   UNL     1      -0.381  -5.114  -0.568  0.00  0.00    +0.006 C 
ATOM      9  C   UNL     1      -1.581  -4.676   0.282  0.00  0.00    +0.015 C 
ATOM     10  C   UNL     1      -2.362  -3.594  -0.463  0.00  0.00    +0.127 C 
ATOM     11  C   UNL     1      -2.566  -2.342   0.387  0.00  0.00    +0.081 C 
ATOM     12  C   UNL     1      -1.264  -1.604   0.536  0.00  0.00    +0.147 C 
ATOM     13  O   UNL     1      -0.242  -2.248   0.683  0.00  0.00    -0.296 OA
ATOM     14  C   UNL     1      -1.185  -0.106   0.509  0.00  0.00    +0.050 C 
ATOM     15  C   UNL     1       0.261   0.341   0.266  0.00  0.00    +0.138 C 
ATOM     16  C   UNL     1       1.147   0.002   1.459  0.00  0.00    +0.152 C 
ATOM     17  C   UNL     1       2.520  -0.417   0.994  0.00  0.00    +0.310 C 
ATOM     18  O   UNL     1       3.458   0.333   1.151  0.00  0.00    -0.251 OA
ATOM     19  O   UNL     1       2.703  -1.609   0.412  0.00  0.00    -0.457 OA
ATOM     20  C   UNL     1      -1.679   0.478   1.835  0.00  0.00    +0.021 C 
ATOM     21  C   UNL     1      -2.056   0.450  -0.626  0.00  0.00    +0.021 C 
ATOM     22  C   UNL     1      -3.138  -2.704   1.756  0.00  0.00    +0.018 C 
ATOM     23  C   UNL     1      -2.489  -5.886   0.522  0.00  0.00    +0.010 C 
ATOM     24  C   UNL     1       3.656  -6.412   1.194  0.00  0.00    +0.044 C 
ENDROOT
BRANCH   1  26
ATOM     25  C   UNL     1       3.432  -1.447  -2.152  0.00  0.00    +0.031 C 
ATOM     26  C   UNL     1       4.383  -1.836  -1.313  0.00  0.00    -0.031 C 
ATOM     27  C   UNL     1       5.780  -2.083  -1.820  0.00  0.00    +0.043 C 
BRANCH  25  31
ATOM     28  C   UNL     1       6.695  -0.811  -5.864  0.00  0.00    +0.073 C 
ATOM     29  C   UNL     1       5.335  -0.855  -5.217  0.00  0.00    +0.076 A 
ATOM     30  N   UNL     1       5.027  -1.133  -3.974  0.00  0.00    -0.245 NA
ATOM     31  C   UNL     1       3.770  -1.130  -3.555  0.00  0.00    +0.071 A 
ATOM     32  C   UNL     1       2.792  -0.830  -4.469  0.00  0.00    +0.074 A 
ATOM     33  S   UNL     1       3.782  -0.549  -5.930  0.00  0.00    -0.080 S 
ENDBRANCH  25  31
ENDBRANCH   1  26
BRANCH  15  34
ATOM     34  O   UNL     1       0.272   1.756   0.060  0.00  0.00    -0.390 OA
ATOM     35  H   UNL     1       1.222   2.276  -0.133  0.00  0.00    +0.210 HD
ENDBRANCH  15  34
BRANCH  10  36
ATOM     36  O   UNL     1      -3.637  -4.114  -0.854  0.00  0.00    -0.391 OA
ATOM     37  H   UNL     1      -4.345  -3.478  -1.405  0.00  0.00    +0.210 HD
ENDBRANCH  10  36
TORSDOF 4
