REMARK  Name = ZINC58949216
REMARK  8 active torsions:
REMARK  status: ('A' for Active; 'I' for Inactive)
REMARK    1  A    between atoms: C_1  and  C_2
REMARK    2  A    between atoms: C_6  and  C_7
REMARK    3  A    between atoms: C_9  and  C_20
REMARK    4  A    between atoms: C_10  and  C_19
REMARK    5  A    between atoms: C_12  and  N_18
REMARK    6  A    between atoms: C_13  and  C_14
REMARK    7  A    between atoms: C_14  and  O_16
REMARK    8  A    between atoms: O_16  and  C_17
REMARK                            x       y       z     vdW  Elec       q    Type
REMARK                         _______ _______ _______ _____ _____    ______ ____
ROOT
ATOM      1  C   UNL     1      -0.170  -0.196   2.591  0.00  0.00    +0.106 C 
ATOM      2  C   UNL     1       1.148  -0.455   3.267  0.00  0.00    +0.064 C 
ATOM      3  C   UNL     1       1.292  -1.452   4.147  0.00  0.00    +0.113 C 
ATOM      4  O   UNL     1       0.275  -2.266   4.472  0.00  0.00    -0.446 OA
ATOM      5  C   UNL     1      -0.991  -1.891   4.220  0.00  0.00    +0.195 C 
ATOM      6  C   UNL     1      -1.272  -0.906   3.330  0.00  0.00    +0.106 C 
ATOM      7  C   UNL     1       2.636  -1.667   4.794  0.00  0.00    +0.087 C 
ENDROOT
BRANCH   1  13
ATOM      8  C   UNL     1      -0.548   1.468   0.037  0.00  0.00    +0.044 C 
ATOM      9  C   UNL     1      -0.272  -0.013   0.015  0.00  0.00    -0.039 A 
ATOM     10  C   UNL     1      -0.170  -0.690  -1.186  0.00  0.00    +0.011 A 
ATOM     11  C   UNL     1       0.079  -2.022  -1.170  0.00  0.00    +0.046 A 
ATOM     12  S   UNL     1       0.179  -2.359   0.580  0.00  0.00    -0.100 S 
ATOM     13  C   UNL     1      -0.113  -0.700   1.173  0.00  0.00    +0.005 A 
ENDBRANCH   1  13
BRANCH   2  14
ATOM     14  C   UNL     1       2.293   0.398   2.956  0.00  0.00    +0.242 C 
ATOM     15  O   UNL     1       2.404   1.487   3.489  0.00  0.00    -0.271 OA
ATOM     16  N   UNL     1       3.227  -0.021   2.079  0.00  0.00    -0.325 N 
ATOM     17  H   UNL     1       3.139  -0.888   1.654  0.00  0.00    +0.145 HD
ATOM     18  H   UNL     1       3.987   0.546   1.872  0.00  0.00    +0.145 HD
ENDBRANCH   2  14
BRANCH   5  19
ATOM     19  N   UNL     1      -2.018  -2.516   4.875  0.00  0.00    -0.329 N 
ATOM     20  H   UNL     1      -1.826  -3.166   5.569  0.00  0.00    +0.145 HD
ATOM     21  H   UNL     1      -2.937  -2.308   4.646  0.00  0.00    +0.145 HD
ENDBRANCH   5  19
BRANCH   6  22
ATOM     22  C   UNL     1      -2.608  -0.546   3.097  0.00  0.00    +0.341 C 
ATOM     23  O   UNL     1      -3.066   0.461   3.608  0.00  0.00    -0.245 OA
BRANCH  22  24
ATOM     24  O   UNL     1      -3.387  -1.316   2.307  0.00  0.00    -0.465 OA
ATOM     25  C   UNL     1      -4.737  -0.890   2.113  0.00  0.00    +0.280 C 
ENDBRANCH  22  24
ENDBRANCH   6  22
TORSDOF 5
