REMARK  Name = ZINC36073362
REMARK  16 active torsions:
REMARK  status: ('A' for Active; 'I' for Inactive)
REMARK    1  A    between atoms: C_1  and  C_2
REMARK    2  A    between atoms: C_2  and  O_3
REMARK    3  A    between atoms: O_3  and  C_4
REMARK    4  A    between atoms: C_4  and  C_6
REMARK    5  A    between atoms: C_13  and  C_15
REMARK    6  A    between atoms: C_18  and  C_20
REMARK    7  A    between atoms: C_20  and  N_21
REMARK    8  A    between atoms: N_21  and  C_22
REMARK    9  A    between atoms: N_21  and  C_33
REMARK   10  A    between atoms: C_22  and  C_23
REMARK   11  A    between atoms: C_25  and  O_31
REMARK   12  A    between atoms: C_28  and  O_29
REMARK   13  A    between atoms: O_29  and  C_30
REMARK   14  A    between atoms: O_31  and  C_32
REMARK   15  A    between atoms: C_33  and  C_35
REMARK   16  A    between atoms: C_33  and  C_36
REMARK                            x       y       z     vdW  Elec       q    Type
REMARK                         _______ _______ _______ _____ _____    ______ ____
ROOT
ATOM      1  N   UNL     1       5.452  -5.341  -7.644  0.00  0.00    +0.393 N 
ATOM      2  H   UNL     1       4.585  -5.318  -7.129  0.00  0.00    -0.080 HD
ENDROOT
BRANCH   1   3
ATOM      3  C   UNL     1       5.314  -4.547  -8.872  0.00  0.00    -0.040 C 
ATOM      4  C   UNL     1       4.044  -4.970  -9.612  0.00  0.00    -0.008 C 
BRANCH   3   5
ATOM      5  C   UNL     1       5.226  -3.085  -8.518  0.00  0.00    -0.061 A 
ATOM      6  C   UNL     1       4.088  -2.588  -7.910  0.00  0.00    +0.002 A 
ATOM      7  C   UNL     1       4.008  -1.247  -7.585  0.00  0.00    +0.000 A 
ATOM      8  C   UNL     1       5.065  -0.403  -7.867  0.00  0.00    +0.000 A 
ATOM      9  C   UNL     1       6.204  -0.900  -8.474  0.00  0.00    +0.000 A 
ATOM     10  C   UNL     1       6.286  -2.242  -8.795  0.00  0.00    +0.002 A 
ENDBRANCH   3   5
ENDBRANCH   1   3
BRANCH   1  11
ATOM     11  C   UNL     1       6.528  -4.780  -6.816  0.00  0.00    +0.020 C 
BRANCH  11  15
ATOM     12  C   UNL     1       4.741  -2.433  -4.713  0.00  0.00    +0.164 A 
ATOM     13  C   UNL     1       5.795  -1.663  -5.098  0.00  0.00    +0.230 A 
ATOM     14  O   UNL     1       6.561  -2.420  -5.900  0.00  0.00    -0.449 OA
ATOM     15  C   UNL     1       5.990  -3.629  -6.006  0.00  0.00    +0.179 A 
ATOM     16  N   UNL     1       4.902  -3.652  -5.295  0.00  0.00    -0.210 NA
BRANCH  12  23
ATOM     17  C   UNL     1       0.286  -2.837  -3.067  0.00  0.00    +0.115 C 
ATOM     18  C   UNL     1       0.214  -4.282  -3.565  0.00  0.00    +0.018 C 
ATOM     19  C   UNL     1       1.259  -4.497  -4.662  0.00  0.00    +0.020 C 
ATOM     20  C   UNL     1       2.657  -4.254  -4.085  0.00  0.00    +0.108 C 
ATOM     21  N   UNL     1       2.690  -2.918  -3.474  0.00  0.00    -0.295 N 
ATOM     22  C   UNL     1       1.673  -2.574  -2.471  0.00  0.00    +0.122 C 
ATOM     23  C   UNL     1       3.637  -2.026  -3.826  0.00  0.00    +0.268 C 
ATOM     24  O   UNL     1       3.579  -0.884  -3.411  0.00  0.00    -0.268 OA
BRANCH  17  25
ATOM     25  C   UNL     1      -0.765  -2.617  -2.009  0.00  0.00    +0.312 C 
ATOM     26  O   UNL     1      -1.498  -3.523  -1.688  0.00  0.00    -0.250 OA
BRANCH  25  27
ATOM     27  O   UNL     1      -0.887  -1.415  -1.424  0.00  0.00    -0.465 OA
BRANCH  27  29
ATOM     28  C   UNL     1      -1.892   0.150   0.119  0.00  0.00    +0.048 C 
ATOM     29  C   UNL     1      -1.905  -1.278  -0.430  0.00  0.00    +0.229 C 
ENDBRANCH  27  29
ENDBRANCH  25  27
ENDBRANCH  17  25
ENDBRANCH  12  23
ENDBRANCH  11  15
ENDBRANCH   1  11
BRANCH   1  30
ATOM     30  C   UNL     1       5.777  -6.731  -7.992  0.00  0.00    -0.038 C 
BRANCH  30  31
ATOM     31  C   UNL     1       4.513  -7.466  -8.355  0.00  0.00    -0.019 A 
ATOM     32  C   UNL     1       3.604  -7.804  -7.372  0.00  0.00    +0.051 A 
ATOM     33  C   UNL     1       2.440  -8.480  -7.706  0.00  0.00    +0.121 A 
ATOM     34  C   UNL     1       2.190  -8.818  -9.028  0.00  0.00    +0.049 A 
ATOM     35  C   UNL     1       3.099  -8.480 -10.011  0.00  0.00    +0.049 A 
ATOM     36  C   UNL     1       4.260  -7.799  -9.678  0.00  0.00    +0.122 A 
BRANCH  36  37
ATOM     37  O   UNL     1       5.153  -7.462 -10.647  0.00  0.00    -0.495 OA
ATOM     38  C   UNL     1       4.827  -7.836 -11.987  0.00  0.00    +0.277 C 
ENDBRANCH  36  37
BRANCH  33  39
ATOM     39  O   UNL     1       1.545  -8.813  -6.738  0.00  0.00    -0.495 OA
ATOM     40  C   UNL     1       0.369  -9.509  -7.154  0.00  0.00    +0.277 C 
ENDBRANCH  33  39
ENDBRANCH  30  31
ENDBRANCH   1  30
TORSDOF 12
