REMARK  Name = ZINC12864958
REMARK  7 active torsions:
REMARK  status: ('A' for Active; 'I' for Inactive)
REMARK    1  A    between atoms: C_1  and  C_2
REMARK    2  A    between atoms: C_9  and  C_11
REMARK    3  A    between atoms: C_14  and  S_16
REMARK    4  A    between atoms: S_16  and  C_17
REMARK    5  A    between atoms: C_17  and  C_18
REMARK    6  A    between atoms: N_20  and  C_21
REMARK    7  A    between atoms: C_22  and  C_29
REMARK                            x       y       z     vdW  Elec       q    Type
REMARK                         _______ _______ _______ _____ _____    ______ ____
ROOT
ATOM      1  C   UNL     1       7.152  -0.056  -0.067  0.00  0.00    +0.175 C 
ENDROOT
BRANCH   1   2
ATOM      2  C   UNL     1       8.655   0.059  -0.081  0.00  0.00    +0.228 C 
ATOM      3  O   UNL     1       9.179   1.153  -0.080  0.00  0.00    -0.275 OA
ATOM      4  N   UNL     1       9.416  -1.053  -0.094  0.00  0.00    -0.279 N 
ATOM      5  H   UNL     1       8.997  -1.928  -0.095  0.00  0.00    +0.155 HD
BRANCH   4   6
ATOM      6  C   UNL     1      10.799  -0.947  -0.107  0.00  0.00    +0.084 A 
ATOM      7  C   UNL     1      11.739  -1.962  -0.116  0.00  0.00    +0.068 A 
ATOM      8  C   UNL     1      13.150  -1.578  -0.133  0.00  0.00    -0.023 A 
ATOM      9  C   UNL     1      13.381  -0.253  -0.128  0.00  0.00    -0.004 A 
ATOM     10  S   UNL     1      11.767   0.487  -0.108  0.00  0.00    -0.077 S 
ATOM     11  C   UNL     1      14.852   0.063  -0.144  0.00  0.00    +0.043 C 
ATOM     12  C   UNL     1      15.528  -1.251  -0.595  0.00  0.00    +0.010 C 
ATOM     13  C   UNL     1      14.496  -2.305  -0.148  0.00  0.00    +0.037 C 
BRANCH   7  14
ATOM     14  C   UNL     1      11.336  -3.372  -0.112  0.00  0.00    +0.244 C 
ATOM     15  O   UNL     1      11.159  -3.957  -1.164  0.00  0.00    -0.270 OA
ATOM     16  N   UNL     1      11.160  -4.020   1.057  0.00  0.00    -0.325 N 
ATOM     17  H   UNL     1      11.301  -3.554   1.896  0.00  0.00    +0.145 HD
ATOM     18  H   UNL     1      10.893  -4.952   1.059  0.00  0.00    +0.145 HD
ENDBRANCH   7  14
ENDBRANCH   4   6
ENDBRANCH   1   2
BRANCH   1  19
ATOM     19  S   UNL     1       6.420   1.599  -0.051  0.00  0.00    -0.056 S 
BRANCH  19  23
ATOM     20  C   UNL     1       2.552   1.288  -0.015  0.00  0.00    +0.256 A 
ATOM     21  N   UNL     1       2.925   0.029  -0.026  0.00  0.00    -0.106 NA
ATOM     22  N   UNL     1       4.210  -0.036  -0.039  0.00  0.00    -0.101 NA
ATOM     23  C   UNL     1       4.710   1.177  -0.037  0.00  0.00    +0.278 A 
ATOM     24  O   UNL     1       3.675   2.041  -0.028  0.00  0.00    -0.410 OA
BRANCH  20  32
ATOM     25  C   UNL     1      -5.027   1.401   0.337  0.00  0.00    +0.008 C 
ATOM     26  C   UNL     1      -3.644   2.038   0.495  0.00  0.00    -0.009 C 
ATOM     27  C   UNL     1      -3.580   3.321  -0.339  0.00  0.00    +0.009 C 
ATOM     28  C   UNL     1      -2.300   4.086   0.042  0.00  0.00    +0.043 C 
ATOM     29  C   UNL     1      -1.158   3.122   0.028  0.00  0.00    -0.006 A 
ATOM     30  C   UNL     1      -1.222   1.760   0.017  0.00  0.00    -0.036 A 
ATOM     31  C   UNL     1      -0.013   1.076   0.008  0.00  0.00    +0.024 A 
ATOM     32  C   UNL     1       1.169   1.787   0.001  0.00  0.00    +0.076 A 
ATOM     33  S   UNL     1       0.580   3.474   0.015  0.00  0.00    -0.088 S 
ATOM     34  C   UNL     1      -2.575   1.053   0.021  0.00  0.00    +0.039 C 
ENDBRANCH  20  32
ENDBRANCH  19  23
ENDBRANCH   1  19
TORSDOF 6
