REMARK  Name = ZINC30574858
REMARK  11 active torsions:
REMARK  status: ('A' for Active; 'I' for Inactive)
REMARK    1  A    between atoms: C_1  and  C_2
REMARK    2  A    between atoms: C_5  and  C_7
REMARK    3  A    between atoms: N_9  and  C_10
REMARK    4  A    between atoms: C_13  and  C_16
REMARK    5  A    between atoms: N_18  and  C_19
REMARK    6  A    between atoms: C_19  and  C_20
REMARK    7  A    between atoms: C_20  and  C_22
REMARK    8  A    between atoms: C_20  and  C_31
REMARK    9  A    between atoms: C_25  and  N_28
REMARK   10  A    between atoms: N_28  and  C_29
REMARK   11  A    between atoms: N_28  and  C_30
REMARK                            x       y       z     vdW  Elec       q    Type
REMARK                         _______ _______ _______ _____ _____    ______ ____
ROOT
ATOM      1  C   UNL     1      -1.185   2.306   0.014  0.00  0.00    +0.068 C 
ENDROOT
BRANCH   1   2
ATOM      2  C   UNL     1       0.040   1.429   0.016  0.00  0.00    -0.013 A 
ATOM      3  C   UNL     1       1.318   1.841   0.014  0.00  0.00    +0.088 A 
ATOM      4  N   UNL     1       2.157   0.760   0.011  0.00  0.00    -0.360 N 
ATOM      5  H   UNL     1       3.247   0.910   0.009  0.00  0.00    +0.165 HD
ATOM      6  C   UNL     1       1.421  -0.404   0.011  0.00  0.00    +0.047 A 
ATOM      7  C   UNL     1       0.063  -0.036   0.015  0.00  0.00    +0.003 A 
ATOM      8  C   UNL     1      -0.926  -1.022   0.015  0.00  0.00    +0.010 A 
ATOM      9  C   UNL     1      -0.568  -2.341   0.013  0.00  0.00    +0.001 A 
ATOM     10  C   UNL     1       0.770  -2.709   0.009  0.00  0.00    +0.002 A 
ATOM     11  C   UNL     1       1.762  -1.752   0.008  0.00  0.00    +0.026 A 
ENDBRANCH   1   2
BRANCH   1  12
ATOM     12  C   UNL     1      -1.177   3.178  -1.215  0.00  0.00    -0.038 A 
ATOM     13  C   UNL     1      -0.136   4.063  -1.426  0.00  0.00    +0.006 A 
ATOM     14  C   UNL     1      -0.122   4.859  -2.555  0.00  0.00    +0.023 A 
ATOM     15  C   UNL     1      -1.161   4.778  -3.473  0.00  0.00    +0.029 A 
ATOM     16  C   UNL     1      -2.208   3.891  -3.255  0.00  0.00    +0.023 A 
ATOM     17  C   UNL     1      -2.213   3.094  -2.127  0.00  0.00    +0.006 A 
BRANCH  15  18
ATOM     18  N   UNL     1      -1.154   5.586  -4.612  0.00  0.00    -0.336 N 
ATOM     19  C   UNL     1      -2.251   5.499  -5.579  0.00  0.00    +0.129 C 
ATOM     20  C   UNL     1      -0.049   6.520  -4.840  0.00  0.00    +0.129 C 
ENDBRANCH  15  18
ENDBRANCH   1  12
BRANCH   1  21
ATOM     21  C   UNL     1      -1.183   3.188   1.264  0.00  0.00    +0.117 C 
BRANCH  21  24
ATOM     22  C   UNL     1      -1.332   2.909   3.680  0.00  0.00    +0.244 C 
ATOM     23  O   UNL     1      -1.244   4.117   3.796  0.00  0.00    -0.270 OA
ATOM     24  N   UNL     1      -1.311   2.346   2.456  0.00  0.00    -0.310 N 
ATOM     25  H   UNL     1      -1.390   1.254   2.352  0.00  0.00    +0.149 HD
BRANCH  22  29
ATOM     26  C   UNL     1      -1.705   0.468   7.136  0.00  0.00    +0.033 A 
ATOM     27  C   UNL     1      -1.605   1.849   7.269  0.00  0.00    +0.024 A 
ATOM     28  C   UNL     1      -1.483   2.644   6.151  0.00  0.00    +0.015 A 
ATOM     29  C   UNL     1      -1.461   2.061   4.881  0.00  0.00    +0.037 A 
ATOM     30  C   UNL     1      -1.568   0.674   4.750  0.00  0.00    +0.015 A 
ATOM     31  C   UNL     1      -1.684  -0.115   5.873  0.00  0.00    +0.024 A 
BRANCH  26  34
ATOM     32  C   UNL     1      -2.587  -1.446   8.230  0.00  0.00    +0.221 C 
ATOM     33  O   UNL     1      -3.097  -1.795   7.187  0.00  0.00    -0.275 OA
ATOM     34  N   UNL     1      -1.828  -0.333   8.270  0.00  0.00    -0.285 N 
ATOM     35  H   UNL     1      -1.304  -0.057   9.197  0.00  0.00    +0.155 HD
BRANCH  32  39
ATOM     36  C   UNL     1      -4.559  -3.861  10.570  0.00  0.00    +0.008 C 
ATOM     37  C   UNL     1      -3.675  -3.508   9.372  0.00  0.00    -0.002 C 
ATOM     38  C   UNL     1      -2.161  -3.643   9.546  0.00  0.00    +0.017 C 
ATOM     39  C   UNL     1      -2.803  -2.256   9.483  0.00  0.00    +0.078 C 
ENDBRANCH  32  39
ENDBRANCH  26  34
ENDBRANCH  22  29
ENDBRANCH  21  24
ENDBRANCH   1  21
TORSDOF 8
