REMARK  Name = ZINC65924952
REMARK  2 active torsions:
REMARK  status: ('A' for Active; 'I' for Inactive)
REMARK    1  A    between atoms: C_3  and  C_11
REMARK    2  A    between atoms: C_5  and  N_7
REMARK                            x       y       z     vdW  Elec       q    Type
REMARK                         _______ _______ _______ _____ _____    ______ ____
ROOT
ATOM      1  C   UNL     1       0.019   0.999  -0.962  0.00  0.00    +0.003 A 
ATOM      2  C   UNL     1       1.173   1.751  -1.047  0.00  0.00    +0.013 A 
ATOM      3  C   UNL     1       2.267   1.445  -0.235  0.00  0.00    +0.039 A 
ATOM      4  C   UNL     1       2.188   0.377   0.659  0.00  0.00    +0.036 A 
ATOM      5  C   UNL     1       1.024  -0.372   0.736  0.00  0.00    +0.035 A 
ATOM      6  C   UNL     1      -0.059  -0.059  -0.076  0.00  0.00    +0.023 A 
ENDROOT
BRANCH   3   7
ATOM      7  C   UNL     1       3.504   2.249  -0.324  0.00  0.00    +0.247 C 
ATOM      8  O   UNL     1       4.589   1.706  -0.238  0.00  0.00    -0.270 OA
ATOM      9  N   UNL     1       3.430   3.583  -0.499  0.00  0.00    -0.294 N 
ATOM     10  C   UNL     1       2.137   4.176  -0.689  0.00  0.00    +0.112 C 
ATOM     11  C   UNL     1       2.028   5.547  -0.094  0.00  0.00    +0.007 C 
ATOM     12  C   UNL     1       2.599   5.628   1.312  0.00  0.00    +0.008 C 
ATOM     13  C   UNL     1       4.083   5.931   1.366  0.00  0.00    -0.009 C 
ATOM     14  C   UNL     1       4.429   7.138   0.489  0.00  0.00    +0.007 C 
ATOM     15  C   UNL     1       4.010   6.793  -0.942  0.00  0.00    -0.009 C 
ATOM     16  C   UNL     1       2.486   6.671  -0.980  0.00  0.00    +0.008 C 
ATOM     17  C   UNL     1       4.675   5.525  -1.427  0.00  0.00    +0.026 C 
ATOM     18  C   UNL     1       4.662   4.352  -0.482  0.00  0.00    +0.077 C 
ATOM     19  C   UNL     1       4.962   4.758   0.956  0.00  0.00    +0.026 C 
ENDBRANCH   3   7
BRANCH   5  20
ATOM     20  N   UNL     1       0.941  -1.444   1.632  0.00  0.00    -0.270 N 
ATOM     21  C   UNL     1       1.572  -1.380   2.821  0.00  0.00    +0.301 C 
ATOM     22  O   UNL     1       2.133  -0.355   3.157  0.00  0.00    -0.253 OA
ATOM     23  N   UNL     1       1.580  -2.452   3.638  0.00  0.00    -0.313 N 
ATOM     24  H   UNL     1       0.428  -2.234   1.397  0.00  0.00    +0.156 HD
ATOM     25  H   UNL     1       1.132  -3.270   3.370  0.00  0.00    +0.146 HD
ATOM     26  H   UNL     1       2.035  -2.406   4.494  0.00  0.00    +0.146 HD
ENDBRANCH   5  20
TORSDOF 2
