REMARK  Name = ZINC63541407
REMARK  6 active torsions:
REMARK  status: ('A' for Active; 'I' for Inactive)
REMARK    1  A    between atoms: C_1  and  C_2
REMARK    2  A    between atoms: C_4  and  N_17
REMARK    3  A    between atoms: N_8  and  C_11
REMARK    4  A    between atoms: N_9  and  C_10
REMARK    5  A    between atoms: N_17  and  S_18
REMARK    6  A    between atoms: S_18  and  C_21
REMARK                            x       y       z     vdW  Elec       q    Type
REMARK                         _______ _______ _______ _____ _____    ______ ____
ROOT
ATOM      1  N   UNL     1      -1.582  -0.969  -1.431  0.00  0.00    -0.176 NA
ATOM      2  H   UNL     1      -0.835  -1.200  -2.006  0.00  0.00    +0.149 HD
ENDROOT
BRANCH   1   5
ATOM      3  C   UNL     1      -0.242   1.629   0.258  0.00  0.00    +0.028 C 
ATOM      4  C   UNL     1      -0.009   0.121   0.147  0.00  0.00    +0.101 C 
ATOM      5  C   UNL     1      -1.348  -0.635  -0.025  0.00  0.00    +0.182 C 
ATOM      6  C   UNL     1      -1.119  -1.887   0.802  0.00  0.00    +0.254 C 
ATOM      7  O   UNL     1      -1.790  -2.897   0.770  0.00  0.00    -0.272 OA
ATOM      8  N   UNL     1      -0.039  -1.679   1.578  0.00  0.00    -0.201 N 
ATOM      9  N   UNL     1       0.494  -0.433   1.425  0.00  0.00    -0.218 NA
ATOM     10  C   UNL     1       0.133   0.436   2.554  0.00  0.00    +0.128 C 
BRANCH   8  11
ATOM     11  C   UNL     1       0.483  -2.640   2.451  0.00  0.00    +0.053 A 
ATOM     12  C   UNL     1      -0.364  -3.343   3.298  0.00  0.00    +0.025 A 
ATOM     13  C   UNL     1       0.154  -4.292   4.158  0.00  0.00    +0.002 A 
ATOM     14  C   UNL     1       1.514  -4.542   4.176  0.00  0.00    +0.000 A 
ATOM     15  C   UNL     1       2.360  -3.843   3.333  0.00  0.00    +0.002 A 
ATOM     16  C   UNL     1       1.847  -2.898   2.467  0.00  0.00    +0.025 A 
ENDBRANCH   8  11
ENDBRANCH   1   5
BRANCH   1  17
ATOM     17  S   UNL     1      -3.122  -0.954  -2.041  0.00  0.00    +0.059 S 
ATOM     18  O   UNL     1      -3.017  -1.291  -3.418  0.00  0.00    -0.153 OA
ATOM     19  O   UNL     1      -3.925  -1.697  -1.135  0.00  0.00    -0.153 OA
BRANCH  17  20
ATOM     20  C   UNL     1      -3.693   0.711  -1.972  0.00  0.00    +0.106 A 
ATOM     21  C   UNL     1      -4.351   1.167  -0.838  0.00  0.00    +0.030 A 
ATOM     22  C   UNL     1      -4.806   2.465  -0.762  0.00  0.00    +0.028 A 
ATOM     23  C   UNL     1      -4.605   3.330  -1.833  0.00  0.00    +0.049 A 
ATOM     24  C   UNL     1      -3.937   2.865  -2.981  0.00  0.00    +0.000 A 
ATOM     25  C   UNL     1      -3.480   1.544  -3.034  0.00  0.00    +0.038 A 
ATOM     26  C   UNL     1      -3.730   3.784  -4.102  0.00  0.00    +0.015 A 
ATOM     27  C   UNL     1      -4.192   5.054  -3.993  0.00  0.00    +0.071 A 
ATOM     28  C   UNL     1      -4.855   5.471  -2.818  0.00  0.00    +0.249 A 
ATOM     29  O   UNL     1      -5.262   6.617  -2.741  0.00  0.00    -0.268 OA
ATOM     30  N   UNL     1      -5.050   4.635  -1.784  0.00  0.00    -0.322 N 
ATOM     31  H   UNL     1      -5.510   4.953  -0.992  0.00  0.00    +0.169 HD
ENDBRANCH  17  20
ENDBRANCH   1  17
TORSDOF 4
