REMARK  Name = ZINC13030714
REMARK  9 active torsions:
REMARK  status: ('A' for Active; 'I' for Inactive)
REMARK    1  A    between atoms: C_1  and  C_2
REMARK    2  A    between atoms: C_3  and  C_22
REMARK    3  A    between atoms: N_7  and  S_8
REMARK    4  A    between atoms: S_8  and  C_11
REMARK    5  A    between atoms: C_13  and  C_19
REMARK    6  A    between atoms: C_16  and  O_17
REMARK    7  A    between atoms: O_17  and  C_18
REMARK    8  A    between atoms: C_25  and  O_28
REMARK    9  A    between atoms: O_28  and  C_29
REMARK                            x       y       z     vdW  Elec       q    Type
REMARK                         _______ _______ _______ _____ _____    ______ ____
ROOT
ATOM      1  C   UNL     1      -0.008   1.499   0.135  0.00  0.00    +0.054 C 
ATOM      2  C   UNL     1       0.007  -0.006   0.059  0.00  0.00    +0.014 A 
ATOM      3  C   UNL     1      -1.030  -0.865   0.093  0.00  0.00    +0.058 A 
ATOM      4  N   UNL     1      -0.798  -2.213   0.008  0.00  0.00    -0.332 N 
ATOM      5  C   UNL     1       0.503  -2.650  -0.111  0.00  0.00    +0.192 A 
ATOM      6  S   UNL     1       1.402  -1.106  -0.109  0.00  0.00    -0.053 S 
ATOM      7  N   UNL     1       0.960  -3.873  -0.206  0.00  0.00    -0.103 NA
ATOM      8  H   UNL     1      -1.533  -2.845   0.032  0.00  0.00    +0.168 HD
ENDROOT
BRANCH   3   9
ATOM      9  C   UNL     1      -2.413  -0.357   0.223  0.00  0.00    -0.001 A 
ATOM     10  C   UNL     1      -2.855   0.686  -0.594  0.00  0.00    +0.013 A 
ATOM     11  C   UNL     1      -4.145   1.157  -0.469  0.00  0.00    +0.046 A 
ATOM     12  C   UNL     1      -5.004   0.597   0.466  0.00  0.00    +0.127 A 
ATOM     13  C   UNL     1      -4.568  -0.440   1.280  0.00  0.00    +0.046 A 
ATOM     14  C   UNL     1      -3.282  -0.922   1.158  0.00  0.00    +0.013 A 
BRANCH  12  15
ATOM     15  O   UNL     1      -6.274   1.064   0.585  0.00  0.00    -0.434 OA
BRANCH  15  16
ATOM     16  C   UNL     1      -7.105   0.442   1.568  0.00  0.00    +0.541 C 
ATOM     17  F   UNL     1      -7.232  -0.920   1.276  0.00  0.00    -0.166 F 
ATOM     18  F   UNL     1      -6.527   0.597   2.833  0.00  0.00    -0.166 F 
ENDBRANCH  15  16
ENDBRANCH  12  15
ENDBRANCH   3   9
BRANCH   7  19
ATOM     19  S   UNL     1       2.589  -4.141  -0.342  0.00  0.00    +0.105 S 
ATOM     20  O   UNL     1       2.986  -3.602  -1.595  0.00  0.00    -0.146 OA
ATOM     21  O   UNL     1       3.172  -3.725   0.885  0.00  0.00    -0.146 OA
BRANCH  19  22
ATOM     22  C   UNL     1       2.824  -5.884  -0.446  0.00  0.00    +0.155 A 
ATOM     23  C   UNL     1       3.337  -6.441  -1.595  0.00  0.00    +0.048 A 
ATOM     24  C   UNL     1       3.523  -7.825  -1.676  0.00  0.00    +0.065 A 
ATOM     25  C   UNL     1       3.185  -8.637  -0.588  0.00  0.00    +0.019 A 
ATOM     26  C   UNL     1       2.672  -8.072   0.557  0.00  0.00    +0.048 A 
ATOM     27  C   UNL     1       2.494  -6.694   0.635  0.00  0.00    +0.147 A 
BRANCH  24  28
ATOM     28  C   UNL     1       4.072  -8.426  -2.903  0.00  0.00    +0.387 C 
ATOM     29  O   UNL     1       4.367  -7.714  -3.854  0.00  0.00    -0.241 OA
ATOM     30  O   UNL     1       4.234  -9.636  -2.972  0.00  0.00    -0.241 OA
ENDBRANCH  24  28
BRANCH  27  31
ATOM     31  O   UNL     1       1.994  -6.141   1.768  0.00  0.00    -0.493 OA
ATOM     32  C   UNL     1       1.677  -7.031   2.840  0.00  0.00    +0.277 C 
ENDBRANCH  27  31
ENDBRANCH  19  22
ENDBRANCH   7  19
TORSDOF 7
