REMARK  Name = ZINC45403713
REMARK  4 active torsions:
REMARK  status: ('A' for Active; 'I' for Inactive)
REMARK    1  A    between atoms: C_1  and  C_2
REMARK    2  A    between atoms: C_2  and  C_4
REMARK    3  A    between atoms: C_2  and  N_13
REMARK    4  A    between atoms: N_16  and  C_17
REMARK                            x       y       z     vdW  Elec       q    Type
REMARK                         _______ _______ _______ _____ _____    ______ ____
ROOT
ATOM      1  N   UNL     1       0.688  -0.476  -1.203  0.00  0.00    -0.293 N 
ATOM      2  C   UNL     1       0.006  -0.608  -2.358  0.00  0.00    +0.300 C 
ATOM      3  O   UNL     1      -1.178  -0.335  -2.400  0.00  0.00    -0.253 OA
ATOM      4  N   UNL     1       0.637  -1.043  -3.467  0.00  0.00    -0.295 N 
ATOM      5  H   UNL     1       1.632  -0.695  -1.170  0.00  0.00    +0.151 HD
ATOM      6  H   UNL     1       1.582  -1.261  -3.434  0.00  0.00    +0.151 HD
ENDROOT
BRANCH   4   7
ATOM      7  C   UNL     1      -0.104  -1.186  -4.723  0.00  0.00    +0.092 C 
ATOM      8  C   UNL     1       0.865  -1.075  -5.903  0.00  0.00    +0.025 C 
ATOM      9  C   UNL     1       0.087  -1.192  -7.216  0.00  0.00    +0.021 C 
ATOM     10  C   UNL     1      -0.598  -2.561  -7.279  0.00  0.00    +0.108 C 
ATOM     11  N   UNL     1      -1.420  -2.734  -6.074  0.00  0.00    -0.298 N 
ATOM     12  C   UNL     1      -0.792  -2.554  -4.758  0.00  0.00    +0.130 C 
ATOM     13  C   UNL     1      -2.761  -3.061  -6.176  0.00  0.00    +0.218 A 
ATOM     14  N   UNL     1      -3.477  -3.206  -5.071  0.00  0.00    -0.223 NA
ATOM     15  C   UNL     1      -4.761  -3.518  -5.133  0.00  0.00    +0.116 A 
ATOM     16  C   UNL     1      -5.355  -3.693  -6.373  0.00  0.00    +0.039 A 
ATOM     17  C   UNL     1      -4.577  -3.534  -7.509  0.00  0.00    +0.116 A 
ATOM     18  N   UNL     1      -3.299  -3.217  -7.377  0.00  0.00    -0.223 NA
ENDBRANCH   4   7
BRANCH   1  20
ATOM     19  C   UNL     1      -0.019   1.526   0.010  0.00  0.00    +0.033 C 
ATOM     20  C   UNL     1       0.002  -0.004   0.002  0.00  0.00    +0.102 C 
BRANCH  20  21
ATOM     21  C   UNL     1       0.731  -0.503   1.223  0.00  0.00    -0.024 A 
ATOM     22  C   UNL     1       2.113  -0.513   1.245  0.00  0.00    +0.009 A 
ATOM     23  C   UNL     1       2.786  -0.970   2.363  0.00  0.00    +0.050 A 
ATOM     24  C   UNL     1       2.076  -1.419   3.464  0.00  0.00    +0.166 A 
ATOM     25  C   UNL     1       0.684  -1.409   3.442  0.00  0.00    +0.167 A 
ATOM     26  C   UNL     1       0.016  -0.945   2.320  0.00  0.00    +0.055 A 
ATOM     27  O   UNL     1       0.225  -1.895   4.632  0.00  0.00    -0.453 OA
ATOM     28  C   UNL     1       1.343  -2.583   5.223  0.00  0.00    +0.466 C 
ATOM     29  O   UNL     1       2.490  -1.911   4.668  0.00  0.00    -0.453 OA
ENDBRANCH  20  21
ENDBRANCH   1  20
TORSDOF 3
