REMARK  Name = ZINC08833160
REMARK  9 active torsions:
REMARK  status: ('A' for Active; 'I' for Inactive)
REMARK    1  A    between atoms: C_1  and  C_2
REMARK    2  A    between atoms: C_4  and  C_37
REMARK    3  A    between atoms: C_9  and  C_11
REMARK    4  A    between atoms: C_15  and  N_17
REMARK    5  A    between atoms: N_17  and  C_18
REMARK    6  A    between atoms: C_18  and  N_20
REMARK    7  A    between atoms: C_21  and  C_23
REMARK    8  A    between atoms: C_26  and  N_32
REMARK    9  A    between atoms: C_27  and  N_29
REMARK                            x       y       z     vdW  Elec       q    Type
REMARK                         _______ _______ _______ _____ _____    ______ ____
ROOT
ATOM      1  C   UNL     1      -3.638   3.099   0.031  0.00  0.00    +0.141 C 
ATOM      2  S   UNL     1      -3.602   1.395  -0.129  0.00  0.00    -0.018 S 
ENDROOT
BRANCH   1   3
ATOM      3  N   UNL     1      -4.811   3.758  -0.047  0.00  0.00    -0.264 N 
ATOM      4  C   UNL     1      -5.955   3.076  -0.251  0.00  0.00    +0.250 C 
ATOM      5  O   UNL     1      -5.930   1.866  -0.364  0.00  0.00    -0.270 OA
ATOM      6  H   UNL     1      -4.831   4.724   0.043  0.00  0.00    +0.157 HD
BRANCH   4   7
ATOM      7  C   UNL     1      -7.238   3.798  -0.336  0.00  0.00    +0.039 A 
ATOM      8  C   UNL     1      -7.270   5.189  -0.200  0.00  0.00    +0.015 A 
ATOM      9  C   UNL     1      -8.458   5.858  -0.284  0.00  0.00    +0.026 A 
ATOM     10  C   UNL     1      -9.643   5.157  -0.495  0.00  0.00    +0.060 A 
ATOM     11  C   UNL     1      -9.621   3.771  -0.626  0.00  0.00    +0.148 A 
ATOM     12  C   UNL     1      -8.427   3.092  -0.547  0.00  0.00    +0.047 A 
BRANCH  10  13
ATOM     13  N   UNL     1     -10.849   5.843  -0.574  0.00  0.00    -0.328 N 
ATOM     14  C   UNL     1     -11.030   6.740   0.596  0.00  0.00    +0.105 C 
ATOM     15  C   UNL     1     -12.085   7.761   0.101  0.00  0.00    +0.020 C 
ATOM     16  C   UNL     1     -11.694   7.972  -1.380  0.00  0.00    +0.020 C 
ATOM     17  C   UNL     1     -10.882   6.721  -1.764  0.00  0.00    +0.105 C 
ENDBRANCH  10  13
BRANCH  11  18
ATOM     18  N   UNL     1     -10.882   3.029  -0.849  0.00  0.00    +0.058 N 
ATOM     19  O   UNL     1     -10.877   1.811  -0.865  0.00  0.00    -0.126 OA
ATOM     20  O   UNL     1     -11.925   3.636  -1.017  0.00  0.00    -0.126 OA
ENDBRANCH  11  18
ENDBRANCH   4   7
ENDBRANCH   1   3
BRANCH   1  21
ATOM     21  N   UNL     1      -2.494   3.781   0.235  0.00  0.00    -0.297 N 
ATOM     22  H   UNL     1      -2.522   4.735   0.406  0.00  0.00    +0.154 HD
BRANCH  21  27
ATOM     23  C   UNL     1       0.941   2.750   1.089  0.00  0.00    +0.039 A 
ATOM     24  C   UNL     1       1.167   1.774   0.116  0.00  0.00    +0.013 A 
ATOM     25  C   UNL     1       0.181   1.476  -0.803  0.00  0.00    +0.003 A 
ATOM     26  C   UNL     1      -1.029   2.143  -0.768  0.00  0.00    +0.023 A 
ATOM     27  C   UNL     1      -1.265   3.112   0.200  0.00  0.00    +0.033 A 
ATOM     28  C   UNL     1      -0.282   3.420   1.128  0.00  0.00    +0.036 A 
BRANCH  23  37
ATOM     29  C   UNL     1       5.224   5.323   6.521  0.00  0.00    +0.044 C 
ATOM     30  C   UNL     1       4.747   4.523   5.336  0.00  0.00    -0.048 A 
ATOM     31  C   UNL     1       5.584   3.580   4.759  0.00  0.00    +0.010 A 
ATOM     32  C   UNL     1       5.163   2.840   3.674  0.00  0.00    -0.006 A 
ATOM     33  C   UNL     1       3.894   3.039   3.153  0.00  0.00    +0.159 A 
ATOM     34  C   UNL     1       3.042   3.993   3.734  0.00  0.00    +0.110 A 
ATOM     35  C   UNL     1       3.483   4.734   4.833  0.00  0.00    +0.035 A 
ATOM     36  N   UNL     1       1.887   3.971   3.020  0.00  0.00    -0.209 NA
ATOM     37  C   UNL     1       1.994   3.073   2.074  0.00  0.00    +0.228 A 
ATOM     38  O   UNL     1       3.207   2.490   2.127  0.00  0.00    -0.435 OA
ATOM     39  C   UNL     1       6.081   1.817   3.055  0.00  0.00    +0.047 C 
ENDBRANCH  23  37
ENDBRANCH  21  27
ENDBRANCH   1  21
TORSDOF 7
