REMARK  Name = ZINC59331746
REMARK  6 active torsions:
REMARK  status: ('A' for Active; 'I' for Inactive)
REMARK    1  A    between atoms: C_4  and  C_7
REMARK    2  A    between atoms: N_12  and  C_15
REMARK    3  A    between atoms: C_18  and  N_22
REMARK    4  A    between atoms: N_22  and  C_23
REMARK    5  A    between atoms: C_23  and  N_25
REMARK    6  A    between atoms: C_26  and  C_28
REMARK                            x       y       z     vdW  Elec       q    Type
REMARK                         _______ _______ _______ _____ _____    ______ ____
ROOT
ATOM      1  C   UNL     1       3.821  -5.963  -0.907  0.00  0.00    +0.048 A 
ATOM      2  C   UNL     1       4.276  -6.736  -1.968  0.00  0.00    +0.026 A 
ATOM      3  C   UNL     1       4.308  -8.111  -1.857  0.00  0.00    +0.025 A 
ATOM      4  C   UNL     1       3.885  -8.724  -0.685  0.00  0.00    +0.034 A 
ATOM      5  C   UNL     1       3.429  -7.953   0.376  0.00  0.00    +0.045 A 
ATOM      6  C   UNL     1       3.403  -6.576   0.268  0.00  0.00    +0.064 A 
ATOM      7 CL   UNL     1       2.841  -5.611   1.597  0.00  0.00    -0.082 Cl
ENDROOT
BRANCH   1  13
ATOM      8  C   UNL     1       3.272  -0.696  -0.214  0.00  0.00    +0.247 C 
ATOM      9  O   UNL     1       4.268  -0.043   0.034  0.00  0.00    -0.270 OA
ATOM     10  N   UNL     1       3.303  -2.039  -0.106  0.00  0.00    -0.295 N 
ATOM     11  C   UNL     1       2.140  -2.847  -0.499  0.00  0.00    +0.127 C 
ATOM     12  C   UNL     1       2.593  -3.886  -1.532  0.00  0.00    +0.124 C 
ATOM     13  N   UNL     1       3.790  -4.569  -1.020  0.00  0.00    -0.326 N 
ATOM     14  C   UNL     1       4.952  -3.760  -0.627  0.00  0.00    +0.124 C 
ATOM     15  C   UNL     1       4.502  -2.721   0.402  0.00  0.00    +0.127 C 
BRANCH   8  19
ATOM     16  C   UNL     1      -0.301   1.256  -1.422  0.00  0.00    +0.000 A 
ATOM     17  C   UNL     1       0.926   1.762  -1.814  0.00  0.00    +0.001 A 
ATOM     18  C   UNL     1       2.090   1.132  -1.425  0.00  0.00    +0.013 A 
ATOM     19  C   UNL     1       2.029  -0.016  -0.634  0.00  0.00    +0.037 A 
ATOM     20  C   UNL     1       0.787  -0.520  -0.242  0.00  0.00    +0.013 A 
ATOM     21  C   UNL     1      -0.369   0.118  -0.638  0.00  0.00    +0.001 A 
ENDBRANCH   8  19
ENDBRANCH   1  13
BRANCH   4  22
ATOM     22  N   UNL     1       3.917 -10.120  -0.573  0.00  0.00    -0.297 N 
ATOM     23  H   UNL     1       3.154 -10.595  -0.208  0.00  0.00    +0.154 HD
BRANCH  22  24
ATOM     24  C   UNL     1       5.008 -10.803  -0.972  0.00  0.00    +0.141 C 
ATOM     25  S   UNL     1       6.310  -9.978  -1.716  0.00  0.00    -0.018 S 
BRANCH  24  26
ATOM     26  N   UNL     1       5.073 -12.137  -0.786  0.00  0.00    -0.261 N 
ATOM     27  C   UNL     1       6.164 -12.820  -1.186  0.00  0.00    +0.285 C 
ATOM     28  O   UNL     1       7.089 -12.233  -1.714  0.00  0.00    -0.266 OA
ATOM     29  H   UNL     1       4.335 -12.604  -0.365  0.00  0.00    +0.157 HD
BRANCH  27  30
ATOM     30  C   UNL     1       6.236 -14.273  -0.983  0.00  0.00    +0.191 A 
ATOM     31  C   UNL     1       7.284 -15.061  -1.339  0.00  0.00    +0.063 A 
ATOM     32  C   UNL     1       6.917 -16.422  -0.948  0.00  0.00    +0.021 A 
ATOM     33  C   UNL     1       7.550 -17.665  -1.038  0.00  0.00    +0.011 A 
ATOM     34  C   UNL     1       6.920 -18.781  -0.565  0.00  0.00    +0.001 A 
ATOM     35  C   UNL     1       5.657 -18.688   0.003  0.00  0.00    +0.004 A 
ATOM     36  C   UNL     1       5.016 -17.472   0.101  0.00  0.00    +0.047 A 
ATOM     37  C   UNL     1       5.637 -16.322  -0.372  0.00  0.00    +0.136 A 
ATOM     38  O   UNL     1       5.274 -15.025  -0.409  0.00  0.00    -0.450 OA
ENDBRANCH  27  30
ENDBRANCH  24  26
ENDBRANCH  22  24
ENDBRANCH   4  22
TORSDOF 6
