REMARK  Name = ZINC44592611
REMARK  3 active torsions:
REMARK  status: ('A' for Active; 'I' for Inactive)
REMARK    1  A    between atoms: C_6  and  C_20
REMARK    2  A    between atoms: C_11  and  C_13
REMARK    3  A    between atoms: C_13  and  N_19
REMARK                            x       y       z     vdW  Elec       q    Type
REMARK                         _______ _______ _______ _____ _____    ______ ____
ROOT
ATOM      1  C   UNL     1       0.417   0.888   1.015  0.00  0.00    +0.014 A 
ATOM      2  C   UNL     1       1.622   1.499   1.081  0.00  0.00    +0.046 A 
ATOM      3  S   UNL     1       2.740   0.145   0.753  0.00  0.00    -0.101 S 
ATOM      4  C   UNL     1       1.522  -1.128   0.551  0.00  0.00    -0.003 A 
ATOM      5  C   UNL     1       0.342  -0.477   0.743  0.00  0.00    -0.006 A 
ATOM      6  C   UNL     1      -0.977  -1.243   0.660  0.00  0.00    +0.220 C 
ATOM      7  N   UNL     1      -0.698  -2.555   0.062  0.00  0.00    -0.285 N 
ATOM      8  C   UNL     1       0.441  -3.340   0.561  0.00  0.00    +0.114 C 
ATOM      9  C   UNL     1       1.733  -2.574   0.240  0.00  0.00    +0.062 C 
ATOM     10  C   UNL     1      -1.476  -3.033  -0.930  0.00  0.00    +0.205 C 
ATOM     11  O   UNL     1      -2.472  -2.428  -1.265  0.00  0.00    -0.277 OA
ENDROOT
BRANCH  10  12
ATOM     12  C   UNL     1      -1.107  -4.320  -1.623  0.00  0.00    +0.007 C 
ATOM     13  C   UNL     1      -2.037  -4.540  -2.817  0.00  0.00    -0.004 C 
ATOM     14  C   UNL     1      -3.485  -4.621  -2.329  0.00  0.00    -0.001 C 
ATOM     15  C   UNL     1      -3.628  -5.787  -1.349  0.00  0.00    -0.000 C 
ATOM     16  C   UNL     1      -2.698  -5.566  -0.154  0.00  0.00    -0.001 C 
ATOM     17  C   UNL     1      -1.250  -5.486  -0.643  0.00  0.00    -0.004 C 
BRANCH  12  18
ATOM     18  N   UNL     1       0.283  -4.242  -2.092  0.00  0.00    +0.388 N 
ATOM     19  H   UNL     1       0.882  -3.972  -1.326  0.00  0.00    -0.089 HD
ATOM     20  H   UNL     1       0.570  -5.144  -2.441  0.00  0.00    -0.089 HD
ATOM     21  H   UNL     1       0.351  -3.558  -2.830  0.00  0.00    -0.089 HD
ENDBRANCH  12  18
ENDBRANCH  10  12
BRANCH   6  22
ATOM     22  C   UNL     1      -1.550  -1.422   2.042  0.00  0.00    +0.381 C 
ATOM     23  O   UNL     1      -1.992  -0.461   2.649  0.00  0.00    -0.244 OA
ATOM     24  O   UNL     1      -1.573  -2.529   2.554  0.00  0.00    -0.244 OA
ENDBRANCH   6  22
TORSDOF 3
