REMARK  Name = ZINC13499785
REMARK  9 active torsions:
REMARK  status: ('A' for Active; 'I' for Inactive)
REMARK    1  A    between atoms: C_1  and  C_2
REMARK    2  A    between atoms: C_2  and  C_3
REMARK    3  A    between atoms: C_11  and  C_15
REMARK    4  A    between atoms: C_18  and  S_21
REMARK    5  A    between atoms: S_21  and  C_22
REMARK    6  A    between atoms: C_22  and  C_23
REMARK    7  A    between atoms: N_25  and  C_26
REMARK    8  A    between atoms: C_29  and  N_32
REMARK    9  A    between atoms: C_33  and  C_35
REMARK                            x       y       z     vdW  Elec       q    Type
REMARK                         _______ _______ _______ _____ _____    ______ ____
ROOT
ATOM      1  C   UNL     1      -0.757   4.003   0.637  0.00  0.00    +0.118 A 
ATOM      2  N   UNL     1      -1.021   2.731   0.724  0.00  0.00    -0.226 NA
ATOM      3  C   UNL     1      -0.075   1.800   0.639  0.00  0.00    +0.114 A 
ATOM      4  C   UNL     1       1.277   2.117   0.441  0.00  0.00    +0.056 A 
ATOM      5  C   UNL     1       2.183   1.030   0.363  0.00  0.00    -0.024 A 
ATOM      6  C   UNL     1       1.677  -0.219   0.484  0.00  0.00    -0.004 A 
ATOM      7  S   UNL     1      -0.064   0.025   0.712  0.00  0.00    -0.073 S 
ATOM      8  C   UNL     1       2.426  -1.514   0.437  0.00  0.00    +0.046 C 
ATOM      9  C   UNL     1       3.924  -1.213   0.593  0.00  0.00    -0.009 C 
ATOM     10  C   UNL     1       4.295  -0.067  -0.352  0.00  0.00    +0.008 C 
ATOM     11  C   UNL     1       3.680   1.240   0.148  0.00  0.00    +0.037 C 
ATOM     12  C   UNL     1       4.738  -2.458   0.235  0.00  0.00    +0.008 C 
ATOM     13  C   UNL     1       1.566   3.565   0.342  0.00  0.00    +0.173 A 
ATOM     14  N   UNL     1       0.517   4.453   0.446  0.00  0.00    -0.257 N 
ATOM     15  C   UNL     1       1.078   5.694   0.319  0.00  0.00    +0.198 A 
ATOM     16  N   UNL     1       2.370   5.521   0.152  0.00  0.00    -0.122 NA
ATOM     17  N   UNL     1       2.658   4.266   0.166  0.00  0.00    -0.128 NA
ENDROOT
BRANCH   1  19
ATOM     18  C   UNL     1      -2.456   5.277  -0.644  0.00  0.00    +0.012 C 
ATOM     19  C   UNL     1      -1.882   5.000   0.747  0.00  0.00    +0.071 C 
ENDBRANCH   1  19
BRANCH  15  20
ATOM     20  S   UNL     1       0.227   7.236   0.367  0.00  0.00    -0.076 S 
BRANCH  20  21
ATOM     21  C   UNL     1       1.539   8.468   0.139  0.00  0.00    +0.173 C 
BRANCH  21  22
ATOM     22  C   UNL     1       0.939   9.850   0.161  0.00  0.00    +0.227 C 
ATOM     23  O   UNL     1      -0.256   9.990   0.315  0.00  0.00    -0.275 OA
ATOM     24  N   UNL     1       1.730  10.931   0.009  0.00  0.00    -0.285 N 
ATOM     25  H   UNL     1       2.692  10.824  -0.041  0.00  0.00    +0.155 HD
BRANCH  24  26
ATOM     26  C   UNL     1       1.161  12.208  -0.078  0.00  0.00    +0.034 A 
ATOM     27  C   UNL     1      -0.074  12.378  -0.688  0.00  0.00    +0.025 A 
ATOM     28  C   UNL     1      -0.636  13.637  -0.770  0.00  0.00    +0.025 A 
ATOM     29  C   UNL     1       0.038  14.733  -0.250  0.00  0.00    +0.033 A 
ATOM     30  C   UNL     1       1.276  14.564   0.356  0.00  0.00    +0.025 A 
ATOM     31  C   UNL     1       1.836  13.305   0.442  0.00  0.00    +0.025 A 
BRANCH  29  32
ATOM     32  N   UNL     1      -0.530  16.011  -0.337  0.00  0.00    -0.286 N 
ATOM     33  C   UNL     1      -1.864  16.164  -0.226  0.00  0.00    +0.214 C 
ATOM     34  O   UNL     1      -2.581  15.189  -0.135  0.00  0.00    -0.276 OA
ATOM     35  C   UNL     1      -2.466  17.545  -0.215  0.00  0.00    +0.109 C 
ATOM     36  H   UNL     1       0.037  16.785  -0.477  0.00  0.00    +0.155 HD
ENDBRANCH  29  32
ENDBRANCH  24  26
ENDBRANCH  21  22
ENDBRANCH  20  21
ENDBRANCH  15  20
TORSDOF 6
