REMARK  Name = ZINC04560781
REMARK  7 active torsions:
REMARK  status: ('A' for Active; 'I' for Inactive)
REMARK    1  A    between atoms: C_1  and  C_2
REMARK    2  A    between atoms: C_7  and  O_8
REMARK    3  A    between atoms: O_8  and  C_9
REMARK    4  A    between atoms: C_11  and  N_31
REMARK    5  A    between atoms: C_13  and  O_30
REMARK    6  A    between atoms: C_22  and  C_25
REMARK    7  A    between atoms: C_32  and  C_34
REMARK                            x       y       z     vdW  Elec       q    Type
REMARK                         _______ _______ _______ _____ _____    ______ ____
ROOT
ATOM      1  C   UNL     1       0.048  -0.820   3.574  0.00  0.00    +0.331 C 
ATOM      2  C   UNL     1       0.178   0.102   4.787  0.00  0.00    +0.173 C 
ATOM      3  C   UNL     1      -1.061   1.000   4.889  0.00  0.00    +0.172 C 
ATOM      4  C   UNL     1      -2.301   0.108   4.952  0.00  0.00    +0.183 C 
ATOM      5  C   UNL     1      -2.336  -0.771   3.696  0.00  0.00    +0.179 C 
ATOM      6  O   UNL     1      -1.163  -1.577   3.665  0.00  0.00    -0.332 OA
ATOM      7  C   UNL     1      -3.600  -1.631   3.743  0.00  0.00    +0.197 C 
ATOM      8  O   UNL     1      -4.731  -0.762   3.879  0.00  0.00    -0.342 OA
ATOM      9  C   UNL     1      -4.685   0.091   5.024  0.00  0.00    +0.319 C 
ATOM     10  O   UNL     1      -3.495   0.888   4.996  0.00  0.00    -0.336 OA
ENDROOT
BRANCH   9  11
ATOM     11  C   UNL     1      -5.890   0.996   5.021  0.00  0.00    +0.161 A 
ATOM     12  C   UNL     1      -7.174   0.596   5.060  0.00  0.00    +0.050 A 
ATOM     13  C   UNL     1      -7.968   1.766   5.041  0.00  0.00    +0.041 A 
ATOM     14  C   UNL     1      -7.121   2.811   4.992  0.00  0.00    +0.195 A 
ATOM     15  O   UNL     1      -5.864   2.338   4.987  0.00  0.00    -0.463 OA
ENDBRANCH   9  11
BRANCH   2  16
ATOM     16  N   UNL     1       0.296  -0.706   6.003  0.00  0.00    -0.304 N 
ATOM     17  C   UNL     1       1.500  -1.172   6.389  0.00  0.00    +0.210 C 
ATOM     18  O   UNL     1       2.487  -0.922   5.730  0.00  0.00    -0.276 OA
ATOM     19  C   UNL     1       1.621  -2.003   7.640  0.00  0.00    +0.109 C 
ATOM     20  H   UNL     1      -0.494  -0.906   6.531  0.00  0.00    +0.149 HD
ENDBRANCH   2  16
BRANCH   3  21
ATOM     21  O   UNL     1      -0.979   1.799   6.071  0.00  0.00    -0.387 OA
ATOM     22  H   UNL     1      -0.205   2.379   6.101  0.00  0.00    +0.210 HD
ENDBRANCH   3  21
BRANCH   1  23
ATOM     23  O   UNL     1       0.025  -0.033   2.381  0.00  0.00    -0.461 OA
BRANCH  23  30
ATOM     24  C   UNL     1      -0.018   1.503   0.010  0.00  0.00    +0.047 C 
ATOM     25  C   UNL     1       0.002  -0.004   0.002  0.00  0.00    -0.009 A 
ATOM     26  C   UNL     1       0.006  -0.689  -1.198  0.00  0.00    +0.007 A 
ATOM     27  C   UNL     1       0.024  -2.071  -1.206  0.00  0.00    +0.000 A 
ATOM     28  C   UNL     1       0.039  -2.772  -0.014  0.00  0.00    +0.004 A 
ATOM     29  C   UNL     1       0.036  -2.092   1.188  0.00  0.00    +0.046 A 
ATOM     30  C   UNL     1       0.023  -0.705   1.199  0.00  0.00    +0.127 A 
ENDBRANCH  23  30
ENDBRANCH   1  23
TORSDOF 5
