REMARK  Name = ZINC63681148
REMARK  5 active torsions:
REMARK  status: ('A' for Active; 'I' for Inactive)
REMARK    1  A    between atoms: C_7  and  C_10
REMARK    2  A    between atoms: C_10  and  C_11
REMARK    3  A    between atoms: C_11  and  N_12
REMARK    4  A    between atoms: N_15  and  C_16
REMARK    5  A    between atoms: N_21  and  C_23
REMARK                            x       y       z     vdW  Elec       q    Type
REMARK                         _______ _______ _______ _____ _____    ______ ____
ROOT
ATOM      1  N   UNL     1      -0.495  -4.771  -1.473  0.00  0.00    -0.299 N 
ATOM      2  C   UNL     1      -0.835  -5.364  -2.634  0.00  0.00    +0.300 C 
ATOM      3  O   UNL     1      -0.388  -4.946  -3.684  0.00  0.00    -0.253 OA
ATOM      4  N   UNL     1      -1.672  -6.421  -2.632  0.00  0.00    -0.295 N 
ATOM      5  H   UNL     1      -0.853  -5.105  -0.635  0.00  0.00    +0.150 HD
ATOM      6  H   UNL     1      -2.029  -6.755  -1.794  0.00  0.00    +0.151 HD
ENDROOT
BRANCH   4   7
ATOM      7  C   UNL     1      -2.042  -7.065  -3.894  0.00  0.00    +0.101 C 
ATOM      8  C   UNL     1      -1.046  -8.193  -4.253  0.00  0.00    +0.120 C 
ATOM      9  C   UNL     1      -1.677  -9.442  -3.676  0.00  0.00    +0.222 C 
ATOM     10  O   UNL     1      -1.097 -10.491  -3.492  0.00  0.00    -0.275 OA
ATOM     11  N   UNL     1      -2.973  -9.219  -3.399  0.00  0.00    -0.270 N 
ATOM     12  C   UNL     1      -3.366  -7.848  -3.749  0.00  0.00    +0.136 C 
BRANCH  11  13
ATOM     13  C   UNL     1      -3.838 -10.171  -2.847  0.00  0.00    +0.036 A 
ATOM     14  C   UNL     1      -3.404 -11.476  -2.654  0.00  0.00    +0.026 A 
ATOM     15  C   UNL     1      -4.258 -12.414  -2.109  0.00  0.00    +0.040 A 
ATOM     16  C   UNL     1      -5.548 -12.055  -1.756  0.00  0.00    +0.124 A 
ATOM     17  C   UNL     1      -5.984 -10.754  -1.948  0.00  0.00    +0.040 A 
ATOM     18  C   UNL     1      -5.130  -9.812  -2.486  0.00  0.00    +0.026 A 
ATOM     19  F   UNL     1      -6.383 -12.974  -1.224  0.00  0.00    -0.205 F 
ENDBRANCH  11  13
ENDBRANCH   4   7
BRANCH   1  20
ATOM     20  C   UNL     1       0.414  -3.623  -1.475  0.00  0.00    +0.110 C 
BRANCH  20  21
ATOM     21  C   UNL     1       0.634  -3.143  -0.039  0.00  0.00    +0.052 C 
BRANCH  21  28
ATOM     22  C   UNL     1      -0.095   1.387  -0.046  0.00  0.00    +0.001 A 
ATOM     23  C   UNL     1       1.084   2.146  -0.049  0.00  0.00    +0.002 A 
ATOM     24  C   UNL     1       2.312   1.586  -0.049  0.00  0.00    +0.026 A 
ATOM     25  C   UNL     1       2.457   0.171  -0.047  0.00  0.00    +0.043 A 
ATOM     26  N   UNL     1       3.518  -0.598  -0.047  0.00  0.00    -0.380 N 
ATOM     27  C   UNL     1       3.081  -1.999  -0.044  0.00  0.00    +0.144 C 
ATOM     28  C   UNL     1       1.569  -1.962  -0.042  0.00  0.00    -0.040 C 
ATOM     29  C   UNL     1       1.227  -0.653  -0.043  0.00  0.00    -0.001 A 
ATOM     30  C   UNL     1      -0.070   0.035  -0.043  0.00  0.00    +0.010 A 
ATOM     31  H   UNL     1       4.439  -0.292  -0.050  0.00  0.00    +0.160 HD
ENDBRANCH  21  28
ENDBRANCH  20  21
ENDBRANCH   1  20
TORSDOF 5
