REMARK  Name = ZINC35403761
REMARK  5 active torsions:
REMARK  status: ('A' for Active; 'I' for Inactive)
REMARK    1  A    between atoms: C_1  and  C_2
REMARK    2  A    between atoms: C_7  and  N_8
REMARK    3  A    between atoms: C_13  and  C_30
REMARK    4  A    between atoms: C_16  and  C_21
REMARK    5  A    between atoms: C_16  and  C_27
REMARK                            x       y       z     vdW  Elec       q    Type
REMARK                         _______ _______ _______ _____ _____    ______ ____
ROOT
ATOM      1  N   UNL     1       0.724  -0.376   2.470  0.00  0.00    -0.210 N 
ATOM      2  C   UNL     1      -0.542  -0.154   2.955  0.00  0.00    +0.229 C 
ATOM      3  O   UNL     1      -1.563  -0.730   2.647  0.00  0.00    -0.275 OA
ATOM      4  C   UNL     1      -0.388   0.915   3.910  0.00  0.00    +0.078 C 
ATOM      5  C   UNL     1      -1.073   1.511   5.070  0.00  0.00    -0.019 C 
ATOM      6  N   UNL     1      -0.030   2.455   5.601  0.00  0.00    +0.399 N 
ATOM      7  C   UNL     1       1.304   1.972   5.134  0.00  0.00    +0.074 C 
ATOM      8  C   UNL     1       1.031   0.588   4.525  0.00  0.00    +0.091 C 
ATOM      9  C   UNL     1       1.690   0.229   3.222  0.00  0.00    +0.229 C 
ATOM     10  O   UNL     1       2.842   0.437   2.904  0.00  0.00    -0.275 OA
ATOM     11  H   UNL     1      -0.200   3.385   5.247  0.00  0.00    -0.083 HD
ATOM     12  H   UNL     1      -0.057   2.462   6.609  0.00  0.00    -0.083 HD
ENDROOT
BRANCH   1  19
ATOM     13  C   UNL     1       0.809   0.937  -0.053  0.00  0.00    +0.045 C 
ATOM     14  C   UNL     1       1.046  -0.545   0.081  0.00  0.00    -0.029 A 
ATOM     15  C   UNL     1       1.319  -1.305  -1.040  0.00  0.00    +0.005 A 
ATOM     16  C   UNL     1       1.537  -2.665  -0.918  0.00  0.00    +0.000 A 
ATOM     17  C   UNL     1       1.481  -3.268   0.326  0.00  0.00    +0.002 A 
ATOM     18  C   UNL     1       1.209  -2.513   1.450  0.00  0.00    +0.024 A 
ATOM     19  C   UNL     1       0.995  -1.146   1.331  0.00  0.00    +0.047 A 
ENDBRANCH   1  19
BRANCH   7  20
ATOM     20  C   UNL     1       1.871   2.918   4.108  0.00  0.00    -0.047 A 
ATOM     21  C   UNL     1       3.233   2.949   3.874  0.00  0.00    +0.003 A 
ATOM     22  C   UNL     1       3.754   3.817   2.933  0.00  0.00    +0.000 A 
ATOM     23  C   UNL     1       2.913   4.654   2.224  0.00  0.00    +0.000 A 
ATOM     24  C   UNL     1       1.550   4.623   2.457  0.00  0.00    +0.000 A 
ATOM     25  C   UNL     1       1.029   3.752   3.396  0.00  0.00    +0.003 A 
ENDBRANCH   7  20
BRANCH   5  26
ATOM     26  C   UNL     1      -2.308   2.259   4.639  0.00  0.00    -0.022 A 
ATOM     27  C   UNL     1      -3.604   1.865   4.685  0.00  0.00    +0.011 A 
ATOM     28  C   UNL     1      -4.584   2.728   4.229  0.00  0.00    +0.028 A 
ATOM     29  C   UNL     1      -4.218   3.943   3.749  0.00  0.00    +0.078 A 
ATOM     30  S   UNL     1      -2.443   3.897   3.941  0.00  0.00    -0.083 S 
ATOM     31 CL   UNL     1      -5.216   5.215   3.117  0.00  0.00    -0.076 Cl
ENDBRANCH   5  26
BRANCH   7  32
ATOM     32  C   UNL     1       2.248   1.839   6.301  0.00  0.00    +0.350 C 
ATOM     33  O   UNL     1       1.877   2.140   7.423  0.00  0.00    -0.248 OA
ATOM     34  O   UNL     1       3.383   1.430   6.123  0.00  0.00    -0.248 OA
ENDBRANCH   7  32
TORSDOF 4
