REMARK  Name = ZINC59421778
REMARK  6 active torsions:
REMARK  status: ('A' for Active; 'I' for Inactive)
REMARK    1  A    between atoms: C_3  and  O_32
REMARK    2  A    between atoms: C_6  and  N_7
REMARK    3  A    between atoms: C_8  and  C_10
REMARK    4  A    between atoms: C_14  and  C_23
REMARK    5  A    between atoms: C_16  and  C_19
REMARK    6  A    between atoms: O_32  and  C_33
REMARK                            x       y       z     vdW  Elec       q    Type
REMARK                         _______ _______ _______ _____ _____    ______ ____
ROOT
ATOM      1  C   UNL     1      -2.457  -2.812  -0.203  0.00  0.00    +0.150 A 
ATOM      2  C   UNL     1      -2.579  -4.202  -0.315  0.00  0.00    +0.083 A 
ATOM      3  C   UNL     1      -3.932  -4.498  -0.385  0.00  0.00    +0.157 A 
ATOM      4  N   UNL     1      -4.595  -5.656  -0.498  0.00  0.00    -0.228 NA
ATOM      5  C   UNL     1      -5.915  -5.677  -0.546  0.00  0.00    +0.075 A 
ATOM      6  C   UNL     1      -6.645  -4.468  -0.479  0.00  0.00    +0.060 A 
ATOM      7  C   UNL     1      -5.980  -3.297  -0.365  0.00  0.00    +0.149 A 
ATOM      8  N   UNL     1      -4.612  -3.307  -0.317  0.00  0.00    -0.209 N 
ATOM      9  N   UNL     1      -3.668  -2.280  -0.199  0.00  0.00    -0.160 NA
ENDROOT
BRANCH   5  10
ATOM     10  C   UNL     1      -6.630  -6.967  -0.670  0.00  0.00    +0.004 A 
ATOM     11  C   UNL     1      -8.024  -6.991  -0.727  0.00  0.00    +0.014 A 
ATOM     12  C   UNL     1      -8.689  -8.193  -0.844  0.00  0.00    +0.050 A 
ATOM     13  C   UNL     1      -7.976  -9.382  -0.905  0.00  0.00    +0.166 A 
ATOM     14  C   UNL     1      -6.583  -9.365  -0.849  0.00  0.00    +0.167 A 
ATOM     15  C   UNL     1      -5.912  -8.161  -0.737  0.00  0.00    +0.059 A 
ATOM     16  O   UNL     1      -6.128 -10.649  -0.928  0.00  0.00    -0.453 OA
ATOM     17  C   UNL     1      -7.264 -11.479  -0.621  0.00  0.00    +0.466 C 
ATOM     18  O   UNL     1      -8.391 -10.677  -1.020  0.00  0.00    -0.453 OA
ENDBRANCH   5  10
BRANCH   1  20
ATOM     19  N   UNL     1      -1.201  -0.721   0.010  0.00  0.00    -0.280 N 
ATOM     20  C   UNL     1      -1.185  -2.064  -0.099  0.00  0.00    +0.268 C 
ATOM     21  O   UNL     1      -0.126  -2.661  -0.113  0.00  0.00    -0.268 OA
ATOM     22  H   UNL     1      -2.045  -0.251   0.098  0.00  0.00    +0.155 HD
BRANCH  19  28
ATOM     23  C   UNL     1       1.071  -0.454  -0.767  0.00  0.00    +0.027 A 
ATOM     24  C   UNL     1       2.256   0.254  -0.779  0.00  0.00    +0.048 A 
ATOM     25  C   UNL     1       2.380   1.415  -0.030  0.00  0.00    +0.130 A 
ATOM     26  C   UNL     1       1.312   1.865   0.732  0.00  0.00    +0.048 A 
ATOM     27  C   UNL     1       0.126   1.159   0.746  0.00  0.00    +0.027 A 
ATOM     28  C   UNL     1       0.002  -0.004  -0.004  0.00  0.00    +0.034 A 
BRANCH  25  29
ATOM     29  O   UNL     1       3.547   2.111  -0.042  0.00  0.00    -0.406 OA
BRANCH  29  30
ATOM     30  C   UNL     1       3.604   3.297   0.752  0.00  0.00    +0.575 C 
ATOM     31  F   UNL     1       3.375   2.971   2.094  0.00  0.00    -0.133 F 
ATOM     32  F   UNL     1       4.868   3.884   0.625  0.00  0.00    -0.133 F 
ATOM     33  F   UNL     1       2.626   4.197   0.317  0.00  0.00    -0.133 F 
ENDBRANCH  29  30
ENDBRANCH  25  29
ENDBRANCH  19  28
ENDBRANCH   1  20
BRANCH   7  34
ATOM     34  C   UNL     1      -6.735  -1.996  -0.292  0.00  0.00    +0.434 C 
ATOM     35  F   UNL     1      -8.109  -2.249  -0.361  0.00  0.00    -0.164 F 
ATOM     36  F   UNL     1      -6.440  -1.352   0.914  0.00  0.00    -0.164 F 
ATOM     37  F   UNL     1      -6.358  -1.177  -1.362  0.00  0.00    -0.164 F 
ENDBRANCH   7  34
TORSDOF 6
