REMARK  Name = ZINC44136281
REMARK  10 active torsions:
REMARK  status: ('A' for Active; 'I' for Inactive)
REMARK    1  A    between atoms: C_1  and  C_2
REMARK    2  A    between atoms: C_4  and  C_7
REMARK    3  A    between atoms: C_8  and  C_9
REMARK    4  A    between atoms: C_8  and  C_10
REMARK    5  A    between atoms: C_21  and  C_41
REMARK    6  A    between atoms: C_23  and  O_40
REMARK    7  A    between atoms: C_25  and  C_39
REMARK    8  A    between atoms: C_29  and  C_37
REMARK    9  A    between atoms: C_29  and  C_38
REMARK   10  A    between atoms: C_30  and  O_36
REMARK                            x       y       z     vdW  Elec       q    Type
REMARK                         _______ _______ _______ _____ _____    ______ ____
ROOT
ATOM      1  C   UNL     1      -4.244  -3.731  -0.113  0.00  0.00    +0.205 C 
ATOM      2  C   UNL     1      -4.919  -3.845   1.252  0.00  0.00    +0.083 C 
ATOM      3  C   UNL     1      -5.678  -2.561   1.584  0.00  0.00    +0.151 C 
ATOM      4  C   UNL     1      -7.082  -2.692   2.182  0.00  0.00    +0.148 C 
ATOM      5  O   UNL     1      -5.953  -2.296   2.965  0.00  0.00    -0.368 OA
ATOM      6  C   UNL     1      -8.106  -1.612   1.823  0.00  0.00    +0.034 C 
ATOM      7  C   UNL     1      -9.362  -2.264   1.246  0.00  0.00    +0.003 C 
ATOM      8  C   UNL     1      -9.252  -2.345  -0.279  0.00  0.00    +0.006 C 
ATOM      9  C   UNL     1     -10.608  -2.023  -0.903  0.00  0.00    +0.015 C 
ATOM     10  C   UNL     1     -10.496  -1.919  -2.421  0.00  0.00    +0.127 C 
ATOM     11  C   UNL     1     -10.220  -3.277  -3.073  0.00  0.00    +0.081 C 
ATOM     12  C   UNL     1      -9.173  -3.100  -4.144  0.00  0.00    +0.147 C 
ATOM     13  O   UNL     1      -9.080  -2.015  -4.687  0.00  0.00    -0.296 OA
ATOM     14  C   UNL     1      -8.258  -4.209  -4.579  0.00  0.00    +0.050 C 
ATOM     15  C   UNL     1      -6.835  -3.952  -4.085  0.00  0.00    +0.138 C 
ATOM     16  C   UNL     1      -6.557  -4.668  -2.767  0.00  0.00    +0.152 C 
ATOM     17  C   UNL     1      -5.239  -4.194  -2.204  0.00  0.00    +0.310 C 
ATOM     18  O   UNL     1      -4.207  -4.532  -2.732  0.00  0.00    -0.251 OA
ATOM     19  O   UNL     1      -5.213  -3.409  -1.114  0.00  0.00    -0.457 OA
ATOM     20  C   UNL     1      -8.232  -4.231  -6.120  0.00  0.00    +0.021 C 
ATOM     21  C   UNL     1      -8.758  -5.568  -4.098  0.00  0.00    +0.021 C 
ATOM     22  C   UNL     1     -11.515  -3.771  -3.736  0.00  0.00    +0.018 C 
ATOM     23  C   UNL     1     -11.639  -3.071  -0.492  0.00  0.00    +0.010 C 
ENDROOT
BRANCH   1  25
ATOM     24  C   UNL     1      -3.295  -1.580  -0.822  0.00  0.00    +0.031 C 
ATOM     25  C   UNL     1      -3.177  -2.667  -0.071  0.00  0.00    -0.031 C 
ATOM     26  C   UNL     1      -1.976  -2.839   0.823  0.00  0.00    +0.043 C 
BRANCH  24  30
ATOM     27  C   UNL     1       1.092   0.233   0.701  0.00  0.00    +0.073 C 
ATOM     28  C   UNL     1      -0.176   0.197  -0.113  0.00  0.00    +0.076 A 
ATOM     29  N   UNL     1      -1.137  -0.688  -0.074  0.00  0.00    -0.245 NA
ATOM     30  C   UNL     1      -2.203  -0.585  -0.858  0.00  0.00    +0.071 A 
ATOM     31  C   UNL     1      -2.236   0.494  -1.704  0.00  0.00    +0.074 A 
ATOM     32  S   UNL     1      -0.694   1.290  -1.282  0.00  0.00    -0.080 S 
ENDBRANCH  24  30
ENDBRANCH   1  25
BRANCH  15  33
ATOM     33  O   UNL     1      -6.632  -2.547  -3.912  0.00  0.00    -0.390 OA
ATOM     34  H   UNL     1      -5.747  -2.314  -3.599  0.00  0.00    +0.210 HD
ENDBRANCH  15  33
BRANCH  10  35
ATOM     35  O   UNL     1     -11.714  -1.384  -2.950  0.00  0.00    -0.391 OA
ATOM     36  H   UNL     1     -11.717  -1.289  -3.912  0.00  0.00    +0.210 HD
ENDBRANCH  10  35
TORSDOF 4
