REMARK  Name = ZINC50705299
REMARK  6 active torsions:
REMARK  status: ('A' for Active; 'I' for Inactive)
REMARK    1  A    between atoms: C_1  and  C_2
REMARK    2  A    between atoms: C_2  and  C_3
REMARK    3  A    between atoms: C_2  and  C_4
REMARK    4  A    between atoms: C_2  and  C_5
REMARK    5  A    between atoms: C_11  and  C_13
REMARK    6  A    between atoms: C_18  and  N_19
REMARK                            x       y       z     vdW  Elec       q    Type
REMARK                         _______ _______ _______ _____ _____    ______ ____
ROOT
ATOM      1  C   UNL     1       0.694  -0.495  -1.314  0.00  0.00    -0.003 C 
ATOM      2  C   UNL     1       0.715  -2.025  -1.315  0.00  0.00    +0.023 C 
ATOM      3  C   UNL     1       1.421  -2.521  -2.581  0.00  0.00    +0.108 C 
ATOM      4  N   UNL     1       2.750  -1.899  -2.655  0.00  0.00    -0.297 N 
ATOM      5  C   UNL     1       2.851  -0.436  -2.571  0.00  0.00    +0.108 C 
ATOM      6  C   UNL     1       2.129   0.037  -1.306  0.00  0.00    +0.023 C 
ATOM      7  C   UNL     1       3.856  -2.657  -2.797  0.00  0.00    +0.250 C 
ATOM      8  O   UNL     1       3.771  -3.869  -2.760  0.00  0.00    -0.270 OA
ENDROOT
BRANCH   7   9
ATOM      9  C   UNL     1       5.168  -2.015  -2.997  0.00  0.00    +0.077 A 
ATOM     10  C   UNL     1       5.359  -1.088  -4.028  0.00  0.00    +0.033 A 
ATOM     11  C   UNL     1       6.610  -0.514  -4.173  0.00  0.00    +0.037 A 
ATOM     12  C   UNL     1       7.627  -0.869  -3.304  0.00  0.00    +0.128 A 
ATOM     13  N   UNL     1       7.427  -1.745  -2.339  0.00  0.00    -0.239 NA
ATOM     14  C   UNL     1       6.249  -2.320  -2.152  0.00  0.00    +0.128 A 
ATOM     15 BR   UNL     1       6.927   0.745  -5.548  0.00  0.00    -0.049 Br
BRANCH  14  16
ATOM     16  N   UNL     1       6.083  -3.229  -1.123  0.00  0.00    -0.343 N 
ATOM     17  H   UNL     1       5.245  -3.708  -1.030  0.00  0.00    +0.144 HD
ATOM     18  H   UNL     1       6.804  -3.387  -0.495  0.00  0.00    +0.144 HD
ENDBRANCH  14  16
ENDBRANCH   7   9
BRANCH   1  20
ATOM     19  C   UNL     1      -0.064   1.534  -0.067  0.00  0.00    +0.011 C 
ATOM     20  C   UNL     1      -0.042   0.004  -0.068  0.00  0.00    -0.035 C 
ATOM     21  C   UNL     1       0.681  -0.496   1.185  0.00  0.00    +0.011 C 
ATOM     22  C   UNL     1      -1.476  -0.528  -0.076  0.00  0.00    +0.011 C 
ENDBRANCH   1  20
TORSDOF 3
