REMARK  Name = ZINC21014344
REMARK  4 active torsions:
REMARK  status: ('A' for Active; 'I' for Inactive)
REMARK    1  A    between atoms: C_1  and  C_2
REMARK    2  A    between atoms: N_12  and  S_13
REMARK    3  A    between atoms: S_13  and  C_16
REMARK    4  A    between atoms: C_19  and  N_22
REMARK                            x       y       z     vdW  Elec       q    Type
REMARK                         _______ _______ _______ _____ _____    ______ ____
ROOT
ATOM      1  S   UNL     1       0.771   0.529  -2.547  0.00  0.00    +0.075 S 
ATOM      2  O   UNL     1       0.920   1.840  -2.019  0.00  0.00    -0.150 OA
ATOM      3  O   UNL     1       1.740  -0.062  -3.401  0.00  0.00    -0.150 OA
ENDROOT
BRANCH   1  14
ATOM      4  C   UNL     1       0.120   1.543   0.043  0.00  0.00    +0.030 C 
ATOM      5  C   UNL     1       0.070   0.014   0.025  0.00  0.00    +0.095 C 
ATOM      6  C   UNL     1       0.949  -0.547   1.151  0.00  0.00    +0.029 C 
ATOM      7  C   UNL     1       0.829  -2.071   1.157  0.00  0.00    +0.039 C 
ATOM      8  C   UNL     1       1.079  -2.626  -0.220  0.00  0.00    -0.025 A 
ATOM      9  C   UNL     1       1.440  -3.957  -0.351  0.00  0.00    +0.005 A 
ATOM     10  C   UNL     1       1.673  -4.496  -1.601  0.00  0.00    +0.000 A 
ATOM     11  C   UNL     1       1.547  -3.709  -2.732  0.00  0.00    +0.002 A 
ATOM     12  C   UNL     1       1.188  -2.382  -2.610  0.00  0.00    +0.025 A 
ATOM     13  C   UNL     1       0.955  -1.836  -1.352  0.00  0.00    +0.055 A 
ATOM     14  N   UNL     1       0.599  -0.487  -1.251  0.00  0.00    -0.200 N 
ENDBRANCH   1  14
BRANCH   1  15
ATOM     15  C   UNL     1      -0.754   0.512  -3.429  0.00  0.00    +0.109 A 
ATOM     16  C   UNL     1      -0.955  -0.406  -4.443  0.00  0.00    +0.030 A 
ATOM     17  C   UNL     1      -2.151  -0.426  -5.133  0.00  0.00    +0.024 A 
ATOM     18  C   UNL     1      -3.150   0.485  -4.814  0.00  0.00    +0.025 A 
ATOM     19  C   UNL     1      -2.943   1.410  -3.798  0.00  0.00    +0.024 A 
ATOM     20  C   UNL     1      -1.746   1.421  -3.109  0.00  0.00    +0.030 A 
BRANCH  18  21
ATOM     21  N   UNL     1      -4.359   0.472  -5.513  0.00  0.00    -0.358 N 
ATOM     22  H   UNL     1      -5.149   1.194  -5.260  0.00  0.00    +0.142 HD
ATOM     23  H   UNL     1      -4.521  -0.261  -6.317  0.00  0.00    +0.142 HD
ENDBRANCH  18  21
ENDBRANCH   1  15
TORSDOF 3
