REMARK  Name = ZINC00681693
REMARK  5 active torsions:
REMARK  status: ('A' for Active; 'I' for Inactive)
REMARK    1  A    between atoms: C_1  and  C_2
REMARK    2  A    between atoms: C_6  and  N_8
REMARK    3  A    between atoms: C_9  and  C_11
REMARK    4  A    between atoms: C_16  and  C_29
REMARK    5  A    between atoms: C_19  and  C_22
REMARK                            x       y       z     vdW  Elec       q    Type
REMARK                         _______ _______ _______ _____ _____    ______ ____
ROOT
ATOM      1  C   UNL     1      -0.128  -4.667   3.772  0.00  0.00    +0.149 A 
ATOM      2  C   UNL     1      -0.214  -6.064   3.971  0.00  0.00    +0.078 A 
ATOM      3  C   UNL     1      -0.285  -6.282   5.299  0.00  0.00    +0.119 A 
ATOM      4  N   UNL     1      -0.243  -5.072   5.932  0.00  0.00    -0.238 N 
ATOM      5  N   UNL     1      -0.141  -4.081   4.957  0.00  0.00    -0.164 NA
ATOM      6  C   UNL     1      -0.293  -4.914   7.388  0.00  0.00    +0.215 C 
ATOM      7  C   UNL     1       0.087  -6.246   8.045  0.00  0.00    +0.063 C 
ATOM      8  C   UNL     1      -0.732  -7.385   7.427  0.00  0.00    +0.104 C 
ATOM      9  N   UNL     1      -0.386  -7.489   5.996  0.00  0.00    -0.322 N 
ATOM     10  H   UNL     1      -0.236  -8.345   5.564  0.00  0.00    +0.148 HD
ENDROOT
BRANCH   8  11
ATOM     11  C   UNL     1      -2.202  -7.090   7.576  0.00  0.00    -0.027 A 
ATOM     12  C   UNL     1      -2.825  -6.223   6.698  0.00  0.00    +0.006 A 
ATOM     13  C   UNL     1      -4.174  -5.952   6.834  0.00  0.00    +0.015 A 
ATOM     14  C   UNL     1      -4.900  -6.550   7.848  0.00  0.00    +0.018 A 
ATOM     15  C   UNL     1      -4.276  -7.418   8.726  0.00  0.00    +0.015 A 
ATOM     16  C   UNL     1      -2.929  -7.692   8.586  0.00  0.00    +0.006 A 
ATOM     17 BR   UNL     1      -6.745  -6.180   8.035  0.00  0.00    -0.050 Br
ENDBRANCH   8  11
BRANCH   1  19
ATOM     18  N   UNL     1       0.051  -2.637   2.417  0.00  0.00    -0.265 N 
ATOM     19  C   UNL     1      -0.032  -3.982   2.467  0.00  0.00    +0.269 C 
ATOM     20  O   UNL     1      -0.028  -4.630   1.439  0.00  0.00    -0.268 OA
ATOM     21  H   UNL     1       0.122  -2.125   3.237  0.00  0.00    +0.157 HD
BRANCH  18  27
ATOM     22  C   UNL     1       0.027  -2.965  -2.361  0.00  0.00    +0.065 C 
ATOM     23  C   UNL     1       0.022  -2.114  -1.118  0.00  0.00    +0.040 A 
ATOM     24  C   UNL     1       0.001  -0.738  -1.234  0.00  0.00    +0.023 A 
ATOM     25  C   UNL     1      -0.004   0.041  -0.085  0.00  0.00    +0.005 A 
ATOM     26  C   UNL     1       0.013  -0.595   1.144  0.00  0.00    +0.044 A 
ATOM     27  C   UNL     1       0.034  -1.984   1.186  0.00  0.00    +0.125 A 
ATOM     28  N   UNL     1       0.033  -2.693   0.068  0.00  0.00    -0.237 NA
ENDBRANCH  18  27
ENDBRANCH   1  19
BRANCH   6  29
ATOM     29  C   UNL     1       0.693  -3.827   7.820  0.00  0.00    +0.412 C 
ATOM     30  F   UNL     1       0.350  -2.617   7.209  0.00  0.00    -0.168 F 
ATOM     31  F   UNL     1       0.643  -3.679   9.210  0.00  0.00    -0.168 F 
ATOM     32  F   UNL     1       1.988  -4.193   7.436  0.00  0.00    -0.168 F 
ENDBRANCH   6  29
TORSDOF 4
