REMARK  Name = ZINC39686562
REMARK  8 active torsions:
REMARK  status: ('A' for Active; 'I' for Inactive)
REMARK    1  A    between atoms: C_1  and  C_2
REMARK    2  A    between atoms: C_2  and  C_4
REMARK    3  A    between atoms: C_2  and  N_13
REMARK    4  A    between atoms: C_4  and  C_5
REMARK    5  A    between atoms: C_10  and  O_11
REMARK    6  A    between atoms: O_11  and  C_12
REMARK    7  A    between atoms: C_14  and  C_16
REMARK    8  A    between atoms: C_27  and  C_29
REMARK                            x       y       z     vdW  Elec       q    Type
REMARK                         _______ _______ _______ _____ _____    ______ ____
ROOT
ATOM      1  C   UNL     1       2.952  -0.761  -2.967  0.00  0.00    +0.100 C 
ATOM      2  C   UNL     1       2.494  -2.236  -3.027  0.00  0.00    +0.121 C 
ATOM      3  N   UNL     1       3.719  -2.994  -3.372  0.00  0.00    -0.296 N 
ATOM      4  C   UNL     1       4.795  -2.331  -2.597  0.00  0.00    +0.115 C 
ATOM      5  C   UNL     1       4.462  -0.828  -2.684  0.00  0.00    -0.004 C 
ATOM      6  C   UNL     1       5.243  -0.180  -3.824  0.00  0.00    -0.010 C 
ATOM      7  C   UNL     1       6.737  -0.208  -3.494  0.00  0.00    -0.082 C 
ATOM      8  N   UNL     1       6.976   0.514  -2.238  0.00  0.00    +0.379 N 
ATOM      9  C   UNL     1       6.297  -0.169  -1.130  0.00  0.00    -0.082 C 
ATOM     10  C   UNL     1       4.783  -0.140  -1.361  0.00  0.00    -0.010 C 
ATOM     11  C   UNL     1       3.830  -4.050  -4.203  0.00  0.00    +0.248 C 
ATOM     12  O   UNL     1       4.894  -4.629  -4.311  0.00  0.00    -0.270 OA
ATOM     13  H   UNL     1       7.968   0.547  -2.054  0.00  0.00    -0.086 HD
ATOM     14  H   UNL     1       6.621   1.455  -2.320  0.00  0.00    -0.086 HD
ENDROOT
BRANCH  11  15
ATOM     15  C   UNL     1       2.660  -4.503  -4.982  0.00  0.00    +0.057 A 
ATOM     16  C   UNL     1       1.380  -4.436  -4.429  0.00  0.00    +0.014 A 
ATOM     17  C   UNL     1       0.291  -4.861  -5.161  0.00  0.00    +0.002 A 
ATOM     18  C   UNL     1       0.464  -5.354  -6.443  0.00  0.00    +0.021 A 
ATOM     19  C   UNL     1       1.729  -5.425  -6.999  0.00  0.00    +0.060 A 
ATOM     20  C   UNL     1       2.828  -4.996  -6.278  0.00  0.00    +0.071 A 
ATOM     21 CL   UNL     1       4.414  -5.078  -6.979  0.00  0.00    -0.081 Cl
ATOM     22 CL   UNL     1       1.934  -6.046  -8.607  0.00  0.00    -0.082 Cl
ENDBRANCH  11  15
BRANCH   1  24
ATOM     23  N   UNL     1       2.009   1.288  -1.953  0.00  0.00    -0.312 N 
ATOM     24  C   UNL     1       2.241  -0.035  -1.854  0.00  0.00    +0.218 C 
ATOM     25  O   UNL     1       1.879  -0.643  -0.869  0.00  0.00    -0.275 OA
ATOM     26  H   UNL     1       2.299   1.774  -2.741  0.00  0.00    +0.149 HD
BRANCH  23  28
ATOM     27  C   UNL     1       2.330   2.401   0.201  0.00  0.00    +0.028 C 
ATOM     28  C   UNL     1       1.317   1.994  -0.871  0.00  0.00    +0.074 C 
BRANCH  28  29
ATOM     29  C   UNL     1       0.637   3.244  -1.430  0.00  0.00    +0.060 C 
BRANCH  29  30
ATOM     30  C   UNL     1      -0.446   2.837  -2.396  0.00  0.00    -0.004 A 
ATOM     31  C   UNL     1      -0.177   2.774  -3.750  0.00  0.00    +0.007 A 
ATOM     32  C   UNL     1      -1.170   2.401  -4.636  0.00  0.00    +0.000 A 
ATOM     33  C   UNL     1      -2.435   2.090  -4.171  0.00  0.00    +0.004 A 
ATOM     34  C   UNL     1      -2.709   2.152  -2.819  0.00  0.00    +0.046 A 
ATOM     35  C   UNL     1      -1.712   2.521  -1.926  0.00  0.00    +0.123 A 
BRANCH  35  36
ATOM     36  O   UNL     1      -1.978   2.576  -0.595  0.00  0.00    -0.495 OA
ATOM     37  C   UNL     1      -3.303   2.237  -0.183  0.00  0.00    +0.277 C 
ENDBRANCH  35  36
ENDBRANCH  29  30
ENDBRANCH  28  29
ENDBRANCH  23  28
ENDBRANCH   1  24
TORSDOF 6
