REMARK  Name = ZINC35023254
REMARK  7 active torsions:
REMARK  status: ('A' for Active; 'I' for Inactive)
REMARK    1  A    between atoms: C_1  and  O_2
REMARK    2  A    between atoms: O_2  and  C_3
REMARK    3  A    between atoms: C_6  and  C_9
REMARK    4  A    between atoms: C_9  and  C_11
REMARK    5  A    between atoms: C_13  and  C_25
REMARK    6  A    between atoms: C_19  and  C_20
REMARK    7  A    between atoms: C_19  and  O_24
REMARK                            x       y       z     vdW  Elec       q    Type
REMARK                         _______ _______ _______ _____ _____    ______ ____
ROOT
ATOM      1  C   UNL     1       3.057  -3.433  -4.844  0.00  0.00    +0.144 C 
ATOM      2  C   UNL     1       2.557  -4.426  -5.898  0.00  0.00    +0.117 C 
ATOM      3  N   UNL     1       3.626  -4.681  -6.865  0.00  0.00    -0.319 N 
ATOM      4  C   UNL     1       4.918  -4.598  -6.513  0.00  0.00    +0.133 C 
ATOM      5  S   UNL     1       6.114  -4.923  -7.695  0.00  0.00    -0.019 S 
ATOM      6  N   UNL     1       5.310  -4.271  -5.273  0.00  0.00    -0.291 N 
ATOM      7  C   UNL     1       4.336  -3.991  -4.211  0.00  0.00    +0.241 C 
ATOM      8  H   UNL     1       3.396  -4.913  -7.778  0.00  0.00    +0.148 HD
ATOM      9  H   UNL     1       6.258  -4.218  -5.073  0.00  0.00    +0.151 HD
ENDROOT
BRANCH   2  10
ATOM     10  C   UNL     1       1.361  -3.846  -6.609  0.00  0.00    -0.026 A 
ATOM     11  C   UNL     1       1.537  -3.091  -7.753  0.00  0.00    +0.008 A 
ATOM     12  C   UNL     1       0.442  -2.558  -8.406  0.00  0.00    +0.038 A 
ATOM     13  C   UNL     1      -0.833  -2.782  -7.914  0.00  0.00    +0.123 A 
ATOM     14  C   UNL     1      -1.008  -3.539  -6.768  0.00  0.00    +0.038 A 
ATOM     15  C   UNL     1       0.088  -4.075  -6.120  0.00  0.00    +0.008 A 
ATOM     16  F   UNL     1      -1.905  -2.262  -8.551  0.00  0.00    -0.205 F 
ENDBRANCH   2  10
BRANCH   7  17
ATOM     17  C   UNL     1       4.014  -5.285  -3.461  0.00  0.00    +0.436 C 
ATOM     18  F   UNL     1       3.488  -6.224  -4.355  0.00  0.00    -0.166 F 
ATOM     19  F   UNL     1       5.182  -5.794  -2.884  0.00  0.00    -0.166 F 
ATOM     20  F   UNL     1       3.075  -5.021  -2.458  0.00  0.00    -0.166 F 
ENDBRANCH   7  17
BRANCH   1  21
ATOM     21  C   UNL     1       3.352  -2.108  -5.497  0.00  0.00    +0.173 C 
ATOM     22  O   UNL     1       3.798  -2.073  -6.625  0.00  0.00    -0.292 OA
BRANCH  21  26
ATOM     23  C   UNL     1       2.624   1.497  -3.396  0.00  0.00    +0.120 A 
ATOM     24  C   UNL     1       3.136   1.539  -4.688  0.00  0.00    +0.046 A 
ATOM     25  C   UNL     1       3.373   0.375  -5.373  0.00  0.00    +0.015 A 
ATOM     26  C   UNL     1       3.100  -0.858  -4.768  0.00  0.00    +0.018 A 
ATOM     27  C   UNL     1       2.585  -0.895  -3.466  0.00  0.00    +0.015 A 
ATOM     28  C   UNL     1       2.356   0.274  -2.789  0.00  0.00    +0.046 A 
BRANCH  23  30
ATOM     29  C   UNL     1       2.689   3.871  -3.404  0.00  0.00    +0.277 C 
ATOM     30  O   UNL     1       2.391   2.651  -2.722  0.00  0.00    -0.495 OA
ENDBRANCH  23  30
ENDBRANCH  21  26
ENDBRANCH   1  21
BRANCH   7  31
ATOM     31  O   UNL     1       4.877  -3.032  -3.300  0.00  0.00    -0.364 OA
ATOM     32  H   UNL     1       5.689  -3.319  -2.862  0.00  0.00    +0.212 HD
ENDBRANCH   7  31
TORSDOF 6
