REMARK  Name = ZINC34990083
REMARK  6 active torsions:
REMARK  status: ('A' for Active; 'I' for Inactive)
REMARK    1  A    between atoms: C_10  and  C_12
REMARK    2  A    between atoms: C_12  and  C_29
REMARK    3  A    between atoms: C_13  and  C_14
REMARK    4  A    between atoms: C_17  and  C_19
REMARK    5  A    between atoms: C_22  and  S_25
REMARK    6  A    between atoms: S_25  and  N_28
REMARK                            x       y       z     vdW  Elec       q    Type
REMARK                         _______ _______ _______ _____ _____    ______ ____
ROOT
ATOM      1  C   UNL     1       6.218  -4.649  -0.080  0.00  0.00    +0.130 A 
ATOM      2  C   UNL     1       6.410  -6.021  -0.094  0.00  0.00    +0.050 A 
ATOM      3  C   UNL     1       7.790  -6.234  -0.107  0.00  0.00    +0.050 A 
ATOM      4  C   UNL     1       8.389  -4.994  -0.100  0.00  0.00    +0.136 A 
ATOM      5  O   UNL     1       7.429  -4.053  -0.089  0.00  0.00    -0.455 OA
ENDROOT
BRANCH   4   6
ATOM      6  C   UNL     1       9.843  -4.741  -0.109  0.00  0.00    +0.017 A 
ATOM      7  C   UNL     1      10.742  -5.811  -0.132  0.00  0.00    +0.013 A 
ATOM      8  C   UNL     1      12.099  -5.566  -0.140  0.00  0.00    +0.029 A 
ATOM      9  C   UNL     1      12.572  -4.265  -0.125  0.00  0.00    +0.105 A 
ATOM     10  C   UNL     1      11.687  -3.201  -0.102  0.00  0.00    +0.029 A 
ATOM     11  C   UNL     1      10.327  -3.430  -0.100  0.00  0.00    +0.013 A 
BRANCH   9  12
ATOM     12  S   UNL     1      14.307  -3.963  -0.136  0.00  0.00    +0.056 S 
ATOM     13  O   UNL     1      14.499  -2.674   0.432  0.00  0.00    -0.153 OA
ATOM     14  O   UNL     1      14.926  -5.128   0.394  0.00  0.00    -0.153 OA
BRANCH  12  15
ATOM     15  N   UNL     1      14.776  -3.857  -1.720  0.00  0.00    -0.204 NA
ATOM     16  H   UNL     1      14.121  -3.960  -2.428  0.00  0.00    +0.144 HD
ATOM     17  H   UNL     1      15.706  -3.691  -1.941  0.00  0.00    +0.144 HD
ENDBRANCH  12  15
ENDBRANCH   9  12
ENDBRANCH   4   6
BRANCH   1  19
ATOM     18  C   UNL     1       4.923  -2.609  -0.058  0.00  0.00    +0.099 C 
ATOM     19  C   UNL     1       4.973  -3.990  -0.065  0.00  0.00    +0.068 C 
BRANCH  18  29
ATOM     20  C   UNL     1      -0.016   1.360   0.009  0.00  0.00    +0.001 A 
ATOM     21  C   UNL     1       1.168   2.092   0.002  0.00  0.00    +0.002 A 
ATOM     22  C   UNL     1       2.379   1.467  -0.013  0.00  0.00    +0.028 A 
ATOM     23  C   UNL     1       2.436   0.066  -0.021  0.00  0.00    +0.079 A 
ATOM     24  C   UNL     1       1.229  -0.677  -0.013  0.00  0.00    +0.067 A 
ATOM     25  C   UNL     1       0.002  -0.004   0.002  0.00  0.00    +0.015 A 
ATOM     26  C   UNL     1       1.308  -2.091  -0.021  0.00  0.00    +0.281 A 
ATOM     27  O   UNL     1       0.187  -2.848  -0.015  0.00  0.00    -0.265 OA
ATOM     28  N   UNL     1       2.504  -2.653  -0.035  0.00  0.00    -0.188 NA
ATOM     29  C   UNL     1       3.618  -1.918  -0.042  0.00  0.00    +0.175 A 
ATOM     30  N   UNL     1       3.600  -0.595  -0.035  0.00  0.00    -0.226 NA
ENDBRANCH  18  29
BRANCH  18  31
ATOM     31  C   UNL     1       6.136  -1.848  -0.065  0.00  0.00    +0.103 C 
ATOM     32  N   UNL     1       7.098  -1.245  -0.071  0.00  0.00    -0.191 NA
ENDBRANCH  18  31
ENDBRANCH   1  19
TORSDOF 6
