REMARK  Name = ZINC09298508
REMARK  6 active torsions:
REMARK  status: ('A' for Active; 'I' for Inactive)
REMARK    1  A    between atoms: C_1  and  C_2
REMARK    2  A    between atoms: C_2  and  O_3
REMARK    3  A    between atoms: O_3  and  C_4
REMARK    4  A    between atoms: C_7  and  C_9
REMARK    5  A    between atoms: C_13  and  N_14
REMARK    6  A    between atoms: C_15  and  C_17
REMARK                            x       y       z     vdW  Elec       q    Type
REMARK                         _______ _______ _______ _____ _____    ______ ____
ROOT
ATOM      1  C   UNL     1       2.999  -1.642   1.746  0.00  0.00    +0.069 A 
ATOM      2  C   UNL     1       2.179  -0.684   1.016  0.00  0.00    -0.023 A 
ATOM      3  C   UNL     1       2.846   0.061   0.110  0.00  0.00    -0.004 A 
ATOM      4  S   UNL     1       4.530  -0.479   0.224  0.00  0.00    -0.077 S 
ATOM      5  C   UNL     1       4.354  -1.687   1.453  0.00  0.00    +0.085 A 
ATOM      6  C   UNL     1       2.288   1.105  -0.807  0.00  0.00    +0.043 C 
ATOM      7  C   UNL     1       1.406   2.067  -0.000  0.00  0.00    +0.005 C 
ATOM      8  C   UNL     1      -0.019   1.523   0.010  0.00  0.00    +0.001 C 
ATOM      9  C   UNL     1       0.002  -0.004   0.002  0.00  0.00    +0.005 C 
ATOM     10  C   UNL     1       0.683  -0.535   1.259  0.00  0.00    +0.037 C 
ENDROOT
BRANCH   1  14
ATOM     11  C   UNL     1       1.809  -2.943   4.973  0.00  0.00    +0.407 C 
ATOM     12  O   UNL     1       1.381  -4.034   4.651  0.00  0.00    -0.226 OA
ATOM     13  N   UNL     1       2.348  -2.130   4.043  0.00  0.00    -0.217 N 
ATOM     14  C   UNL     1       2.413  -2.526   2.757  0.00  0.00    +0.255 C 
ATOM     15  O   UNL     1       1.984  -3.618   2.434  0.00  0.00    -0.270 OA
ATOM     16  H   UNL     1       2.690  -1.259   4.300  0.00  0.00    +0.161 HD
BRANCH  11  17
ATOM     17  O   UNL     1       1.744  -2.548   6.258  0.00  0.00    -0.450 OA
BRANCH  17  19
ATOM     18  C   UNL     1       1.165  -2.855   8.603  0.00  0.00    +0.048 C 
ATOM     19  C   UNL     1       1.151  -3.475   7.204  0.00  0.00    +0.230 C 
ENDBRANCH  17  19
ENDBRANCH  11  17
ENDBRANCH   1  14
BRANCH   5  20
ATOM     20  N   UNL     1       5.329  -2.500   2.007  0.00  0.00    -0.275 N 
ATOM     21  C   UNL     1       6.606  -2.401   1.590  0.00  0.00    +0.250 C 
ATOM     22  O   UNL     1       6.903  -1.597   0.728  0.00  0.00    -0.270 OA
ATOM     23  H   UNL     1       5.091  -3.141   2.695  0.00  0.00    +0.156 HD
BRANCH  21  24
ATOM     24  C   UNL     1       7.646  -3.268   2.181  0.00  0.00    +0.050 A 
ATOM     25  C   UNL     1       7.309  -4.188   3.176  0.00  0.00    +0.014 A 
ATOM     26  C   UNL     1       8.284  -4.999   3.720  0.00  0.00    +0.001 A 
ATOM     27  C   UNL     1       9.595  -4.895   3.290  0.00  0.00    +0.001 A 
ATOM     28  C   UNL     1       9.937  -3.982   2.309  0.00  0.00    +0.015 A 
ATOM     29  C   UNL     1       8.971  -3.168   1.752  0.00  0.00    +0.025 A 
ATOM     30  I   UNL     1       9.491  -1.785   0.266  0.00  0.00    -0.043 I 
ENDBRANCH  21  24
ENDBRANCH   5  20
TORSDOF 5
