REMARK  Name = ZINC36311943
REMARK  5 active torsions:
REMARK  status: ('A' for Active; 'I' for Inactive)
REMARK    1  A    between atoms: C_6  and  N_7
REMARK    2  A    between atoms: C_8  and  C_10
REMARK    3  A    between atoms: C_10  and  C_12
REMARK    4  A    between atoms: C_10  and  N_17
REMARK    5  A    between atoms: C_23  and  C_25
REMARK                            x       y       z     vdW  Elec       q    Type
REMARK                         _______ _______ _______ _____ _____    ______ ____
ROOT
ATOM      1  C   UNL     1      -5.356  -1.614   0.632  0.00  0.00    +0.023 C 
ENDROOT
BRANCH   1   2
ATOM      2  N   UNL     1      -6.203  -0.417   0.725  0.00  0.00    +0.390 N 
ATOM      3  C   UNL     1      -6.394   0.151  -0.615  0.00  0.00    -0.058 C 
ATOM      4  C   UNL     1      -7.368   1.331  -0.535  0.00  0.00    +0.089 C 
ATOM      5  N   UNL     1      -6.863   2.286   0.463  0.00  0.00    -0.301 N 
ATOM      6  C   UNL     1      -6.491   1.770   1.790  0.00  0.00    +0.089 C 
ATOM      7  C   UNL     1      -5.558   0.570   1.600  0.00  0.00    -0.058 C 
ATOM      8  C   UNL     1      -6.745   3.596   0.171  0.00  0.00    +0.248 C 
ATOM      9  O   UNL     1      -6.233   4.354   0.972  0.00  0.00    -0.270 OA
ATOM     10  H   UNL     1      -7.100  -0.671   1.111  0.00  0.00    -0.081 HD
BRANCH   8  11
ATOM     11  C   UNL     1      -7.237   4.111  -1.123  0.00  0.00    +0.055 A 
ATOM     12  C   UNL     1      -8.451   3.658  -1.642  0.00  0.00    +0.016 A 
ATOM     13  C   UNL     1      -8.905   4.143  -2.850  0.00  0.00    +0.021 A 
ATOM     14  C   UNL     1      -8.159   5.077  -3.550  0.00  0.00    +0.042 A 
ATOM     15  C   UNL     1      -6.954   5.531  -3.043  0.00  0.00    +0.040 A 
ATOM     16  C   UNL     1      -6.491   5.058  -1.830  0.00  0.00    +0.054 A 
ATOM     17 CL   UNL     1      -4.983   5.633  -1.190  0.00  0.00    -0.083 Cl
ATOM     18 CL   UNL     1      -8.738   5.682  -5.071  0.00  0.00    -0.083 Cl
ENDBRANCH   8  11
ENDBRANCH   1   2
BRANCH   1  19
ATOM     19  C   UNL     1      -5.967  -2.594  -0.373  0.00  0.00    -0.016 C 
ATOM     20  C   UNL     1      -7.379  -3.011   0.088  0.00  0.00    +0.002 C 
ATOM     21  C   UNL     1      -7.480  -4.506  -0.305  0.00  0.00    +0.000 C 
ATOM     22  C   UNL     1      -6.055  -5.035  -0.006  0.00  0.00    +0.000 C 
ATOM     23  C   UNL     1      -5.125  -3.881  -0.432  0.00  0.00    +0.002 C 
ENDBRANCH   1  19
BRANCH   1  25
ATOM     24  N   UNL     1      -2.906  -1.943   0.555  0.00  0.00    -0.287 N 
ATOM     25  C   UNL     1      -3.977  -1.219   0.173  0.00  0.00    +0.204 C 
ATOM     26  O   UNL     1      -3.829  -0.249  -0.540  0.00  0.00    -0.277 OA
ATOM     27  H   UNL     1      -3.029  -2.753   1.075  0.00  0.00    +0.155 HD
BRANCH  24  33
ATOM     28  C   UNL     1      -1.385  -0.966  -1.047  0.00  0.00    +0.027 A 
ATOM     29  C   UNL     1      -0.113  -0.554  -1.396  0.00  0.00    +0.051 A 
ATOM     30  C   UNL     1       0.935  -0.698  -0.502  0.00  0.00    +0.166 A 
ATOM     31  C   UNL     1       0.706  -1.260   0.753  0.00  0.00    +0.168 A 
ATOM     32  C   UNL     1      -0.569  -1.672   1.102  0.00  0.00    +0.072 A 
ATOM     33  C   UNL     1      -1.616  -1.526   0.202  0.00  0.00    +0.037 A 
ATOM     34  O   UNL     1       1.886  -1.291   1.438  0.00  0.00    -0.453 OA
ATOM     35  C   UNL     1       2.913  -1.121   0.444  0.00  0.00    +0.466 C 
ATOM     36  O   UNL     1       2.259  -0.378  -0.601  0.00  0.00    -0.453 OA
ENDBRANCH  24  33
ENDBRANCH   1  25
TORSDOF 5
