REMARK  Name = ZINC12755892
REMARK  7 active torsions:
REMARK  status: ('A' for Active; 'I' for Inactive)
REMARK    1  A    between atoms: C_1  and  C_2
REMARK    2  A    between atoms: C_5  and  N_8
REMARK    3  A    between atoms: C_18  and  S_19
REMARK    4  A    between atoms: S_19  and  C_20
REMARK    5  A    between atoms: C_20  and  C_22
REMARK    6  A    between atoms: C_20  and  C_23
REMARK    7  A    between atoms: N_28  and  C_29
REMARK                            x       y       z     vdW  Elec       q    Type
REMARK                         _______ _______ _______ _____ _____    ______ ____
ROOT
ATOM      1  N   UNL     1      -3.181  -1.630   1.462  0.00  0.00    -0.255 N 
ATOM      2  C   UNL     1      -2.959  -2.827   2.053  0.00  0.00    +0.267 A 
ATOM      3  O   UNL     1      -3.872  -3.473   2.533  0.00  0.00    -0.267 OA
ATOM      4  C   UNL     1      -1.575  -3.318   2.096  0.00  0.00    +0.065 A 
ATOM      5  C   UNL     1      -1.246  -4.539   2.683  0.00  0.00    +0.017 A 
ATOM      6  C   UNL     1       0.056  -4.954   2.697  0.00  0.00    +0.021 A 
ATOM      7  C   UNL     1       1.058  -4.171   2.133  0.00  0.00    +0.043 A 
ATOM      8  C   UNL     1       0.760  -2.960   1.547  0.00  0.00    +0.048 A 
ATOM      9  C   UNL     1      -0.564  -2.514   1.520  0.00  0.00    +0.080 A 
ATOM     10  N   UNL     1      -0.903  -1.335   0.949  0.00  0.00    -0.223 NA
ATOM     11  C   UNL     1      -2.144  -0.916   0.928  0.00  0.00    +0.177 A 
ATOM     12 CL   UNL     1       2.702  -4.725   2.169  0.00  0.00    -0.083 Cl
ENDROOT
BRANCH   1  17
ATOM     13  C   UNL     1      -8.459   0.437   1.197  0.00  0.00    +0.044 C 
ATOM     14  C   UNL     1      -7.057  -0.111   1.267  0.00  0.00    -0.050 A 
ATOM     15  C   UNL     1      -6.579  -0.915   0.249  0.00  0.00    +0.005 A 
ATOM     16  C   UNL     1      -5.295  -1.420   0.310  0.00  0.00    +0.026 A 
ATOM     17  C   UNL     1      -4.484  -1.119   1.396  0.00  0.00    +0.052 A 
ATOM     18  C   UNL     1      -4.969  -0.316   2.420  0.00  0.00    +0.026 A 
ATOM     19  C   UNL     1      -6.252   0.190   2.350  0.00  0.00    +0.005 A 
ENDBRANCH   1  17
BRANCH  11  20
ATOM     20  S   UNL     1      -2.495   0.636   0.170  0.00  0.00    -0.075 S 
BRANCH  20  21
ATOM     21  C   UNL     1      -0.828   1.120  -0.341  0.00  0.00    +0.137 C 
ATOM     22  C   UNL     1      -0.313   0.139  -1.397  0.00  0.00    +0.029 C 
BRANCH  21  23
ATOM     23  C   UNL     1      -0.865   2.510  -0.922  0.00  0.00    +0.233 C 
ATOM     24  O   UNL     1      -1.912   2.973  -1.321  0.00  0.00    -0.274 OA
ATOM     25  N   UNL     1       0.267   3.238  -0.998  0.00  0.00    -0.239 N 
ATOM     26  C   UNL     1       0.234   4.482  -1.518  0.00  0.00    +0.306 C 
ATOM     27  O   UNL     1      -0.816   4.946  -1.918  0.00  0.00    -0.252 OA
ATOM     28  N   UNL     1       1.366   5.210  -1.594  0.00  0.00    -0.302 N 
ATOM     29  C   UNL     1       1.330   6.561  -2.159  0.00  0.00    +0.129 C 
ATOM     30  H   UNL     1       1.105   2.868  -0.679  0.00  0.00    +0.159 HD
ATOM     31  H   UNL     1       2.203   4.840  -1.275  0.00  0.00    +0.150 HD
ENDBRANCH  21  23
ENDBRANCH  20  21
ENDBRANCH  11  20
TORSDOF 4
