REMARK  Name = ZINC02428098
REMARK  7 active torsions:
REMARK  status: ('A' for Active; 'I' for Inactive)
REMARK    1  A    between atoms: C_1  and  C_2
REMARK    2  A    between atoms: C_5  and  C_8
REMARK    3  A    between atoms: C_8  and  N_9
REMARK    4  A    between atoms: C_20  and  C_36
REMARK    5  A    between atoms: N_22  and  C_30
REMARK    6  A    between atoms: C_25  and  N_29
REMARK    7  A    between atoms: C_26  and  C_27
REMARK                            x       y       z     vdW  Elec       q    Type
REMARK                         _______ _______ _______ _____ _____    ______ ____
ROOT
ATOM      1  N   UNL     1      -0.240   5.193   0.031  0.00  0.00    -0.265 N 
ATOM      2  C   UNL     1       0.007   3.832   0.022  0.00  0.00    +0.041 A 
ATOM      3  C   UNL     1       1.227   3.153   0.007  0.00  0.00    +0.024 A 
ATOM      4  C   UNL     1       1.181   1.768   0.000  0.00  0.00    +0.002 A 
ATOM      5  C   UNL     1      -0.013   1.076   0.008  0.00  0.00    +0.000 A 
ATOM      6  C   UNL     1      -1.234   1.740   0.017  0.00  0.00    +0.007 A 
ATOM      7  C   UNL     1      -1.198   3.118   0.030  0.00  0.00    -0.001 A 
ATOM      8  C   UNL     1      -2.288   4.141   0.047  0.00  0.00    +0.145 C 
ATOM      9  C   UNL     1      -1.562   5.468   0.046  0.00  0.00    +0.241 C 
ATOM     10  O   UNL     1      -2.070   6.569   0.057  0.00  0.00    -0.274 OA
ATOM     11  C   UNL     1      -3.167   4.026  -1.166  0.00  0.00    +0.062 A 
ATOM     12  C   UNL     1      -2.881   4.293  -2.498  0.00  0.00    +0.069 A 
ATOM     13  N   UNL     1      -3.959   4.050  -3.207  0.00  0.00    -0.168 NA
ATOM     14  N   UNL     1      -4.974   3.618  -2.340  0.00  0.00    -0.200 N 
ATOM     15  C   UNL     1      -4.469   3.608  -1.087  0.00  0.00    +0.230 A 
ATOM     16  O   UNL     1      -5.057   3.267   0.085  0.00  0.00    -0.423 OA
ATOM     17  C   UNL     1      -4.424   3.598   1.229  0.00  0.00    +0.201 C 
ATOM     18  C   UNL     1      -3.137   4.012   1.282  0.00  0.00    +0.110 C 
ATOM     19  C   UNL     1      -1.560   4.778  -3.037  0.00  0.00    +0.068 C 
ENDROOT
BRANCH  14  20
ATOM     20  C   UNL     1      -6.278   3.260  -2.707  0.00  0.00    +0.069 A 
ATOM     21  C   UNL     1      -6.932   2.233  -2.040  0.00  0.00    +0.028 A 
ATOM     22  C   UNL     1      -8.220   1.886  -2.401  0.00  0.00    +0.002 A 
ATOM     23  C   UNL     1      -8.853   2.553  -3.434  0.00  0.00    +0.000 A 
ATOM     24  C   UNL     1      -8.202   3.572  -4.104  0.00  0.00    +0.002 A 
ATOM     25  C   UNL     1      -6.917   3.928  -3.744  0.00  0.00    +0.028 A 
ENDBRANCH  14  20
BRANCH  17  26
ATOM     26  N   UNL     1      -5.124   3.507   2.407  0.00  0.00    -0.328 N 
ATOM     27  H   UNL     1      -4.695   3.738   3.245  0.00  0.00    +0.145 HD
ATOM     28  H   UNL     1      -6.049   3.213   2.400  0.00  0.00    +0.145 HD
ENDBRANCH  17  26
BRANCH  18  29
ATOM     29  C   UNL     1      -2.565   4.340   2.553  0.00  0.00    +0.102 C 
ATOM     30  N   UNL     1      -2.111   4.599   3.562  0.00  0.00    -0.191 NA
ENDBRANCH  18  29
BRANCH   1  31
ATOM     31  C   UNL     1       0.808   6.216   0.024  0.00  0.00    +0.148 C 
BRANCH  31  36
ATOM     32  C   UNL     1       2.127   7.587  -5.433  0.00  0.00    +0.044 C 
ATOM     33  C   UNL     1       1.783   7.229  -4.010  0.00  0.00    -0.050 A 
ATOM     34  C   UNL     1       0.790   7.923  -3.344  0.00  0.00    +0.003 A 
ATOM     35  C   UNL     1       0.474   7.595  -2.039  0.00  0.00    +0.005 A 
ATOM     36  C   UNL     1       1.152   6.574  -1.399  0.00  0.00    -0.030 A 
ATOM     37  C   UNL     1       2.150   5.884  -2.063  0.00  0.00    +0.005 A 
ATOM     38  C   UNL     1       2.462   6.209  -3.370  0.00  0.00    +0.003 A 
ENDBRANCH  31  36
ENDBRANCH   1  31
TORSDOF 5
