REMARK  Name = ZINC22131567
REMARK  6 active torsions:
REMARK  status: ('A' for Active; 'I' for Inactive)
REMARK    1  A    between atoms: C_1  and  C_2
REMARK    2  A    between atoms: C_6  and  N_11
REMARK    3  A    between atoms: C_12  and  C_14
REMARK    4  A    between atoms: C_21  and  S_24
REMARK    5  A    between atoms: S_24  and  N_27
REMARK    6  A    between atoms: N_27  and  C_28
REMARK                            x       y       z     vdW  Elec       q    Type
REMARK                         _______ _______ _______ _____ _____    ______ ____
ROOT
ATOM      1  C   UNL     1      -3.455   3.938   0.059  0.00  0.00    +0.051 A 
ATOM      2  C   UNL     1      -3.712   5.275  -0.205  0.00  0.00    +0.083 A 
ATOM      3  C   UNL     1      -2.651   6.188  -0.236  0.00  0.00    +0.250 A 
ATOM      4  N   UNL     1      -1.410   5.814  -0.020  0.00  0.00    -0.322 N 
ATOM      5  C   UNL     1      -1.094   4.542   0.240  0.00  0.00    +0.050 A 
ATOM      6  C   UNL     1      -2.108   3.554   0.289  0.00  0.00    +0.013 A 
ATOM      7  C   UNL     1      -1.767   2.222   0.556  0.00  0.00    +0.039 A 
ATOM      8  C   UNL     1      -0.464   1.891   0.778  0.00  0.00    +0.111 A 
ATOM      9  C   UNL     1       0.536   2.859   0.731  0.00  0.00    +0.031 A 
ATOM     10  C   UNL     1       0.241   4.161   0.468  0.00  0.00    +0.028 A 
ATOM     11  O   UNL     1      -2.912   7.494  -0.494  0.00  0.00    -0.268 OA
ATOM     12  H   UNL     1      -0.599   6.556  -0.050  0.00  0.00    +0.169 HD
ENDROOT
BRANCH   1  14
ATOM     13  N   UNL     1      -5.831   3.349  -0.006  0.00  0.00    -0.281 N 
ATOM     14  C   UNL     1      -4.549   2.945   0.100  0.00  0.00    +0.249 C 
ATOM     15  O   UNL     1      -4.293   1.763   0.230  0.00  0.00    -0.270 OA
ATOM     16  H   UNL     1      -6.059   4.407  -0.197  0.00  0.00    +0.155 HD
BRANCH  13  22
ATOM     17  C   UNL     1     -12.290   0.413   1.739  0.00  0.00    +0.109 C 
ATOM     18  C   UNL     1     -10.900   0.757   1.269  0.00  0.00    +0.194 A 
ATOM     19  N   UNL     1     -10.335   1.918   1.410  0.00  0.00    -0.213 NA
ATOM     20  C   UNL     1      -9.086   1.866   0.872  0.00  0.00    +0.111 A 
ATOM     21  C   UNL     1      -8.052   2.794   0.742  0.00  0.00    +0.055 A 
ATOM     22  C   UNL     1      -6.870   2.421   0.127  0.00  0.00    +0.036 A 
ATOM     23  C   UNL     1      -6.713   1.127  -0.364  0.00  0.00    +0.027 A 
ATOM     24  C   UNL     1      -7.727   0.203  -0.234  0.00  0.00    +0.050 A 
ATOM     25  C   UNL     1      -8.918   0.563   0.379  0.00  0.00    +0.155 A 
ATOM     26  O   UNL     1     -10.069  -0.093   0.647  0.00  0.00    -0.440 OA
ENDBRANCH  13  22
ENDBRANCH   1  14
BRANCH   8  27
ATOM     27  S   UNL     1      -0.038   0.215   1.120  0.00  0.00    +0.092 S 
ATOM     28  O   UNL     1      -1.132  -0.579   0.681  0.00  0.00    -0.148 OA
ATOM     29  O   UNL     1       1.284   0.025   0.637  0.00  0.00    -0.148 OA
BRANCH  27  30
ATOM     30  N   UNL     1       0.032   0.055   2.767  0.00  0.00    -0.098 NA
BRANCH  30  31
ATOM     31  C   UNL     1      -1.116   0.259   3.539  0.00  0.00    +0.074 A 
ATOM     32  C   UNL     1      -1.244   1.412   4.303  0.00  0.00    +0.029 A 
ATOM     33  C   UNL     1      -2.381   1.614   5.061  0.00  0.00    +0.040 A 
ATOM     34  C   UNL     1      -3.388   0.663   5.068  0.00  0.00    +0.124 A 
ATOM     35  C   UNL     1      -3.260  -0.489   4.311  0.00  0.00    +0.040 A 
ATOM     36  C   UNL     1      -2.127  -0.693   3.547  0.00  0.00    +0.029 A 
ATOM     37  F   UNL     1      -4.497   0.860   5.814  0.00  0.00    -0.205 F 
ENDBRANCH  30  31
ENDBRANCH  27  30
ENDBRANCH   8  27
TORSDOF 5
