REMARK  Name = ZINC09367469
REMARK  6 active torsions:
REMARK  status: ('A' for Active; 'I' for Inactive)
REMARK    1  A    between atoms: C_1  and  C_2
REMARK    2  A    between atoms: C_8  and  C_14
REMARK    3  A    between atoms: C_11  and  C_13
REMARK    4  A    between atoms: N_16  and  C_17
REMARK    5  A    between atoms: C_20  and  S_23
REMARK    6  A    between atoms: S_23  and  N_26
REMARK                            x       y       z     vdW  Elec       q    Type
REMARK                         _______ _______ _______ _____ _____    ______ ____
ROOT
ATOM      1  C   UNL     1       3.744   4.134   6.291  0.00  0.00    +0.034 A 
ATOM      2  C   UNL     1       4.213   5.087   5.396  0.00  0.00    +0.025 A 
ATOM      3  C   UNL     1       4.997   6.131   5.849  0.00  0.00    +0.030 A 
ATOM      4  C   UNL     1       5.323   6.222   7.189  0.00  0.00    +0.109 A 
ATOM      5  C   UNL     1       4.862   5.272   8.082  0.00  0.00    +0.030 A 
ATOM      6  C   UNL     1       4.074   4.228   7.637  0.00  0.00    +0.025 A 
ENDROOT
BRANCH   1   9
ATOM      7  C   UNL     1       2.094   3.272   4.811  0.00  0.00    +0.252 C 
ATOM      8  O   UNL     1       1.946   4.385   4.345  0.00  0.00    -0.270 OA
ATOM      9  N   UNL     1       2.947   3.079   5.837  0.00  0.00    -0.281 N 
ATOM     10  H   UNL     1       3.008   2.208   6.260  0.00  0.00    +0.155 HD
BRANCH   7  17
ATOM     11  C   UNL     1      -0.537   1.409   0.200  0.00  0.00    +0.016 C 
ATOM     12  C   UNL     1      -1.133   1.758   1.565  0.00  0.00    +0.060 C 
ATOM     13  C   UNL     1      -0.254   1.243   2.688  0.00  0.00    +0.001 A 
ATOM     14  C   UNL     1      -0.077  -0.014   3.221  0.00  0.00    +0.007 A 
ATOM     15  C   UNL     1       0.804  -0.211   4.273  0.00  0.00    +0.001 A 
ATOM     16  C   UNL     1       1.508   0.856   4.791  0.00  0.00    +0.017 A 
ATOM     17  C   UNL     1       1.339   2.133   4.256  0.00  0.00    +0.079 A 
ATOM     18  C   UNL     1       0.448   2.333   3.186  0.00  0.00    +0.137 A 
ATOM     19  O   UNL     1       0.143   3.469   2.506  0.00  0.00    -0.487 OA
ATOM     20  C   UNL     1      -1.101   3.285   1.808  0.00  0.00    +0.178 C 
ATOM     21  C   UNL     1      -1.095   4.046   0.481  0.00  0.00    +0.052 C 
ENDBRANCH   7  17
ENDBRANCH   1   9
BRANCH   4  22
ATOM     22  S   UNL     1       6.328   7.551   7.762  0.00  0.00    +0.074 S 
ATOM     23  O   UNL     1       6.178   8.607   6.823  0.00  0.00    -0.150 OA
ATOM     24  O   UNL     1       6.039   7.713   9.143  0.00  0.00    -0.150 OA
BRANCH  22  25
ATOM     25  N   UNL     1       7.904   7.050   7.664  0.00  0.00    -0.194 N 
ATOM     26  C   UNL     1       8.470   6.783   6.427  0.00  0.00    +0.177 A 
ATOM     27  N   UNL     1       7.922   6.862   5.230  0.00  0.00    -0.232 NA
ATOM     28  C   UNL     1       8.612   6.572   4.143  0.00  0.00    +0.120 A 
ATOM     29  C   UNL     1       9.901   6.178   4.282  0.00  0.00    +0.068 A 
ATOM     30  S   UNL     1      10.082   6.251   6.058  0.00  0.00    -0.059 S 
ATOM     31  H   UNL     1       8.430   6.944   8.472  0.00  0.00    +0.176 HD
ENDBRANCH  22  25
ENDBRANCH   4  22
TORSDOF 4
