REMARK  Name = ZINC17857125
REMARK  9 active torsions:
REMARK  status: ('A' for Active; 'I' for Inactive)
REMARK    1  A    between atoms: C_1  and  C_2
REMARK    2  A    between atoms: C_6  and  C_32
REMARK    3  A    between atoms: C_7  and  N_8
REMARK    4  A    between atoms: C_9  and  C_11
REMARK    5  A    between atoms: C_11  and  N_12
REMARK    6  A    between atoms: C_13  and  C_15
REMARK    7  A    between atoms: C_19  and  S_21
REMARK    8  A    between atoms: S_21  and  N_24
REMARK    9  A    between atoms: N_24  and  C_25
REMARK                            x       y       z     vdW  Elec       q    Type
REMARK                         _______ _______ _______ _____ _____    ______ ____
ROOT
ATOM      1  C   UNL     1      -3.759  -0.563  -3.519  0.00  0.00    +0.039 A 
ATOM      2  C   UNL     1      -4.153   0.717  -3.913  0.00  0.00    +0.013 A 
ATOM      3  C   UNL     1      -3.232   1.743  -3.934  0.00  0.00    +0.003 A 
ATOM      4  C   UNL     1      -1.920   1.507  -3.561  0.00  0.00    +0.029 A 
ATOM      5  C   UNL     1      -1.522   0.240  -3.174  0.00  0.00    +0.109 A 
ATOM      6  C   UNL     1      -2.434  -0.795  -3.148  0.00  0.00    +0.041 A 
ENDROOT
BRANCH   1   8
ATOM      7  N   UNL     1      -6.021  -1.440  -3.852  0.00  0.00    -0.303 N 
ATOM      8  C   UNL     1      -4.741  -1.667  -3.493  0.00  0.00    +0.245 C 
ATOM      9  O   UNL     1      -4.395  -2.781  -3.149  0.00  0.00    -0.270 OA
ATOM     10  H   UNL     1      -6.296  -0.552  -4.126  0.00  0.00    +0.150 HD
BRANCH   7  11
ATOM     11  C   UNL     1      -6.994  -2.534  -3.826  0.00  0.00    +0.200 C 
BRANCH  11  13
ATOM     12  N   UNL     1      -9.396  -2.856  -4.324  0.00  0.00    -0.284 N 
ATOM     13  C   UNL     1      -8.340  -2.020  -4.268  0.00  0.00    +0.234 C 
ATOM     14  O   UNL     1      -8.473  -0.854  -4.574  0.00  0.00    -0.274 OA
ATOM     15  H   UNL     1      -9.275  -3.802  -4.147  0.00  0.00    +0.155 HD
BRANCH  12  22
ATOM     16  C   UNL     1     -10.852  -4.108  -6.423  0.00  0.00    +0.045 C 
ATOM     17  C   UNL     1     -11.411  -2.940  -5.652  0.00  0.00    -0.029 A 
ATOM     18  C   UNL     1     -12.667  -2.450  -5.954  0.00  0.00    +0.005 A 
ATOM     19  C   UNL     1     -13.178  -1.375  -5.250  0.00  0.00    +0.001 A 
ATOM     20  C   UNL     1     -12.436  -0.790  -4.240  0.00  0.00    +0.005 A 
ATOM     21  C   UNL     1     -11.182  -1.278  -3.931  0.00  0.00    -0.029 A 
ATOM     22  C   UNL     1     -10.666  -2.358  -4.635  0.00  0.00    +0.039 A 
ATOM     23  C   UNL     1     -10.375  -0.640  -2.829  0.00  0.00    +0.045 C 
ENDBRANCH  12  22
ENDBRANCH  11  13
ENDBRANCH   7  11
ENDBRANCH   1   8
BRANCH   5  24
ATOM     24  S   UNL     1       0.152  -0.051  -2.706  0.00  0.00    +0.072 S 
ATOM     25  O   UNL     1       0.162  -1.266  -1.968  0.00  0.00    -0.150 OA
ATOM     26  O   UNL     1       0.641   1.170  -2.169  0.00  0.00    -0.150 OA
BRANCH  24  27
ATOM     27  N   UNL     1       1.007  -0.333  -4.096  0.00  0.00    -0.216 N 
ATOM     28  H   UNL     1       1.730   0.262  -4.350  0.00  0.00    +0.174 HD
BRANCH  27  29
ATOM     29  C   UNL     1       0.687  -1.428  -4.902  0.00  0.00    +0.049 A 
ATOM     30  C   UNL     1       0.572  -1.270  -6.277  0.00  0.00    +0.024 A 
ATOM     31  C   UNL     1       0.256  -2.354  -7.072  0.00  0.00    +0.003 A 
ATOM     32  C   UNL     1       0.054  -3.597  -6.501  0.00  0.00    +0.020 A 
ATOM     33  C   UNL     1       0.168  -3.759  -5.131  0.00  0.00    +0.043 A 
ATOM     34  C   UNL     1       0.489  -2.678  -4.331  0.00  0.00    +0.044 A 
ATOM     35 CL   UNL     1      -0.085  -5.321  -4.419  0.00  0.00    -0.083 Cl
ENDBRANCH  27  29
ENDBRANCH  24  27
ENDBRANCH   5  24
TORSDOF 7
