REMARK  Name = ZINC36772532
REMARK  8 active torsions:
REMARK  status: ('A' for Active; 'I' for Inactive)
REMARK    1  A    between atoms: C_1  and  C_2
REMARK    2  A    between atoms: C_5  and  N_22
REMARK    3  A    between atoms: C_7  and  S_8
REMARK    4  A    between atoms: S_8  and  N_11
REMARK    5  A    between atoms: N_11  and  C_12
REMARK    6  A    between atoms: C_15  and  S_18
REMARK    7  A    between atoms: S_18  and  C_19
REMARK    8  A    between atoms: C_23  and  C_25
REMARK                            x       y       z     vdW  Elec       q    Type
REMARK                         _______ _______ _______ _____ _____    ______ ____
ROOT
ATOM      1  C   UNL     1      -0.037   1.472   0.003  0.00  0.00    +0.046 C 
ATOM      2  C   UNL     1       0.185  -0.019   0.004  0.00  0.00    -0.024 A 
ATOM      3  C   UNL     1       0.246  -0.709  -1.193  0.00  0.00    +0.007 A 
ATOM      4  C   UNL     1       0.450  -2.075  -1.195  0.00  0.00    +0.024 A 
ATOM      5  C   UNL     1       0.593  -2.756   0.007  0.00  0.00    +0.036 A 
ATOM      6  C   UNL     1       0.531  -2.060   1.207  0.00  0.00    +0.052 A 
ATOM      7  C   UNL     1       0.332  -0.693   1.202  0.00  0.00    +0.113 A 
ENDROOT
BRANCH   5   8
ATOM      8  N   UNL     1       0.798  -4.139   0.008  0.00  0.00    -0.281 N 
ATOM      9  C   UNL     1       1.496  -4.718  -0.989  0.00  0.00    +0.254 C 
ATOM     10  O   UNL     1       2.022  -4.029  -1.842  0.00  0.00    -0.270 OA
ATOM     11  H   UNL     1       0.439  -4.682   0.727  0.00  0.00    +0.155 HD
BRANCH   9  12
ATOM     12  C   UNL     1       1.621  -6.186  -1.046  0.00  0.00    +0.107 A 
ATOM     13  C   UNL     1       0.678  -6.946  -1.747  0.00  0.00    +0.138 A 
ATOM     14  C   UNL     1       0.803  -8.322  -1.795  0.00  0.00    +0.039 A 
ATOM     15  C   UNL     1       1.856  -8.948  -1.153  0.00  0.00    +0.006 A 
ATOM     16  C   UNL     1       2.792  -8.204  -0.458  0.00  0.00    +0.039 A 
ATOM     17  C   UNL     1       2.686  -6.827  -0.405  0.00  0.00    +0.138 A 
ATOM     18  F   UNL     1       3.606  -6.103   0.269  0.00  0.00    -0.205 F 
ATOM     19  F   UNL     1      -0.352  -6.337  -2.374  0.00  0.00    -0.205 F 
ENDBRANCH   9  12
ENDBRANCH   5   8
BRANCH   7  20
ATOM     20  S   UNL     1       0.260   0.191   2.724  0.00  0.00    +0.073 S 
ATOM     21  O   UNL     1       0.393  -0.772   3.761  0.00  0.00    -0.150 OA
ATOM     22  O   UNL     1       1.143   1.297   2.594  0.00  0.00    -0.150 OA
BRANCH  20  23
ATOM     23  N   UNL     1      -1.268   0.818   2.855  0.00  0.00    -0.216 N 
ATOM     24  H   UNL     1      -1.402   1.778   2.821  0.00  0.00    +0.174 HD
BRANCH  23  25
ATOM     25  C   UNL     1      -2.364  -0.038   3.014  0.00  0.00    +0.048 A 
ATOM     26  C   UNL     1      -2.476  -1.177   2.228  0.00  0.00    +0.025 A 
ATOM     27  C   UNL     1      -3.557  -2.021   2.385  0.00  0.00    +0.017 A 
ATOM     28  C   UNL     1      -4.533  -1.731   3.330  0.00  0.00    +0.013 A 
ATOM     29  C   UNL     1      -4.421  -0.591   4.117  0.00  0.00    +0.017 A 
ATOM     30  C   UNL     1      -3.337   0.250   3.963  0.00  0.00    +0.025 A 
BRANCH  28  31
ATOM     31  S   UNL     1      -5.913  -2.808   3.531  0.00  0.00    -0.056 S 
BRANCH  31  32
ATOM     32  C   UNL     1      -6.889  -2.030   4.848  0.00  0.00    +0.404 C 
ATOM     33  F   UNL     1      -6.116  -1.942   6.011  0.00  0.00    -0.197 F 
ATOM     34  F   UNL     1      -7.275  -0.747   4.446  0.00  0.00    -0.197 F 
ENDBRANCH  31  32
ENDBRANCH  28  31
ENDBRANCH  23  25
ENDBRANCH  20  23
ENDBRANCH   7  20
TORSDOF 7
