REMARK  Name = ZINC12347065
REMARK  9 active torsions:
REMARK  status: ('A' for Active; 'I' for Inactive)
REMARK    1  A    between atoms: C_1  and  C_2
REMARK    2  A    between atoms: C_2  and  N_3
REMARK    3  A    between atoms: N_3  and  C_4
REMARK    4  A    between atoms: N_3  and  C_6
REMARK    5  A    between atoms: C_4  and  C_5
REMARK    6  A    between atoms: C_9  and  C_12
REMARK    7  A    between atoms: N_18  and  C_21
REMARK    8  A    between atoms: C_33  and  C_35
REMARK    9  A    between atoms: C_33  and  C_36
REMARK                            x       y       z     vdW  Elec       q    Type
REMARK                         _______ _______ _______ _____ _____    ______ ____
ROOT
ATOM      1  C   UNL     1      -1.302  -6.165   0.447  0.00  0.00    +0.092 C 
ATOM      2  C   UNL     1      -2.712  -6.685   0.451  0.00  0.00    +0.070 A 
ATOM      3  C   UNL     1      -3.318  -7.160   1.587  0.00  0.00    +0.125 A 
ATOM      4  N   UNL     1      -4.582  -7.547   1.264  0.00  0.00    -0.277 N 
ATOM      5  H   UNL     1      -5.239  -7.920   1.873  0.00  0.00    +0.189 HD
ATOM      6  N   UNL     1      -4.768  -7.311  -0.108  0.00  0.00    -0.218 N 
ATOM      7  C   UNL     1      -3.624  -6.785  -0.600  0.00  0.00    +0.278 A 
ATOM      8  O   UNL     1      -3.425  -6.458  -1.757  0.00  0.00    -0.265 OA
ATOM      9  N   UNL     1      -2.657  -7.194   2.791  0.00  0.00    -0.303 N 
ATOM     10  C   UNL     1      -1.290  -7.039   2.798  0.00  0.00    +0.017 C 
ATOM     11  C   UNL     1      -0.612  -6.564   1.734  0.00  0.00    +0.024 C 
ATOM     12  C   UNL     1       0.787  -6.415   1.776  0.00  0.00    +0.162 C 
ATOM     13  O   UNL     1       1.371  -6.004   0.792  0.00  0.00    -0.292 OA
ATOM     14  C   UNL     1       1.577  -6.751   3.010  0.00  0.00    +0.086 C 
ATOM     15  C   UNL     1       0.680  -6.561   4.239  0.00  0.00    -0.023 C 
ATOM     16  C   UNL     1      -0.563  -7.434   4.064  0.00  0.00    +0.058 C 
ATOM     17  C   UNL     1       1.435  -6.986   5.500  0.00  0.00    +0.011 C 
ATOM     18  C   UNL     1       0.267  -5.092   4.354  0.00  0.00    +0.011 C 
ATOM     19  H   UNL     1      -3.144  -7.326   3.619  0.00  0.00    +0.153 HD
ENDROOT
BRANCH   1  23
ATOM     20  C   UNL     1      -1.358  -1.906   0.120  0.00  0.00    +0.013 A 
ATOM     21  C   UNL     1      -0.724  -2.666  -0.846  0.00  0.00    +0.022 A 
ATOM     22  C   UNL     1      -0.706  -4.044  -0.740  0.00  0.00    +0.006 A 
ATOM     23  C   UNL     1      -1.321  -4.663   0.332  0.00  0.00    -0.035 A 
ATOM     24  C   UNL     1      -1.954  -3.903   1.298  0.00  0.00    +0.006 A 
ATOM     25  C   UNL     1      -1.968  -2.525   1.194  0.00  0.00    +0.022 A 
BRANCH  20  26
ATOM     26  N   UNL     1      -1.376  -0.512   0.012  0.00  0.00    -0.394 NA
ATOM     27  H   UNL     1      -1.873  -0.121   0.799  0.00  0.00    +0.126 HD
BRANCH  26  29
ATOM     28  C   UNL     1      -0.019   1.526   0.010  0.00  0.00    +0.022 C 
ATOM     29  C   UNL     1       0.002  -0.004   0.002  0.00  0.00    +0.081 C 
ENDBRANCH  26  29
BRANCH  26  30
ATOM     30  C   UNL     1      -2.050  -0.126  -1.234  0.00  0.00    +0.081 C 
ATOM     31  C   UNL     1      -3.520  -0.547  -1.171  0.00  0.00    +0.022 C 
ENDBRANCH  26  30
ENDBRANCH  20  26
ENDBRANCH   1  23
BRANCH   6  32
ATOM     32  C   UNL     1      -5.932  -7.574  -0.837  0.00  0.00    +0.067 A 
ATOM     33  C   UNL     1      -5.979  -7.297  -2.197  0.00  0.00    +0.028 A 
ATOM     34  C   UNL     1      -7.130  -7.558  -2.914  0.00  0.00    +0.002 A 
ATOM     35  C   UNL     1      -8.235  -8.094  -2.279  0.00  0.00    +0.000 A 
ATOM     36  C   UNL     1      -8.192  -8.371  -0.925  0.00  0.00    +0.002 A 
ATOM     37  C   UNL     1      -7.042  -8.118  -0.204  0.00  0.00    +0.028 A 
ENDBRANCH   6  32
TORSDOF 5
