REMARK  Name = ZINC13401014
REMARK  8 active torsions:
REMARK  status: ('A' for Active; 'I' for Inactive)
REMARK    1  A    between atoms: C_4  and  N_29
REMARK    2  A    between atoms: C_5  and  N_7
REMARK    3  A    between atoms: C_8  and  C_10
REMARK    4  A    between atoms: C_10  and  C_27
REMARK    5  A    between atoms: C_11  and  C_12
REMARK    6  A    between atoms: C_15  and  C_17
REMARK    7  A    between atoms: C_20  and  S_23
REMARK    8  A    between atoms: S_23  and  N_26
REMARK                            x       y       z     vdW  Elec       q    Type
REMARK                         _______ _______ _______ _____ _____    ______ ____
ROOT
ATOM      1  C   UNL     1      -0.976  -6.245   0.394  0.00  0.00    +0.130 A 
ATOM      2  C   UNL     1      -2.098  -7.105   0.507  0.00  0.00    +0.050 A 
ATOM      3  C   UNL     1      -1.619  -8.378   0.575  0.00  0.00    +0.050 A 
ATOM      4  C   UNL     1      -0.215  -8.302   0.504  0.00  0.00    +0.136 A 
ATOM      5  O   UNL     1       0.138  -7.009   0.390  0.00  0.00    -0.455 OA
ENDROOT
BRANCH   4   6
ATOM      6  C   UNL     1       0.707  -9.440   0.542  0.00  0.00    +0.017 A 
ATOM      7  C   UNL     1       0.209 -10.749   0.653  0.00  0.00    +0.013 A 
ATOM      8  C   UNL     1       1.083 -11.812   0.688  0.00  0.00    +0.029 A 
ATOM      9  C   UNL     1       2.450 -11.593   0.615  0.00  0.00    +0.105 A 
ATOM     10  C   UNL     1       2.951 -10.305   0.506  0.00  0.00    +0.029 A 
ATOM     11  C   UNL     1       2.094  -9.229   0.463  0.00  0.00    +0.013 A 
BRANCH   9  12
ATOM     12  S   UNL     1       3.559 -12.962   0.661  0.00  0.00    +0.056 S 
ATOM     13  O   UNL     1       4.804 -12.461   1.126  0.00  0.00    -0.153 OA
ATOM     14  O   UNL     1       2.871 -14.020   1.316  0.00  0.00    -0.153 OA
BRANCH  12  15
ATOM     15  N   UNL     1       3.799 -13.451  -0.903  0.00  0.00    -0.204 NA
ATOM     16  H   UNL     1       3.354 -12.987  -1.629  0.00  0.00    +0.144 HD
ATOM     17  H   UNL     1       4.385 -14.200  -1.092  0.00  0.00    +0.144 HD
ENDBRANCH  12  15
ENDBRANCH   9  12
ENDBRANCH   4   6
BRANCH   1  19
ATOM     18  C   UNL     1       0.183  -4.130   0.184  0.00  0.00    +0.121 C 
ATOM     19  C   UNL     1      -1.015  -4.862   0.297  0.00  0.00    +0.070 C 
BRANCH  18  21
ATOM     20  N   UNL     1       1.266  -2.030  -0.021  0.00  0.00    -0.206 NA
ATOM     21  C   UNL     1       0.142  -2.717   0.085  0.00  0.00    +0.288 C 
ATOM     22  O   UNL     1      -1.046  -2.071   0.101  0.00  0.00    -0.264 OA
BRANCH  20  27
ATOM     23  C   UNL     1       0.512   1.364   1.008  0.00  0.00    +0.002 A 
ATOM     24  C   UNL     1       1.173   2.077   0.018  0.00  0.00    +0.002 A 
ATOM     25  C   UNL     1       1.866   1.414  -0.985  0.00  0.00    +0.035 A 
ATOM     26  C   UNL     1       1.904   0.049  -1.008  0.00  0.00    +0.152 A 
ATOM     27  C   UNL     1       1.236  -0.686  -0.008  0.00  0.00    +0.098 A 
ATOM     28  C   UNL     1       0.536  -0.002   1.005  0.00  0.00    +0.030 A 
BRANCH  26  29
ATOM     29  N   UNL     1       2.643  -0.656  -2.080  0.00  0.00    +0.059 N 
ATOM     30  O   UNL     1       3.266   0.033  -3.013  0.00  0.00    -0.126 OA
ATOM     31  O   UNL     1       2.678  -1.972  -2.100  0.00  0.00    -0.126 OA
ENDBRANCH  26  29
ENDBRANCH  20  27
ENDBRANCH  18  21
BRANCH  18  32
ATOM     32  C   UNL     1       1.441  -4.813   0.167  0.00  0.00    +0.105 C 
ATOM     33  N   UNL     1       2.439  -5.355   0.154  0.00  0.00    -0.191 NA
ENDBRANCH  18  32
ENDBRANCH   1  19
TORSDOF 8
