REMARK  Name = ZINC05638902
REMARK  2 active torsions:
REMARK  status: ('A' for Active; 'I' for Inactive)
REMARK    1  A    between atoms: C_12  and  N_14
REMARK    2  A    between atoms: N_17  and  C_18
REMARK                            x       y       z     vdW  Elec       q    Type
REMARK                         _______ _______ _______ _____ _____    ______ ____
ROOT
ATOM      1  N   UNL     1       0.552  -0.578   2.277  0.00  0.00    -0.293 N 
ATOM      2  C   UNL     1      -0.279  -1.623   2.458  0.00  0.00    +0.300 C 
ATOM      3  O   UNL     1      -0.872  -2.100   1.510  0.00  0.00    -0.253 OA
ATOM      4  N   UNL     1      -0.452  -2.141   3.690  0.00  0.00    -0.293 N 
ATOM      5  H   UNL     1       1.025  -0.197   3.033  0.00  0.00    +0.151 HD
ATOM      6  H   UNL     1       0.022  -1.761   4.447  0.00  0.00    +0.151 HD
ENDROOT
BRANCH   1  15
ATOM      7  C   UNL     1      -0.523   2.039   0.554  0.00  0.00    +0.002 C 
ATOM      8  C   UNL     1       0.970   2.371   0.316  0.00  0.00    +0.006 C 
ATOM      9  C   UNL     1       1.730   1.180   0.932  0.00  0.00    +0.016 C 
ATOM     10  C   UNL     1       2.861   0.763  -0.056  0.00  0.00    -0.006 C 
ATOM     11  C   UNL     1       3.637  -0.364   0.690  0.00  0.00    +0.004 C 
ATOM     12  C   UNL     1       2.666  -1.567   0.698  0.00  0.00    +0.006 C 
ATOM     13  C   UNL     1       1.395  -1.053  -0.044  0.00  0.00    +0.013 C 
ATOM     14  C   UNL     1       2.040  -0.066  -1.106  0.00  0.00    +0.009 C 
ATOM     15  C   UNL     1       0.739  -0.015   0.937  0.00  0.00    +0.042 C 
ATOM     16  C   UNL     1      -0.574   0.509   0.323  0.00  0.00    +0.026 C 
ENDBRANCH   1  15
BRANCH   4  17
ATOM     17  C   UNL     1      -1.354  -3.278   3.887  0.00  0.00    +0.042 C 
ATOM     18  C   UNL     1      -2.693  -2.742   3.582  0.00  0.00    +0.026 C 
ATOM     19  C   UNL     1      -2.872  -1.633   4.675  0.00  0.00    +0.002 C 
ATOM     20  C   UNL     1      -1.651  -1.794   5.645  0.00  0.00    +0.006 C 
ATOM     21  C   UNL     1      -1.334  -3.280   5.469  0.00  0.00    +0.016 C 
ATOM     22  C   UNL     1       0.078  -3.839   5.730  0.00  0.00    -0.006 C 
ATOM     23  C   UNL     1      -0.288  -5.368   5.858  0.00  0.00    +0.004 C 
ATOM     24  C   UNL     1      -0.854  -5.689   4.449  0.00  0.00    +0.006 C 
ATOM     25  C   UNL     1      -0.530  -4.467   3.550  0.00  0.00    +0.013 C 
ATOM     26  C   UNL     1       0.771  -3.905   4.320  0.00  0.00    +0.009 C 
ENDBRANCH   4  17
TORSDOF 2
