REMARK  Name = ZINC39939553
REMARK  6 active torsions:
REMARK  status: ('A' for Active; 'I' for Inactive)
REMARK    1  A    between atoms: C_1  and  C_2
REMARK    2  A    between atoms: C_14  and  C_16
REMARK    3  A    between atoms: C_16  and  S_17
REMARK    4  A    between atoms: S_17  and  C_18
REMARK    5  A    between atoms: C_22  and  C_27
REMARK    6  A    between atoms: N_23  and  C_24
REMARK                            x       y       z     vdW  Elec       q    Type
REMARK                         _______ _______ _______ _____ _____    ______ ____
ROOT
ATOM      1  C   UNL     1       5.855  -5.167   1.161  0.00  0.00    +0.237 C 
ATOM      2  N   UNL     1       5.864  -4.542   2.494  0.00  0.00    -0.237 N 
ATOM      3  N   UNL     1       4.953  -5.262   3.276  0.00  0.00    -0.169 NA
ATOM      4  C   UNL     1       4.402  -6.231   2.593  0.00  0.00    +0.147 C 
ATOM      5  N   UNL     1       4.884  -6.267   1.279  0.00  0.00    -0.282 N 
ATOM      6  H   UNL     1       6.396  -3.781   2.775  0.00  0.00    +0.171 HD
ENDROOT
BRANCH   4   7
ATOM      7  C   UNL     1       3.451  -7.122   3.112  0.00  0.00    +0.022 C 
ATOM      8  C   UNL     1       2.857  -7.083   4.374  0.00  0.00    +0.006 A 
ATOM      9  C   UNL     1       3.002  -6.203   5.468  0.00  0.00    +0.010 A 
ATOM     10  C   UNL     1       2.279  -6.411   6.599  0.00  0.00    +0.001 A 
ATOM     11  C   UNL     1       1.389  -7.481   6.712  0.00  0.00    +0.002 A 
ATOM     12  C   UNL     1       1.201  -8.364   5.701  0.00  0.00    +0.026 A 
ATOM     13  C   UNL     1       1.920  -8.212   4.488  0.00  0.00    +0.043 A 
ATOM     14  N   UNL     1       1.916  -8.922   3.376  0.00  0.00    -0.380 N 
ATOM     15  C   UNL     1       2.849  -8.323   2.416  0.00  0.00    +0.152 C 
ATOM     16  H   UNL     1       1.378  -9.713   3.217  0.00  0.00    +0.160 HD
ENDBRANCH   4   7
BRANCH   5  17
ATOM     17  C   UNL     1       4.499  -7.212   0.228  0.00  0.00    +0.078 C 
ATOM     18  C   UNL     1       5.232  -7.116  -1.112  0.00  0.00    +0.024 C 
ATOM     19  C   UNL     1       3.779  -6.649  -0.999  0.00  0.00    +0.024 C 
ENDBRANCH   5  17
BRANCH   1  20
ATOM     20  S   UNL     1       5.314  -3.975  -0.095  0.00  0.00    -0.109 S 
BRANCH  20  21
ATOM     21  C   UNL     1       3.684  -3.432   0.489  0.00  0.00    +0.168 C 
BRANCH  21  34
ATOM     22  C   UNL     1       1.418   2.534   0.602  0.00  0.00    +0.019 C 
ATOM     23  C   UNL     1       1.142   1.033   0.491  0.00  0.00    +0.050 C 
ATOM     24  C   UNL     1       1.730   0.507  -0.809  0.00  0.00    +0.033 C 
ATOM     25  C   UNL     1       1.330  -0.897  -1.177  0.00  0.00    +0.115 C 
ATOM     26  N   UNL     1       1.903  -1.881  -0.246  0.00  0.00    -0.270 N 
ATOM     27  C   UNL     1       1.159  -2.238   0.887  0.00  0.00    +0.050 A 
ATOM     28  C   UNL     1       0.558  -3.490   0.950  0.00  0.00    +0.024 A 
ATOM     29  C   UNL     1      -0.215  -3.825   2.046  0.00  0.00    +0.002 A 
ATOM     30  C   UNL     1      -0.399  -2.926   3.082  0.00  0.00    +0.001 A 
ATOM     31  C   UNL     1       0.211  -1.684   3.036  0.00  0.00    +0.016 A 
ATOM     32  C   UNL     1       1.001  -1.361   1.950  0.00  0.00    +0.030 A 
ATOM     33  S   UNL     1       1.896   0.175   1.905  0.00  0.00    -0.120 S 
ATOM     34  C   UNL     1       3.114  -2.426  -0.477  0.00  0.00    +0.230 C 
ATOM     35  O   UNL     1       3.745  -2.107  -1.463  0.00  0.00    -0.274 OA
ENDBRANCH  21  34
ENDBRANCH  20  21
ENDBRANCH   1  20
TORSDOF 5
