REMARK  Name = ZINC29394708
REMARK  11 active torsions:
REMARK  status: ('A' for Active; 'I' for Inactive)
REMARK    1  A    between atoms: C_1  and  C_2
REMARK    2  A    between atoms: C_2  and  C_3
REMARK    3  A    between atoms: C_2  and  C_4
REMARK    4  A    between atoms: C_2  and  O_5
REMARK    5  A    between atoms: O_5  and  C_6
REMARK    6  A    between atoms: N_8  and  C_9
REMARK    7  A    between atoms: N_13  and  C_15
REMARK    8  A    between atoms: C_15  and  C_16
REMARK    9  A    between atoms: N_18  and  C_19
REMARK   10  A    between atoms: C_29  and  C_31
REMARK   11  A    between atoms: C_31  and  C_32
REMARK                            x       y       z     vdW  Elec       q    Type
REMARK                         _______ _______ _______ _____ _____    ______ ____
ROOT
ATOM      1  C   UNL     1       1.746  -6.030   0.285  0.00  0.00    +0.197 C 
ATOM      2  O   UNL     1       0.712  -6.619   0.055  0.00  0.00    -0.278 OA
ATOM      3  N   UNL     1       2.018  -4.872  -0.350  0.00  0.00    -0.313 N 
ATOM      4  H   UNL     1       2.956  -4.338  -0.141  0.00  0.00    +0.149 HD
ENDROOT
BRANCH   3   5
ATOM      5  C   UNL     1       1.063  -4.326  -1.317  0.00  0.00    +0.081 C 
ATOM      6  C   UNL     1       1.317  -4.941  -2.698  0.00  0.00    +0.027 C 
ATOM      7  C   UNL     1       2.807  -4.820  -3.012  0.00  0.00    +0.037 C 
ATOM      8  C   UNL     1       3.278  -3.404  -2.808  0.00  0.00    -0.041 A 
ATOM      9  C   UNL     1       4.484  -3.034  -3.390  0.00  0.00    +0.042 A 
ATOM     10  C   UNL     1       4.972  -1.751  -3.236  0.00  0.00    +0.124 A 
ATOM     11  C   UNL     1       4.254  -0.827  -2.495  0.00  0.00    +0.038 A 
ATOM     12  C   UNL     1       3.057  -1.194  -1.919  0.00  0.00    +0.007 A 
ATOM     13  C   UNL     1       2.563  -2.483  -2.075  0.00  0.00    -0.039 A 
ATOM     14  C   UNL     1       1.246  -2.813  -1.423  0.00  0.00    +0.044 C 
ATOM     15  F   UNL     1       6.146  -1.399  -3.806  0.00  0.00    -0.205 F 
BRANCH  14  16
ATOM     16  C   UNL     1       1.210  -2.202  -0.021  0.00  0.00    +0.046 C 
BRANCH  16  17
ATOM     17  C   UNL     1      -0.160  -2.393   0.576  0.00  0.00    -0.029 A 
ATOM     18  C   UNL     1      -1.184  -1.506   0.282  0.00  0.00    +0.006 A 
ATOM     19  C   UNL     1      -2.429  -1.721   0.855  0.00  0.00    +0.020 A 
ATOM     20  C   UNL     1      -2.606  -2.805   1.693  0.00  0.00    +0.111 A 
ATOM     21  N   UNL     1      -1.609  -3.629   1.950  0.00  0.00    -0.263 NA
ATOM     22  C   UNL     1      -0.412  -3.455   1.423  0.00  0.00    +0.114 A 
ENDBRANCH  16  17
ENDBRANCH  14  16
ENDBRANCH   3   5
BRANCH   1  23
ATOM     23  C   UNL     1       2.729  -6.592   1.280  0.00  0.00    +0.019 C 
BRANCH  23  27
ATOM     24  C   UNL     1       3.010 -10.062   2.422  0.00  0.00    +0.058 C 
ATOM     25  C   UNL     1       1.815 -10.166   1.447  0.00  0.00    +0.002 C 
ATOM     26  C   UNL     1       1.825  -8.787   0.740  0.00  0.00    -0.076 C 
ATOM     27  N   UNL     1       2.205  -7.850   1.828  0.00  0.00    +0.387 N 
ATOM     28  C   UNL     1       3.236  -8.552   2.623  0.00  0.00    -0.056 C 
ATOM     29  H   UNL     1       1.340  -7.570   2.447  0.00  0.00    -0.081 HD
BRANCH  24  32
ATOM     30  C   UNL     1       2.931 -12.012   3.881  0.00  0.00    +0.401 C 
ATOM     31  O   UNL     1       3.430 -12.665   2.986  0.00  0.00    -0.226 OA
ATOM     32  N   UNL     1       2.681 -10.701   3.699  0.00  0.00    -0.280 N 
ATOM     33  H   UNL     1       2.229 -10.109   4.510  0.00  0.00    +0.152 HD
BRANCH  30  34
ATOM     34  O   UNL     1       2.629 -12.599   5.055  0.00  0.00    -0.445 OA
BRANCH  34  36
ATOM     35  C   UNL     1       4.426 -14.240   4.982  0.00  0.00    +0.055 C 
ATOM     36  C   UNL     1       2.926 -14.015   5.180  0.00  0.00    +0.107 C 
ATOM     37  C   UNL     1       2.516 -14.501   6.571  0.00  0.00    +0.055 C 
ATOM     38  C   UNL     1       2.149 -14.795   4.117  0.00  0.00    +0.055 C 
ENDBRANCH  34  36
ENDBRANCH  30  34
ENDBRANCH  24  32
ENDBRANCH  23  27
ENDBRANCH   1  23
TORSDOF 8
