REMARK  Name = ZINC04235383
REMARK  8 active torsions:
REMARK  status: ('A' for Active; 'I' for Inactive)
REMARK    1  A    between atoms: C_3  and  C_33
REMARK    2  A    between atoms: C_5  and  N_7
REMARK    3  A    between atoms: C_8  and  O_10
REMARK    4  A    between atoms: O_10  and  C_11
REMARK    5  A    between atoms: C_21  and  N_23
REMARK    6  A    between atoms: N_23  and  C_24
REMARK    7  A    between atoms: C_24  and  N_26
REMARK    8  A    between atoms: N_26  and  C_27
REMARK                            x       y       z     vdW  Elec       q    Type
REMARK                         _______ _______ _______ _____ _____    ______ ____
ROOT
ATOM      1  C   UNL     1      -1.141  -4.786   0.293  0.00  0.00    +0.235 C 
ATOM      2  C   UNL     1      -1.501  -5.030   1.774  0.00  0.00    +0.207 C 
ATOM      3  O   UNL     1      -2.097  -6.329   1.864  0.00  0.00    -0.368 OA
ATOM      4  C   UNL     1      -2.148  -6.948   0.571  0.00  0.00    +0.173 C 
ATOM      5  C   UNL     1      -1.052  -6.223  -0.278  0.00  0.00    +0.192 C 
ATOM      6  O   UNL     1       0.176  -6.826   0.168  0.00  0.00    -0.368 OA
ATOM      7  C   UNL     1      -0.077  -8.225   0.365  0.00  0.00    +0.185 C 
ATOM      8  C   UNL     1      -1.597  -8.388   0.688  0.00  0.00    +0.129 C 
ENDROOT
BRANCH   8   9
ATOM      9  N   UNL     1      -2.235  -9.261  -0.299  0.00  0.00    -0.319 N 
ATOM     10  H   UNL     1      -2.605  -8.885  -1.113  0.00  0.00    +0.148 HD
BRANCH   9  11
ATOM     11  C   UNL     1      -2.309 -10.589  -0.077  0.00  0.00    +0.131 C 
ATOM     12  S   UNL     1      -1.656 -11.253   1.360  0.00  0.00    -0.019 S 
BRANCH  11  13
ATOM     13  N   UNL     1      -2.896 -11.393  -0.985  0.00  0.00    -0.324 N 
ATOM     14  H   UNL     1      -3.266 -11.016  -1.799  0.00  0.00    +0.148 HD
BRANCH  13  15
ATOM     15  C   UNL     1      -2.976 -12.835  -0.743  0.00  0.00    +0.072 C 
ATOM     16  C   UNL     1      -1.680 -13.503  -1.207  0.00  0.00    +0.022 C 
ATOM     17  C   UNL     1      -1.764 -15.010  -0.954  0.00  0.00    +0.002 C 
ATOM     18  C   UNL     1      -2.945 -15.593  -1.733  0.00  0.00    +0.000 C 
ATOM     19  C   UNL     1      -4.241 -14.925  -1.269  0.00  0.00    +0.002 C 
ATOM     20  C   UNL     1      -4.157 -13.418  -1.522  0.00  0.00    +0.022 C 
ENDBRANCH  13  15
ENDBRANCH  11  13
ENDBRANCH   9  11
ENDBRANCH   8   9
BRANCH   1  21
ATOM     21  O   UNL     1       0.116  -4.116   0.181  0.00  0.00    -0.442 OA
BRANCH  21  23
ATOM     22  N   UNL     1       1.237  -2.080  -0.022  0.00  0.00    -0.251 N 
ATOM     23  C   UNL     1       0.087  -2.773   0.087  0.00  0.00    +0.405 C 
ATOM     24  O   UNL     1      -0.977  -2.186   0.101  0.00  0.00    -0.226 OA
ATOM     25  H   UNL     1       2.081  -2.551  -0.111  0.00  0.00    +0.158 HD
BRANCH  22  30
ATOM     26  C   UNL     1       2.115   1.418  -0.739  0.00  0.00    +0.002 A 
ATOM     27  C   UNL     1       1.173   2.086   0.023  0.00  0.00    +0.012 A 
ATOM     28  C   UNL     1       0.252   1.374   0.769  0.00  0.00    +0.057 A 
ATOM     29  C   UNL     1       0.271  -0.008   0.756  0.00  0.00    +0.035 A 
ATOM     30  C   UNL     1       1.216  -0.681  -0.007  0.00  0.00    +0.037 A 
ATOM     31  C   UNL     1       2.139   0.038  -0.756  0.00  0.00    +0.023 A 
BRANCH  28  32
ATOM     32  C   UNL     1      -0.773   2.105   1.597  0.00  0.00    +0.417 C 
ATOM     33  F   UNL     1      -0.593   3.485   1.449  0.00  0.00    -0.166 F 
ATOM     34  F   UNL     1      -2.057   1.753   1.167  0.00  0.00    -0.166 F 
ATOM     35  F   UNL     1      -0.620   1.756   2.943  0.00  0.00    -0.166 F 
ENDBRANCH  28  32
ENDBRANCH  22  30
ENDBRANCH  21  23
ENDBRANCH   1  21
TORSDOF 8
