REMARK  Name = ZINC39678226
REMARK  9 active torsions:
REMARK  status: ('A' for Active; 'I' for Inactive)
REMARK    1  A    between atoms: C_1  and  C_2
REMARK    2  A    between atoms: C_2  and  C_3
REMARK    3  A    between atoms: C_3  and  C_4
REMARK    4  A    between atoms: C_4  and  C_6
REMARK    5  A    between atoms: C_4  and  C_7
REMARK    6  A    between atoms: C_11  and  C_20
REMARK    7  A    between atoms: N_22  and  C_23
REMARK    8  A    between atoms: C_23  and  C_24
REMARK    9  A    between atoms: C_29  and  N_30
REMARK                            x       y       z     vdW  Elec       q    Type
REMARK                         _______ _______ _______ _____ _____    ______ ____
ROOT
ATOM      1  C   UNL     1       0.771  -1.791  -2.927  0.00  0.00    +0.218 C 
ATOM      2  O   UNL     1       0.117  -1.289  -2.038  0.00  0.00    -0.275 OA
ATOM      3  N   UNL     1       0.758  -3.127  -3.101  0.00  0.00    -0.300 N 
ATOM      4  C   UNL     1      -0.061  -4.129  -2.379  0.00  0.00    +0.121 C 
ATOM      5  C   UNL     1      -0.478  -5.147  -3.464  0.00  0.00    +0.100 C 
ATOM      6  C   UNL     1       0.591  -5.011  -4.561  0.00  0.00    -0.004 C 
ATOM      7  C   UNL     1       1.556  -3.927  -4.061  0.00  0.00    +0.115 C 
ATOM      8  C   UNL     1       1.330  -6.333  -4.746  0.00  0.00    -0.010 C 
ATOM      9  C   UNL     1       2.347  -6.190  -5.881  0.00  0.00    -0.082 C 
ATOM     10  N   UNL     1       1.652  -5.818  -7.120  0.00  0.00    +0.379 N 
ATOM     11  C   UNL     1       1.022  -4.501  -6.963  0.00  0.00    -0.082 C 
ATOM     12  C   UNL     1      -0.052  -4.574  -5.874  0.00  0.00    -0.010 C 
ATOM     13  H   UNL     1       2.316  -5.783  -7.879  0.00  0.00    -0.086 HD
ATOM     14  H   UNL     1       0.944  -6.506  -7.326  0.00  0.00    -0.086 HD
ENDROOT
BRANCH   5  15
ATOM     15  C   UNL     1      -1.840  -4.804  -4.010  0.00  0.00    +0.218 C 
ATOM     16  O   UNL     1      -2.218  -3.652  -4.016  0.00  0.00    -0.275 OA
ATOM     17  N   UNL     1      -2.638  -5.778  -4.491  0.00  0.00    -0.311 N 
ATOM     18  H   UNL     1      -2.366  -6.706  -4.422  0.00  0.00    +0.149 HD
BRANCH  17  19
ATOM     19  C   UNL     1      -3.916  -5.434  -5.119  0.00  0.00    +0.141 C 
BRANCH  19  20
ATOM     20  C   UNL     1      -4.664  -6.697  -5.461  0.00  0.00    -0.009 A 
ATOM     21  C   UNL     1      -4.670  -7.165  -6.761  0.00  0.00    +0.007 A 
ATOM     22  C   UNL     1      -5.356  -8.324  -7.076  0.00  0.00    +0.000 A 
ATOM     23  C   UNL     1      -6.037  -9.017  -6.092  0.00  0.00    +0.002 A 
ATOM     24  C   UNL     1      -6.034  -8.555  -4.791  0.00  0.00    +0.023 A 
ATOM     25  C   UNL     1      -5.342  -7.394  -4.470  0.00  0.00    +0.034 A 
BRANCH  25  26
ATOM     26  N   UNL     1      -5.332  -6.926  -3.154  0.00  0.00    -0.330 N 
ATOM     27  C   UNL     1      -6.359  -5.984  -2.687  0.00  0.00    +0.105 C 
ATOM     28  C   UNL     1      -7.015  -6.556  -1.426  0.00  0.00    +0.019 C 
ATOM     29  C   UNL     1      -5.934  -6.871  -0.390  0.00  0.00    +0.003 C 
ATOM     30  C   UNL     1      -4.975  -7.922  -0.955  0.00  0.00    +0.019 C 
ATOM     31  C   UNL     1      -4.299  -7.371  -2.208  0.00  0.00    +0.105 C 
ENDBRANCH  25  26
ENDBRANCH  19  20
ENDBRANCH  17  19
ENDBRANCH   5  15
BRANCH   1  32
ATOM     32  C   UNL     1       1.598  -0.921  -3.838  0.00  0.00    +0.072 C 
ATOM     33  C   UNL     1       3.018  -0.804  -3.281  0.00  0.00    +0.017 C 
BRANCH  32  34
ATOM     34  C   UNL     1       0.968   0.471  -3.925  0.00  0.00    +0.012 C 
BRANCH  34  36
ATOM     35  C   UNL     1       1.108   2.709  -5.027  0.00  0.00    +0.004 C 
ATOM     36  C   UNL     1       1.725   1.311  -4.955  0.00  0.00    -0.003 C 
ENDBRANCH  34  36
ENDBRANCH  32  34
ENDBRANCH   1  32
TORSDOF 7
