REMARK  Name = ZINC33129155
REMARK  9 active torsions:
REMARK  status: ('A' for Active; 'I' for Inactive)
REMARK    1  A    between atoms: C_1  and  C_2
REMARK    2  A    between atoms: C_4  and  C_35
REMARK    3  A    between atoms: C_5  and  S_9
REMARK    4  A    between atoms: C_7  and  C_8
REMARK    5  A    between atoms: S_9  and  N_12
REMARK    6  A    between atoms: N_12  and  C_13
REMARK    7  A    between atoms: C_15  and  C_25
REMARK    8  A    between atoms: C_18  and  N_19
REMARK    9  A    between atoms: N_27  and  C_28
REMARK                            x       y       z     vdW  Elec       q    Type
REMARK                         _______ _______ _______ _____ _____    ______ ____
ROOT
ATOM      1  C   UNL     1      -1.344   1.893   0.155  0.00  0.00    +0.089 A 
ATOM      2  C   UNL     1      -0.074   1.343   0.192  0.00  0.00    +0.042 A 
ATOM      3  C   UNL     1       1.023   2.207   0.324  0.00  0.00    +0.057 A 
ATOM      4  C   UNL     1       0.797   3.581   0.420  0.00  0.00    +0.126 A 
ATOM      5  N   UNL     1      -0.427   4.066   0.387  0.00  0.00    -0.238 NA
ATOM      6  C   UNL     1      -1.487   3.282   0.264  0.00  0.00    +0.144 A 
ENDROOT
BRANCH   6   7
ATOM      7  N   UNL     1      -2.755   3.844   0.234  0.00  0.00    -0.317 N 
ATOM      8  C   UNL     1      -3.609   3.272   1.285  0.00  0.00    +0.087 C 
ATOM      9  C   UNL     1      -5.018   3.858   1.169  0.00  0.00    -0.063 C 
ATOM     10  N   UNL     1      -4.948   5.321   1.288  0.00  0.00    +0.381 N 
ATOM     11  C   UNL     1      -4.095   5.893   0.238  0.00  0.00    -0.063 C 
ATOM     12  C   UNL     1      -2.685   5.306   0.354  0.00  0.00    +0.087 C 
ATOM     13  H   UNL     1      -5.959   5.745   1.193  0.00  0.00    -0.086 HD
ATOM     14  H   UNL     1      -4.529   5.589   2.270  0.00  0.00    -0.086 HD
ENDBRANCH   6   7
BRANCH   3  15
ATOM     15  C   UNL     1       2.397   1.671   0.361  0.00  0.00    +0.246 C 
ATOM     16  O   UNL     1       2.585   0.473   0.277  0.00  0.00    -0.270 OA
ATOM     17  N   UNL     1       3.445   2.510   0.488  0.00  0.00    -0.308 N 
ATOM     18  H   UNL     1       3.275   3.594   0.565  0.00  0.00    +0.149 HD
BRANCH  17  19
ATOM     19  C   UNL     1       4.809   1.978   0.525  0.00  0.00    +0.073 C 
ATOM     20  C   UNL     1       5.132   1.531   1.966  0.00  0.00    +0.022 C 
ATOM     21  C   UNL     1       6.272   0.549   1.916  0.00  0.00    +0.002 C 
ATOM     22  C   UNL     1       7.640   1.226   2.126  0.00  0.00    +0.000 C 
ATOM     23  C   UNL     1       7.767   2.564   1.373  0.00  0.00    +0.000 C 
ATOM     24  C   UNL     1       7.185   2.501  -0.013  0.00  0.00    +0.002 C 
ATOM     25  C   UNL     1       5.727   3.001   0.045  0.00  0.00    +0.022 C 
ENDBRANCH  17  19
ENDBRANCH   3  15
BRANCH   1  26
ATOM     26  N   UNL     1      -2.470   1.072   0.019  0.00  0.00    -0.213 N 
ATOM     27  H   UNL     1      -3.338   1.422  -0.559  0.00  0.00    +0.174 HD
BRANCH  26  28
ATOM     28  S   UNL     1      -2.494  -0.424   0.727  0.00  0.00    +0.073 S 
ATOM     29  O   UNL     1      -3.783  -0.970   0.480  0.00  0.00    -0.150 OA
ATOM     30  O   UNL     1      -1.300  -1.082   0.328  0.00  0.00    -0.150 OA
BRANCH  28  35
ATOM     31  C   UNL     1      -2.089   0.416   6.688  0.00  0.00    +0.044 C 
ATOM     32  C   UNL     1      -2.190   0.206   5.199  0.00  0.00    -0.047 A 
ATOM     33  C   UNL     1      -2.555  -1.030   4.699  0.00  0.00    +0.009 A 
ATOM     34  C   UNL     1      -2.648  -1.222   3.333  0.00  0.00    -0.024 A 
ATOM     35  C   UNL     1      -2.376  -0.179   2.468  0.00  0.00    +0.112 A 
ATOM     36  C   UNL     1      -2.006   1.056   2.968  0.00  0.00    +0.032 A 
ATOM     37  C   UNL     1      -1.918   1.249   4.335  0.00  0.00    -0.046 A 
ATOM     38  C   UNL     1      -1.520   2.597   4.880  0.00  0.00    +0.044 C 
ATOM     39  C   UNL     1      -3.045  -2.570   2.788  0.00  0.00    +0.046 C 
ENDBRANCH  28  35
ENDBRANCH  26  28
ENDBRANCH   1  26
TORSDOF 6
