REMARK  Name = ZINC08705907
REMARK  5 active torsions:
REMARK  status: ('A' for Active; 'I' for Inactive)
REMARK    1  A    between atoms: C_1  and  C_2
REMARK    2  A    between atoms: C_9  and  C_11
REMARK    3  A    between atoms: C_11  and  S_12
REMARK    4  A    between atoms: S_12  and  C_13
REMARK    5  A    between atoms: C_17  and  N_19
REMARK                            x       y       z     vdW  Elec       q    Type
REMARK                         _______ _______ _______ _____ _____    ______ ____
ROOT
ATOM      1  S   UNL     1       1.651  -1.313  -5.414  0.00  0.00    -0.080 S 
ENDROOT
BRANCH   1   2
ATOM      2  C   UNL     1       1.336  -1.283  -7.148  0.00  0.00    +0.192 A 
ATOM      3  N   UNL     1       0.082  -1.296  -7.577  0.00  0.00    -0.207 NA
ATOM      4  C   UNL     1      -0.193  -1.269  -8.879  0.00  0.00    +0.122 A 
ATOM      5  C   UNL     1       0.857  -1.237  -9.792  0.00  0.00    +0.086 A 
ATOM      6  C   UNL     1       2.160  -1.230  -9.305  0.00  0.00    +0.122 A 
ATOM      7  N   UNL     1       2.360  -1.253  -7.989  0.00  0.00    -0.207 NA
ATOM      8  N   UNL     1      -1.507  -1.277  -9.319  0.00  0.00    -0.343 N 
ATOM      9  H   UNL     1      -1.701  -1.261 -10.269  0.00  0.00    +0.144 HD
ATOM     10  H   UNL     1      -2.234  -1.300  -8.676  0.00  0.00    +0.144 HD
BRANCH   6  11
ATOM     11  N   UNL     1       3.236  -1.198 -10.178  0.00  0.00    -0.343 N 
ATOM     12  H   UNL     1       4.142  -1.192  -9.831  0.00  0.00    +0.144 HD
ATOM     13  H   UNL     1       3.084  -1.181 -11.135  0.00  0.00    +0.144 HD
ENDBRANCH   6  11
ENDBRANCH   1   2
BRANCH   1  14
ATOM     14  C   UNL     1      -0.047  -1.347  -4.788  0.00  0.00    +0.134 C 
BRANCH  14  23
ATOM     15  C   UNL     1      -0.018   1.503   0.010  0.00  0.00    +0.047 C 
ATOM     16  C   UNL     1       0.002  -0.004   0.002  0.00  0.00    -0.008 A 
ATOM     17  C   UNL     1       0.023  -0.697   1.172  0.00  0.00    +0.008 A 
ATOM     18  C   UNL     1       0.041  -2.102   1.149  0.00  0.00    +0.018 A 
ATOM     19  C   UNL     1       0.038  -2.763  -0.028  0.00  0.00    +0.093 A 
ATOM     20  N   UNL     1       0.018  -2.080  -1.209  0.00  0.00    -0.306 N 
ATOM     21  C   UNL     1      -0.006  -0.709  -1.218  0.00  0.00    +0.141 A 
ATOM     22  N   UNL     1      -0.029  -0.308  -2.481  0.00  0.00    -0.232 NA
ATOM     23  C   UNL     1      -0.026  -1.377  -3.281  0.00  0.00    +0.070 A 
ATOM     24  C   UNL     1       0.011  -2.489  -2.515  0.00  0.00    +0.116 A 
ENDBRANCH  14  23
ENDBRANCH   1  14
TORSDOF 4
