REMARK  Name = ZINC48844186
REMARK  5 active torsions:
REMARK  status: ('A' for Active; 'I' for Inactive)
REMARK    1  A    between atoms: C_1  and  N_2
REMARK    2  A    between atoms: N_2  and  C_3
REMARK    3  A    between atoms: C_8  and  C_9
REMARK    4  A    between atoms: N_14  and  C_15
REMARK    5  A    between atoms: C_21  and  N_23
REMARK                            x       y       z     vdW  Elec       q    Type
REMARK                         _______ _______ _______ _____ _____    ______ ____
ROOT
ATOM      1  C   UNL     1      -0.018   1.461   0.010  0.00  0.00    +0.140 C 
ATOM      2  N   UNL     1       0.002  -0.004   0.002  0.00  0.00    -0.258 N 
ATOM      3  C   UNL     1       0.000  -0.672  -1.169  0.00  0.00    +0.306 C 
ATOM      4  O   UNL     1       0.017  -1.887  -1.175  0.00  0.00    -0.252 OA
ATOM      5  N   UNL     1      -0.020   0.009  -2.332  0.00  0.00    -0.298 N 
ATOM      6  H   UNL     1      -0.033   0.978  -2.327  0.00  0.00    +0.150 HD
ENDROOT
BRANCH   2   7
ATOM      7  C   UNL     1       0.023  -0.706   1.203  0.00  0.00    +0.052 A 
ATOM      8  C   UNL     1      -1.167  -1.080   1.814  0.00  0.00    +0.024 A 
ATOM      9  C   UNL     1      -1.144  -1.776   3.005  0.00  0.00    +0.002 A 
ATOM     10  C   UNL     1       0.063  -2.109   3.601  0.00  0.00    +0.001 A 
ATOM     11  C   UNL     1       1.254  -1.747   3.011  0.00  0.00    +0.017 A 
ATOM     12  C   UNL     1       1.248  -1.046   1.801  0.00  0.00    +0.085 A 
BRANCH  12  13
ATOM     13  C   UNL     1       2.516  -0.661   1.162  0.00  0.00    +0.388 C 
ATOM     14  O   UNL     1       3.580  -0.959   1.686  0.00  0.00    -0.241 OA
ATOM     15  O   UNL     1       2.506  -0.043   0.106  0.00  0.00    -0.241 OA
ENDBRANCH  12  13
ENDBRANCH   2   7
BRANCH   5  16
ATOM     16  C   UNL     1      -0.022  -0.717  -3.605  0.00  0.00    +0.060 C 
ATOM     17  C   UNL     1      -1.458  -1.099  -3.972  0.00  0.00    +0.021 C 
ATOM     18  C   UNL     1      -1.460  -1.856  -5.301  0.00  0.00    +0.002 C 
ATOM     19  C   UNL     1      -0.873  -0.965  -6.397  0.00  0.00    -0.001 C 
ATOM     20  C   UNL     1       0.562  -0.584  -6.030  0.00  0.00    -0.014 C 
ATOM     21  C   UNL     1       0.565   0.174  -4.701  0.00  0.00    -0.054 C 
BRANCH  21  22
ATOM     22  N   UNL     1       1.943   0.540  -4.349  0.00  0.00    +0.381 N 
ATOM     23  H   UNL     1       2.501  -0.296  -4.260  0.00  0.00    -0.090 HD
ATOM     24  H   UNL     1       2.330   1.128  -5.072  0.00  0.00    -0.090 HD
ATOM     25  H   UNL     1       1.945   1.040  -3.472  0.00  0.00    -0.090 HD
ENDBRANCH  21  22
ENDBRANCH   5  16
TORSDOF 4
