REMARK  Name = ZINC35729065
REMARK  8 active torsions:
REMARK  status: ('A' for Active; 'I' for Inactive)
REMARK    1  A    between atoms: C_1  and  C_2
REMARK    2  A    between atoms: C_2  and  C_3
REMARK    3  A    between atoms: C_3  and  C_5
REMARK    4  A    between atoms: C_3  and  C_6
REMARK    5  A    between atoms: C_6  and  C_8
REMARK    6  A    between atoms: C_6  and  N_23
REMARK    7  A    between atoms: C_14  and  C_16
REMARK    8  A    between atoms: N_26  and  C_27
REMARK                            x       y       z     vdW  Elec       q    Type
REMARK                         _______ _______ _______ _____ _____    ______ ____
ROOT
ATOM      1  C   UNL     1       2.405  -0.182   1.133  0.00  0.00    +0.163 C 
ENDROOT
BRANCH   1   2
ATOM      2  C   UNL     1       2.781   1.252   1.408  0.00  0.00    +0.239 C 
ATOM      3  O   UNL     1       3.424   1.531   2.398  0.00  0.00    -0.273 OA
ATOM      4  N   UNL     1       2.402   2.223   0.555  0.00  0.00    -0.262 N 
ATOM      5  C   UNL     1       2.836   3.529   0.751  0.00  0.00    +0.188 A 
ATOM      6  N   UNL     1       3.620   4.033   1.695  0.00  0.00    -0.125 NA
ATOM      7  N   UNL     1       3.921   5.258   1.728  0.00  0.00    -0.140 NA
ATOM      8  C   UNL     1       3.469   6.115   0.820  0.00  0.00    +0.134 A 
ATOM      9  S   UNL     1       2.502   5.007  -0.202  0.00  0.00    -0.030 S 
ATOM     10  H   UNL     1       1.826   2.011  -0.197  0.00  0.00    +0.157 HD
BRANCH   8  11
ATOM     11  C   UNL     1       3.703   7.569   0.688  0.00  0.00    +0.009 A 
ATOM     12  C   UNL     1       3.112   8.281  -0.358  0.00  0.00    +0.013 A 
ATOM     13  C   UNL     1       3.333   9.637  -0.477  0.00  0.00    +0.039 A 
ATOM     14  C   UNL     1       4.140  10.293   0.440  0.00  0.00    +0.123 A 
ATOM     15  C   UNL     1       4.729   9.591   1.480  0.00  0.00    +0.039 A 
ATOM     16  C   UNL     1       4.509   8.236   1.611  0.00  0.00    +0.013 A 
ATOM     17  F   UNL     1       4.354  11.621   0.318  0.00  0.00    -0.205 F 
ENDBRANCH   8  11
ENDBRANCH   1   2
BRANCH   1  18
ATOM     18  N   UNL     1       3.071  -1.056   2.102  0.00  0.00    -0.288 N 
ATOM     19  C   UNL     1       3.314  -2.345   1.791  0.00  0.00    +0.304 C 
ATOM     20  O   UNL     1       2.979  -2.782   0.707  0.00  0.00    -0.252 OA
ATOM     21  N   UNL     1       3.927  -3.149   2.683  0.00  0.00    -0.269 N 
ATOM     22  H   UNL     1       3.338  -0.707   2.967  0.00  0.00    +0.151 HD
ATOM     23  H   UNL     1       4.126  -2.822   3.574  0.00  0.00    +0.156 HD
BRANCH  21  24
ATOM     24  C   UNL     1       4.276  -4.455   2.322  0.00  0.00    +0.036 A 
ATOM     25  C   UNL     1       4.674  -4.735   1.021  0.00  0.00    +0.023 A 
ATOM     26  C   UNL     1       5.018  -6.025   0.668  0.00  0.00    +0.003 A 
ATOM     27  C   UNL     1       4.967  -7.038   1.608  0.00  0.00    +0.015 A 
ATOM     28  C   UNL     1       4.570  -6.763   2.904  0.00  0.00    +0.020 A 
ATOM     29  C   UNL     1       4.230  -5.473   3.265  0.00  0.00    +0.038 A 
ATOM     30 BR   UNL     1       4.500  -8.152   4.186  0.00  0.00    -0.050 Br
ENDBRANCH  21  24
ENDBRANCH   1  18
BRANCH   1  31
ATOM     31  C   UNL     1       0.889  -0.344   1.258  0.00  0.00    +0.015 C 
ATOM     32  C   UNL     1       0.469  -0.116   2.712  0.00  0.00    +0.010 C 
BRANCH  31  34
ATOM     33  C   UNL     1       0.803  -1.946  -0.657  0.00  0.00    +0.004 C 
ATOM     34  C   UNL     1       0.490  -1.757   0.828  0.00  0.00    +0.002 C 
ENDBRANCH  31  34
ENDBRANCH   1  31
TORSDOF 6
