REMARK  Name = ZINC37419867
REMARK  3 active torsions:
REMARK  status: ('A' for Active; 'I' for Inactive)
REMARK    1  A    between atoms: C_3  and  N_9
REMARK    2  A    between atoms: C_4  and  N_8
REMARK    3  A    between atoms: N_9  and  C_10
REMARK                            x       y       z     vdW  Elec       q    Type
REMARK                         _______ _______ _______ _____ _____    ______ ____
ROOT
ATOM      1  C   UNL     1      -0.017   1.378   0.010  0.00  0.00    +0.005 A 
ATOM      2  C   UNL     1       1.169   2.090   0.002  0.00  0.00    +0.025 A 
ATOM      3  C   UNL     1       2.382   1.418  -0.013  0.00  0.00    +0.051 A 
ATOM      4  C   UNL     1       2.403   0.024  -0.021  0.00  0.00    +0.081 A 
ATOM      5  C   UNL     1       1.208  -0.683  -0.013  0.00  0.00    +0.146 A 
ATOM      6  C   UNL     1       0.002  -0.004   0.002  0.00  0.00    +0.040 A 
ATOM      7  F   UNL     1       1.223  -2.034  -0.021  0.00  0.00    -0.203 F 
ENDROOT
BRANCH   4   8
ATOM      8  N   UNL     1       3.626  -0.661  -0.036  0.00  0.00    -0.354 N 
ATOM      9  H   UNL     1       4.459  -0.165  -0.042  0.00  0.00    +0.142 HD
ATOM     10  H   UNL     1       3.638  -1.631  -0.042  0.00  0.00    +0.142 HD
ENDBRANCH   4   8
BRANCH   3  11
ATOM     11  N   UNL     1       3.583   2.138  -0.021  0.00  0.00    -0.339 N 
ATOM     12  H   UNL     1       4.431   1.667  -0.032  0.00  0.00    +0.146 HD
BRANCH  11  13
ATOM     13  C   UNL     1       3.559   3.603  -0.013  0.00  0.00    +0.073 C 
ATOM     14  C   UNL     1       3.381   4.110  -1.442  0.00  0.00    +0.045 C 
ATOM     15  C   UNL     1       3.084   5.611  -1.430  0.00  0.00    +0.167 C 
ATOM     16  S   UNL     1       4.515   6.488  -0.732  0.00  0.00    -0.031 S 
ATOM     17  O   UNL     1       4.136   7.831  -0.464  0.00  0.00    -0.174 OA
ATOM     18  O   UNL     1       5.645   6.238  -1.558  0.00  0.00    -0.174 OA
ATOM     19  C   UNL     1       4.751   5.627   0.851  0.00  0.00    +0.167 C 
ATOM     20  C   UNL     1       4.862   4.123   0.585  0.00  0.00    +0.045 C 
ENDBRANCH  11  13
ENDBRANCH   3  11
TORSDOF 3
