REMARK  Name = ZINC59984777
REMARK  6 active torsions:
REMARK  status: ('A' for Active; 'I' for Inactive)
REMARK    1  A    between atoms: C_3  and  N_8
REMARK    2  A    between atoms: N_8  and  S_9
REMARK    3  A    between atoms: S_9  and  C_12
REMARK    4  A    between atoms: C_15  and  N_18
REMARK    5  A    between atoms: C_19  and  C_21
REMARK    6  A    between atoms: C_27  and  C_29
REMARK                            x       y       z     vdW  Elec       q    Type
REMARK                         _______ _______ _______ _____ _____    ______ ____
ROOT
ATOM      1  C   UNL     1       5.434  -0.048   0.581  0.00  0.00    +0.109 A 
ATOM      2  C   UNL     1       6.772  -0.323   0.366  0.00  0.00    +0.030 A 
ATOM      3  C   UNL     1       7.173  -1.606   0.049  0.00  0.00    +0.025 A 
ATOM      4  C   UNL     1       6.230  -2.621  -0.052  0.00  0.00    +0.034 A 
ATOM      5  C   UNL     1       4.888  -2.342   0.165  0.00  0.00    +0.025 A 
ATOM      6  C   UNL     1       4.494  -1.058   0.486  0.00  0.00    +0.030 A 
ENDROOT
BRANCH   4   7
ATOM      7  N   UNL     1       6.633  -3.922  -0.374  0.00  0.00    -0.284 N 
ATOM      8  C   UNL     1       7.656  -4.119  -1.229  0.00  0.00    +0.238 C 
ATOM      9  O   UNL     1       8.283  -3.171  -1.653  0.00  0.00    -0.273 OA
ATOM     10  H   UNL     1       6.177  -4.682   0.019  0.00  0.00    +0.155 HD
BRANCH   8  11
ATOM     11  C   UNL     1       8.021  -5.516  -1.659  0.00  0.00    +0.162 C 
ATOM     12  C   UNL     1       8.448  -6.348  -0.431  0.00  0.00    +0.033 C 
ATOM     13  C   UNL     1       9.621  -7.202  -0.981  0.00  0.00    +0.021 C 
ATOM     14  C   UNL     1      10.288  -6.214  -1.970  0.00  0.00    +0.108 C 
ATOM     15  N   UNL     1       9.165  -5.473  -2.581  0.00  0.00    -0.290 N 
ATOM     16  C   UNL     1       9.184  -4.861  -3.781  0.00  0.00    +0.219 C 
ATOM     17  O   UNL     1       8.197  -4.281  -4.181  0.00  0.00    -0.275 OA
BRANCH  16  18
ATOM     18  C   UNL     1      10.431  -4.897  -4.626  0.00  0.00    +0.075 C 
ATOM     19  C   UNL     1      11.585  -4.246  -3.861  0.00  0.00    +0.013 C 
ATOM     20  C   UNL     1      12.851  -4.282  -4.718  0.00  0.00    +0.001 C 
ATOM     21  C   UNL     1      12.607  -3.518  -6.021  0.00  0.00    +0.000 C 
ATOM     22  C   UNL     1      11.454  -4.169  -6.786  0.00  0.00    +0.001 C 
ATOM     23  C   UNL     1      10.187  -4.132  -5.928  0.00  0.00    +0.013 C 
ENDBRANCH  16  18
ENDBRANCH   8  11
ENDBRANCH   4   7
BRANCH   1  24
ATOM     24  S   UNL     1       4.926   1.590   0.985  0.00  0.00    +0.072 S 
ATOM     25  O   UNL     1       3.532   1.660   0.721  0.00  0.00    -0.150 OA
ATOM     26  O   UNL     1       5.862   2.467   0.375  0.00  0.00    -0.150 OA
BRANCH  24  27
ATOM     27  N   UNL     1       5.107   1.769   2.622  0.00  0.00    -0.216 N 
ATOM     28  H   UNL     1       5.717   2.437   2.972  0.00  0.00    +0.174 HD
BRANCH  27  31
ATOM     29  C   UNL     1       4.298  -0.446   5.441  0.00  0.00    +0.005 A 
ATOM     30  C   UNL     1       5.017   0.355   4.575  0.00  0.00    +0.024 A 
ATOM     31  C   UNL     1       4.382   0.959   3.497  0.00  0.00    +0.051 A 
ATOM     32  C   UNL     1       3.023   0.754   3.292  0.00  0.00    +0.062 A 
ATOM     33  C   UNL     1       2.308  -0.049   4.162  0.00  0.00    +0.125 A 
ATOM     34  C   UNL     1       2.946  -0.648   5.236  0.00  0.00    +0.038 A 
ATOM     35  F   UNL     1       0.986  -0.249   3.965  0.00  0.00    -0.205 F 
ENDBRANCH  27  31
ENDBRANCH  24  27
ENDBRANCH   1  24
TORSDOF 6
