REMARK  Name = ZINC08979930
REMARK  5 active torsions:
REMARK  status: ('A' for Active; 'I' for Inactive)
REMARK    1  A    between atoms: C_1  and  C_2
REMARK    2  A    between atoms: C_6  and  N_8
REMARK    3  A    between atoms: C_14  and  C_17
REMARK    4  A    between atoms: N_22  and  C_25
REMARK    5  A    between atoms: C_29  and  C_31
REMARK                            x       y       z     vdW  Elec       q    Type
REMARK                         _______ _______ _______ _____ _____    ______ ____
ROOT
ATOM      1  N   UNL     1      -2.512   0.862   1.166  0.00  0.00    -0.269 N 
ATOM      2  C   UNL     1      -2.482  -0.426   0.770  0.00  0.00    +0.310 C 
ATOM      3  O   UNL     1      -1.416  -0.970   0.551  0.00  0.00    -0.252 OA
ATOM      4  N   UNL     1      -3.632  -1.111   0.617  0.00  0.00    -0.248 N 
ATOM      5  C   UNL     1      -3.601  -2.438   0.209  0.00  0.00    +0.166 A 
ATOM      6  N   UNL     1      -4.603  -3.269   0.010  0.00  0.00    -0.220 NA
ATOM      7  C   UNL     1      -4.358  -4.519  -0.390  0.00  0.00    +0.135 A 
ATOM      8  C   UNL     1      -3.060  -4.915  -0.575  0.00  0.00    +0.081 A 
ATOM      9  S   UNL     1      -2.192  -3.465  -0.174  0.00  0.00    -0.060 S 
ATOM     10  H   UNL     1      -3.356   1.277   1.404  0.00  0.00    +0.156 HD
ATOM     11  H   UNL     1      -4.482  -0.677   0.791  0.00  0.00    +0.158 HD
ENDROOT
BRANCH   7  12
ATOM     12  C   UNL     1      -5.466  -5.460  -0.624  0.00  0.00    +0.266 C 
ATOM     13  O   UNL     1      -5.243  -6.652  -0.715  0.00  0.00    -0.268 OA
ATOM     14  N   UNL     1      -6.728  -5.000  -0.737  0.00  0.00    -0.293 N 
ATOM     15  C   UNL     1      -7.020  -3.562  -0.627  0.00  0.00    +0.127 C 
ATOM     16  C   UNL     1      -7.861  -3.147  -1.845  0.00  0.00    +0.124 C 
ATOM     17  N   UNL     1      -9.043  -4.015  -1.936  0.00  0.00    -0.327 N 
ATOM     18  C   UNL     1      -8.659  -5.415  -2.166  0.00  0.00    +0.124 C 
ATOM     19  C   UNL     1      -7.850  -5.922  -0.967  0.00  0.00    +0.127 C 
BRANCH  17  20
ATOM     20  C   UNL     1      -9.918  -3.567  -2.928  0.00  0.00    +0.030 A 
ATOM     21  C   UNL     1     -10.303  -4.420  -3.955  0.00  0.00    +0.023 A 
ATOM     22  C   UNL     1     -11.171  -3.975  -4.931  0.00  0.00    +0.002 A 
ATOM     23  C   UNL     1     -11.650  -2.678  -4.894  0.00  0.00    +0.012 A 
ATOM     24  C   UNL     1     -11.266  -1.825  -3.876  0.00  0.00    +0.057 A 
ATOM     25  C   UNL     1     -10.401  -2.265  -2.893  0.00  0.00    +0.035 A 
BRANCH  24  26
ATOM     26  C   UNL     1     -11.790  -0.413  -3.840  0.00  0.00    +0.417 C 
ATOM     27  F   UNL     1     -10.926   0.425  -4.553  0.00  0.00    -0.166 F 
ATOM     28  F   UNL     1     -13.063  -0.373  -4.420  0.00  0.00    -0.166 F 
ATOM     29  F   UNL     1     -11.870   0.021  -2.512  0.00  0.00    -0.166 F 
ENDBRANCH  24  26
ENDBRANCH  17  20
ENDBRANCH   7  12
BRANCH   1  35
ATOM     30  C   UNL     1       0.158   4.396   3.302  0.00  0.00    +0.044 C 
ATOM     31  C   UNL     1      -0.005   3.320   2.259  0.00  0.00    -0.049 A 
ATOM     32  C   UNL     1       1.018   3.067   1.363  0.00  0.00    +0.003 A 
ATOM     33  C   UNL     1       0.873   2.081   0.404  0.00  0.00    +0.002 A 
ATOM     34  C   UNL     1      -0.295   1.346   0.338  0.00  0.00    +0.023 A 
ATOM     35  C   UNL     1      -1.325   1.602   1.233  0.00  0.00    +0.035 A 
ATOM     36  C   UNL     1      -1.175   2.589   2.198  0.00  0.00    +0.026 A 
ENDBRANCH   1  35
TORSDOF 4
