REMARK  Name = ZINC16363895
REMARK  10 active torsions:
REMARK  status: ('A' for Active; 'I' for Inactive)
REMARK    1  A    between atoms: C_1  and  N_2
REMARK    2  A    between atoms: C_6  and  C_13
REMARK    3  A    between atoms: N_9  and  C_12
REMARK    4  A    between atoms: C_13  and  C_15
REMARK    5  A    between atoms: C_13  and  O_34
REMARK    6  A    between atoms: C_15  and  O_16
REMARK    7  A    between atoms: O_16  and  C_17
REMARK    8  A    between atoms: C_20  and  C_23
REMARK    9  A    between atoms: C_23  and  N_68
REMARK   10  A    between atoms: C_24  and  N_68
REMARK                            x       y       z     vdW  Elec       q    Type
REMARK                         _______ _______ _______ _____ _____    ______ ____
ROOT
ATOM      1  C   UNL     1       3.257   2.524   7.009  0.00  0.00    +0.121 A 
ATOM      2  C   UNL     1       3.869   3.432   6.158  0.00  0.00    +0.046 A 
ATOM      3  C   UNL     1       3.186   3.916   5.059  0.00  0.00    +0.005 A 
ATOM      4  C   UNL     1       1.893   3.496   4.808  0.00  0.00    -0.064 A 
ATOM      5  C   UNL     1       1.278   2.595   5.658  0.00  0.00    +0.005 A 
ATOM      6  C   UNL     1       1.960   2.104   6.755  0.00  0.00    +0.046 A 
ENDROOT
BRANCH   1   7
ATOM      7  O   UNL     1       3.928   2.046   8.091  0.00  0.00    -0.489 OA
BRANCH   7   8
ATOM      8  C   UNL     1       3.235   1.114   8.923  0.00  0.00    +0.265 C 
BRANCH   8   9
ATOM      9  C   UNL     1       4.143   0.691  10.080  0.00  0.00    +0.182 C 
BRANCH   9  15
ATOM     10  C   UNL     1       0.732  -3.646  14.002  0.00  0.00    +0.154 C 
ATOM     11  N   UNL     1       1.756  -3.531  12.961  0.00  0.00    -0.295 N 
ATOM     12  C   UNL     1       2.199  -2.346  12.380  0.00  0.00    +0.070 A 
ATOM     13  C   UNL     1       1.863  -1.013  12.562  0.00  0.00    +0.028 A 
ATOM     14  C   UNL     1       2.498  -0.036  11.821  0.00  0.00    +0.008 A 
ATOM     15  C   UNL     1       3.460  -0.383  10.888  0.00  0.00    -0.014 A 
ATOM     16  C   UNL     1       3.801  -1.707  10.699  0.00  0.00    +0.034 A 
ATOM     17  C   UNL     1       3.173  -2.695  11.443  0.00  0.00    +0.070 A 
ATOM     18  N   UNL     1       3.292  -4.082  11.483  0.00  0.00    -0.295 N 
ATOM     19  C   UNL     1       2.430  -4.555  12.403  0.00  0.00    +0.330 A 
ATOM     20  O   UNL     1       2.282  -5.729  12.687  0.00  0.00    -0.246 OA
ATOM     21  C   UNL     1       4.200  -4.889  10.665  0.00  0.00    +0.154 C 
ENDBRANCH   9  15
BRANCH   9  22
ATOM     22  O   UNL     1       4.407   1.820  10.915  0.00  0.00    -0.384 OA
ATOM     23  H   UNL     1       3.615   2.216  11.304  0.00  0.00    +0.210 HD
ENDBRANCH   9  22
ENDBRANCH   8   9
ENDBRANCH   7   8
ENDBRANCH   1   7
BRANCH   4  24
ATOM     24  C   UNL     1       1.149   4.026   3.609  0.00  0.00    -0.046 C 
BRANCH  24  25
ATOM     25  N   UNL     1       1.402   3.143   2.455  0.00  0.00    +0.384 N 
ATOM     26  H   UNL     1       1.077   2.195   2.676  0.00  0.00    -0.085 HD
ATOM     27  H   UNL     1       2.410   3.122   2.259  0.00  0.00    -0.085 HD
BRANCH  25  28
ATOM     28  C   UNL     1       0.686   3.639   1.264  0.00  0.00    -0.065 C 
ATOM     29  C   UNL     1       1.402   3.145   0.006  0.00  0.00    -0.024 C 
ATOM     30  C   UNL     1       1.423   1.615  -0.003  0.00  0.00    +0.005 C 
ATOM     31  C   UNL     1      -0.013   1.086   0.008  0.00  0.00    -0.010 C 
ATOM     32  C   UNL     1      -0.753   1.593  -1.232  0.00  0.00    +0.007 C 
ATOM     33  C   UNL     1      -0.773   3.123  -1.223  0.00  0.00    -0.010 C 
ATOM     34  C   UNL     1       0.662   3.652  -1.234  0.00  0.00    +0.005 C 
ATOM     35  C   UNL     1      -1.490   3.616   0.036  0.00  0.00    +0.005 C 
ATOM     36  C   UNL     1      -0.750   3.109   1.275  0.00  0.00    -0.024 C 
ATOM     37  C   UNL     1      -0.729   1.579   1.267  0.00  0.00    +0.005 C 
ENDBRANCH  25  28
ENDBRANCH  24  25
ENDBRANCH   4  24
TORSDOF 8
