REMARK  Name = ZINC39665744
REMARK  12 active torsions:
REMARK  status: ('A' for Active; 'I' for Inactive)
REMARK    1  A    between atoms: C_1  and  C_2
REMARK    2  A    between atoms: C_2  and  C_3
REMARK    3  A    between atoms: C_3  and  C_5
REMARK    4  A    between atoms: C_3  and  C_11
REMARK    5  A    between atoms: C_15  and  C_24
REMARK    6  A    between atoms: N_26  and  C_27
REMARK    7  A    between atoms: C_27  and  C_28
REMARK    8  A    between atoms: C_28  and  C_30
REMARK    9  A    between atoms: C_28  and  O_31
REMARK   10  A    between atoms: O_31  and  C_32
REMARK   11  A    between atoms: C_35  and  O_38
REMARK   12  A    between atoms: O_38  and  C_39
REMARK                            x       y       z     vdW  Elec       q    Type
REMARK                         _______ _______ _______ _____ _____    ______ ____
ROOT
ATOM      1  C   UNL     1      -1.406  -1.983   0.121  0.00  0.00    +0.223 C 
ATOM      2  O   UNL     1      -1.913  -2.657  -0.750  0.00  0.00    -0.275 OA
ATOM      3  N   UNL     1      -0.842  -2.577   1.192  0.00  0.00    -0.300 N 
ATOM      4  C   UNL     1      -0.186  -1.927   2.351  0.00  0.00    +0.121 C 
ATOM      5  C   UNL     1      -0.629  -2.764   3.571  0.00  0.00    +0.100 C 
ATOM      6  C   UNL     1      -0.988  -4.143   2.991  0.00  0.00    -0.004 C 
ATOM      7  C   UNL     1      -0.744  -4.028   1.479  0.00  0.00    +0.115 C 
ATOM      8  C   UNL     1      -0.090  -5.220   3.592  0.00  0.00    -0.010 C 
ATOM      9  C   UNL     1      -0.505  -6.588   3.044  0.00  0.00    -0.082 C 
ATOM     10  N   UNL     1      -1.909  -6.848   3.383  0.00  0.00    +0.379 N 
ATOM     11  C   UNL     1      -2.774  -5.862   2.725  0.00  0.00    -0.082 C 
ATOM     12  C   UNL     1      -2.456  -4.463   3.260  0.00  0.00    -0.010 C 
ATOM     13  H   UNL     1      -2.162  -7.775   3.075  0.00  0.00    -0.086 HD
ATOM     14  H   UNL     1      -2.029  -6.785   4.383  0.00  0.00    -0.086 HD
ENDROOT
BRANCH   5  15
ATOM     15  C   UNL     1       0.501  -2.888   4.561  0.00  0.00    +0.218 C 
ATOM     16  O   UNL     1       1.646  -2.958   4.168  0.00  0.00    -0.275 OA
ATOM     17  N   UNL     1       0.238  -2.920   5.882  0.00  0.00    -0.312 N 
ATOM     18  H   UNL     1      -0.678  -2.863   6.196  0.00  0.00    +0.149 HD
BRANCH  17  19
ATOM     19  C   UNL     1       1.336  -3.039   6.845  0.00  0.00    +0.148 C 
BRANCH  19  20
ATOM     20  C   UNL     1       0.770  -3.052   8.266  0.00  0.00    +0.187 C 
ATOM     21  C   UNL     1       1.916  -3.177   9.271  0.00  0.00    +0.053 C 
BRANCH  20  22
ATOM     22  O   UNL     1       0.056  -1.837   8.506  0.00  0.00    -0.488 OA
BRANCH  22  23
ATOM     23  C   UNL     1      -0.918  -1.870   9.454  0.00  0.00    +0.121 A 
ATOM     24  C   UNL     1      -1.730  -0.763   9.653  0.00  0.00    +0.049 A 
ATOM     25  C   UNL     1      -2.719  -0.797  10.616  0.00  0.00    +0.049 A 
ATOM     26  C   UNL     1      -2.902  -1.938  11.383  0.00  0.00    +0.120 A 
ATOM     27  C   UNL     1      -2.091  -3.045  11.183  0.00  0.00    +0.049 A 
ATOM     28  C   UNL     1      -1.104  -3.013  10.217  0.00  0.00    +0.049 A 
BRANCH  26  29
ATOM     29  O   UNL     1      -3.876  -1.970  12.332  0.00  0.00    -0.495 OA
ATOM     30  C   UNL     1      -4.007  -3.178  13.085  0.00  0.00    +0.277 C 
ENDBRANCH  26  29
ENDBRANCH  22  23
ENDBRANCH  20  22
ENDBRANCH  19  20
ENDBRANCH  17  19
ENDBRANCH   5  15
BRANCH   1  31
ATOM     31  C   UNL     1      -1.407  -0.480   0.007  0.00  0.00    +0.105 C 
BRANCH  31  32
ATOM     32  C   UNL     1      -2.093  -0.074  -1.272  0.00  0.00    -0.036 A 
ATOM     33  C   UNL     1      -1.599  -0.506  -2.488  0.00  0.00    +0.004 A 
ATOM     34  C   UNL     1      -2.229  -0.133  -3.661  0.00  0.00    +0.000 A 
ATOM     35  C   UNL     1      -3.353   0.671  -3.618  0.00  0.00    +0.000 A 
ATOM     36  C   UNL     1      -3.847   1.102  -2.401  0.00  0.00    +0.000 A 
ATOM     37  C   UNL     1      -3.220   0.726  -1.228  0.00  0.00    +0.004 A 
ENDBRANCH  31  32
BRANCH  31  39
ATOM     38  C   UNL     1       0.033   1.562   0.007  0.00  0.00    +0.005 C 
ATOM     39  C   UNL     1       0.035   0.032  -0.003  0.00  0.00    +0.014 C 
ENDBRANCH  31  39
ENDBRANCH   1  31
TORSDOF 9
