REMARK  Name = ZINC28676923
REMARK  10 active torsions:
REMARK  status: ('A' for Active; 'I' for Inactive)
REMARK    1  A    between atoms: C_1  and  C_2
REMARK    2  A    between atoms: C_2  and  O_3
REMARK    3  A    between atoms: O_3  and  C_4
REMARK    4  A    between atoms: C_11  and  C_18
REMARK    5  A    between atoms: C_13  and  O_14
REMARK    6  A    between atoms: C_18  and  S_19
REMARK    7  A    between atoms: S_19  and  C_20
REMARK    8  A    between atoms: N_25  and  C_26
REMARK    9  A    between atoms: C_31  and  O_32
REMARK   10  A    between atoms: O_32  and  C_33
REMARK                            x       y       z     vdW  Elec       q    Type
REMARK                         _______ _______ _______ _____ _____    ______ ____
ROOT
ATOM      1  C   UNL     1      -7.043   3.052  15.691  0.00  0.00    +0.405 C 
ATOM      2  O   UNL     1      -7.966   3.806  15.454  0.00  0.00    -0.226 OA
ATOM      3  N   UNL     1      -6.080   2.855  14.770  0.00  0.00    -0.251 N 
ATOM      4  C   UNL     1      -6.187   3.446  13.511  0.00  0.00    +0.040 A 
ATOM      5  C   UNL     1      -5.721   2.767  12.385  0.00  0.00    +0.024 A 
ATOM      6  C   UNL     1      -5.819   3.333  11.147  0.00  0.00    +0.013 A 
ATOM      7  C   UNL     1      -6.396   4.600  11.005  0.00  0.00    +0.022 A 
ATOM      8  C   UNL     1      -6.508   5.234   9.690  0.00  0.00    -0.020 A 
ATOM      9  C   UNL     1      -7.071   6.468   9.617  0.00  0.00    +0.092 A 
ATOM     10  C   UNL     1      -7.523   7.102  10.792  0.00  0.00    +0.285 A 
ATOM     11  O   UNL     1      -7.413   6.519  11.996  0.00  0.00    -0.425 OA
ATOM     12  C   UNL     1      -6.863   5.293  12.137  0.00  0.00    +0.141 A 
ATOM     13  C   UNL     1      -6.756   4.705  13.388  0.00  0.00    +0.070 A 
ATOM     14  H   UNL     1      -5.208   2.228  15.010  0.00  0.00    +0.158 HD
ENDROOT
BRANCH  10  15
ATOM     15  O   UNL     1      -8.026   8.209  10.713  0.00  0.00    -0.480 OA
ATOM     16  H   UNL     1      -8.384   8.716  11.621  0.00  0.00    +0.295 HD
ENDBRANCH  10  15
BRANCH   1  17
ATOM     17  O   UNL     1      -6.983   2.413  16.875  0.00  0.00    -0.450 OA
BRANCH  17  19
ATOM     18  C   UNL     1      -7.817   1.865  19.097  0.00  0.00    +0.048 C 
ATOM     19  C   UNL     1      -8.055   2.674  17.820  0.00  0.00    +0.230 C 
ENDBRANCH  17  19
ENDBRANCH   1  17
BRANCH   8  20
ATOM     20  C   UNL     1      -6.016   4.533   8.449  0.00  0.00    +0.112 C 
BRANCH  20  21
ATOM     21  S   UNL     1      -4.280   4.967   8.157  0.00  0.00    -0.092 S 
BRANCH  21  22
ATOM     22  C   UNL     1      -3.859   4.082   6.692  0.00  0.00    +0.160 A 
ATOM     23  N   UNL     1      -4.606   3.281   5.956  0.00  0.00    -0.133 NA
ATOM     24  N   UNL     1      -4.073   2.687   4.835  0.00  0.00    -0.125 NA
ATOM     25  C   UNL     1      -2.816   2.913   4.508  0.00  0.00    +0.187 A 
ATOM     26  S   UNL     1      -2.308   4.027   5.809  0.00  0.00    -0.024 S 
ATOM     27  N   UNL     1      -2.083   2.421   3.434  0.00  0.00    -0.289 N 
ATOM     28  H   UNL     1      -1.011   2.650   3.349  0.00  0.00    +0.154 HD
BRANCH  27  29
ATOM     29  C   UNL     1      -2.711   1.633   2.462  0.00  0.00    +0.075 A 
ATOM     30  C   UNL     1      -4.032   1.244   2.627  0.00  0.00    +0.027 A 
ATOM     31  C   UNL     1      -4.647   0.462   1.668  0.00  0.00    +0.002 A 
ATOM     32  C   UNL     1      -3.950   0.070   0.540  0.00  0.00    +0.004 A 
ATOM     33  C   UNL     1      -2.635   0.458   0.366  0.00  0.00    +0.047 A 
ATOM     34  C   UNL     1      -2.011   1.242   1.322  0.00  0.00    +0.141 A 
BRANCH  34  35
ATOM     35  O   UNL     1      -0.717   1.624   1.151  0.00  0.00    -0.493 OA
ATOM     36  C   UNL     1      -0.061   1.181  -0.038  0.00  0.00    +0.277 C 
ENDBRANCH  34  35
ENDBRANCH  27  29
ENDBRANCH  21  22
ENDBRANCH  20  21
ENDBRANCH   8  20
TORSDOF 8
