REMARK  Name = ZINC39884037
REMARK  7 active torsions:
REMARK  status: ('A' for Active; 'I' for Inactive)
REMARK    1  A    between atoms: C_1  and  C_2
REMARK    2  A    between atoms: C_2  and  C_3
REMARK    3  A    between atoms: C_2  and  O_4
REMARK    4  A    between atoms: O_4  and  C_5
REMARK    5  A    between atoms: C_5  and  C_7
REMARK    6  A    between atoms: C_7  and  N_8
REMARK    7  A    between atoms: C_26  and  C_36
REMARK                            x       y       z     vdW  Elec       q    Type
REMARK                         _______ _______ _______ _____ _____    ______ ____
ROOT
ATOM      1  N   UNL     1       4.188  -1.256  -1.937  0.00  0.00    -0.231 N 
ATOM      2  C   UNL     1       5.057  -0.249  -2.081  0.00  0.00    +0.226 C 
ATOM      3  O   UNL     1       4.781   0.863  -2.477  0.00  0.00    -0.275 OA
ATOM      4  C   UNL     1       6.440  -0.714  -1.672  0.00  0.00    +0.091 C 
ATOM      5  C   UNL     1       7.246  -0.956  -3.007  0.00  0.00    +0.007 C 
ATOM      6  C   UNL     1       8.201  -2.090  -2.466  0.00  0.00    +0.010 C 
ATOM      7  C   UNL     1       7.054  -3.100  -2.046  0.00  0.00    +0.015 C 
ATOM      8  C   UNL     1       6.182  -2.160  -1.155  0.00  0.00    +0.092 C 
ATOM      9  C   UNL     1       4.718  -2.382  -1.443  0.00  0.00    +0.226 C 
ATOM     10  O   UNL     1       4.117  -3.418  -1.260  0.00  0.00    -0.275 OA
ATOM     11  C   UNL     1       6.402  -3.224  -3.440  0.00  0.00    +0.061 C 
ATOM     12  C   UNL     1       6.204  -1.714  -3.824  0.00  0.00    +0.019 C 
ATOM     13  C   UNL     1       5.987  -1.514  -5.282  0.00  0.00    +0.063 C 
ATOM     14  C   UNL     1       4.747  -2.273  -5.679  0.00  0.00    +0.032 A 
ATOM     15  C   UNL     1       4.102  -3.266  -5.027  0.00  0.00    +0.087 A 
ATOM     16  N   UNL     1       2.978  -3.737  -5.661  0.00  0.00    -0.311 N 
ATOM     17  H   UNL     1       2.452  -4.443  -5.253  0.00  0.00    +0.170 HD
ATOM     18  C   UNL     1       2.605  -3.220  -6.847  0.00  0.00    +0.289 A 
ATOM     19  O   UNL     1       1.647  -3.523  -7.536  0.00  0.00    -0.260 OA
ATOM     20  S   UNL     1       3.780  -2.054  -7.148  0.00  0.00    -0.030 S 
ATOM     21  S   UNL     1       4.752  -3.969  -3.438  0.00  0.00    -0.103 S 
ENDROOT
BRANCH  13  22
ATOM     22  C   UNL     1       5.802  -0.047  -5.573  0.00  0.00    -0.039 A 
ATOM     23  C   UNL     1       4.763   0.648  -4.981  0.00  0.00    +0.007 A 
ATOM     24  C   UNL     1       4.593   1.994  -5.247  0.00  0.00    +0.038 A 
ATOM     25  C   UNL     1       5.462   2.645  -6.106  0.00  0.00    +0.123 A 
ATOM     26  C   UNL     1       6.501   1.948  -6.697  0.00  0.00    +0.038 A 
ATOM     27  C   UNL     1       6.673   0.604  -6.426  0.00  0.00    +0.007 A 
ATOM     28  F   UNL     1       5.296   3.960  -6.366  0.00  0.00    -0.205 F 
ENDBRANCH  13  22
BRANCH   1  29
ATOM     29  C   UNL     1       2.771  -1.135  -2.286  0.00  0.00    +0.236 C 
BRANCH  29  30
ATOM     30  C   UNL     1       1.998  -0.651  -1.087  0.00  0.00    +0.325 C 
ATOM     31  O   UNL     1       2.572  -0.429  -0.047  0.00  0.00    -0.249 OA
BRANCH  30  32
ATOM     32  O   UNL     1       0.671  -0.465  -1.174  0.00  0.00    -0.461 OA
BRANCH  32  34
ATOM     33  C   UNL     1      -0.019   1.526   0.010  0.00  0.00    +0.052 C 
ATOM     34  C   UNL     1       0.002  -0.004   0.002  0.00  0.00    +0.170 C 
ATOM     35  C   UNL     1      -1.433  -0.534   0.013  0.00  0.00    +0.052 C 
ENDBRANCH  32  34
ENDBRANCH  30  32
ENDBRANCH  29  30
ENDBRANCH   1  29
TORSDOF 5
