REMARK  Name = ZINC60446760
REMARK  7 active torsions:
REMARK  status: ('A' for Active; 'I' for Inactive)
REMARK    1  A    between atoms: C_1  and  C_2
REMARK    2  A    between atoms: C_3  and  C_27
REMARK    3  A    between atoms: C_7  and  N_17
REMARK    4  A    between atoms: C_9  and  C_11
REMARK    5  A    between atoms: C_11  and  N_12
REMARK    6  A    between atoms: C_19  and  C_24
REMARK    7  A    between atoms: C_22  and  C_23
REMARK                            x       y       z     vdW  Elec       q    Type
REMARK                         _______ _______ _______ _____ _____    ______ ____
ROOT
ATOM      1  C   UNL     1      -0.186   1.500   0.032  0.00  0.00    +0.045 C 
ATOM      2  C   UNL     1      -0.150  -0.007   0.021  0.00  0.00    -0.028 A 
ATOM      3  C   UNL     1      -0.306  -0.681  -1.127  0.00  0.00    -0.008 A 
ATOM      4  S   UNL     1      -0.187  -2.389  -0.627  0.00  0.00    -0.074 S 
ATOM      5  C   UNL     1       0.069  -2.150   1.111  0.00  0.00    +0.114 A 
ATOM      6  C   UNL     1       0.061  -0.745   1.254  0.00  0.00    +0.051 A 
ATOM      7  C   UNL     1       0.255  -0.267   2.579  0.00  0.00    +0.134 A 
ATOM      8  N   UNL     1       0.430  -1.137   3.560  0.00  0.00    -0.219 NA
ATOM      9  C   UNL     1       0.431  -2.442   3.352  0.00  0.00    +0.116 A 
ATOM     10  N   UNL     1       0.246  -2.946   2.147  0.00  0.00    -0.227 NA
ATOM     11  C   UNL     1      -0.530  -0.128  -2.511  0.00  0.00    +0.052 C 
ENDROOT
BRANCH   7  12
ATOM     12  N   UNL     1       0.262   1.092   2.839  0.00  0.00    -0.311 N 
ATOM     13  C   UNL     1       1.507   1.866   2.745  0.00  0.00    +0.119 C 
ATOM     14  C   UNL     1       1.278   3.056   1.808  0.00  0.00    +0.092 C 
ATOM     15  C   UNL     1       0.073   3.862   2.298  0.00  0.00    +0.016 C 
ATOM     16  C   UNL     1      -1.177   2.979   2.272  0.00  0.00    +0.023 C 
ATOM     17  C   UNL     1      -0.977   1.789   3.208  0.00  0.00    +0.072 C 
ATOM     18  C   UNL     1      -0.874   2.289   4.651  0.00  0.00    +0.028 C 
BRANCH  14  19
ATOM     19  C   UNL     1       2.502   3.935   1.803  0.00  0.00    +0.215 C 
ATOM     20  O   UNL     1       3.463   3.640   2.481  0.00  0.00    -0.276 OA
ATOM     21  N   UNL     1       2.529   5.049   1.044  0.00  0.00    -0.329 N 
ATOM     22  H   UNL     1       1.760   5.285   0.502  0.00  0.00    +0.145 HD
ATOM     23  H   UNL     1       3.317   5.615   1.041  0.00  0.00    +0.145 HD
ENDBRANCH  14  19
ENDBRANCH   7  12
BRANCH   9  24
ATOM     24  C   UNL     1       0.636  -3.374   4.518  0.00  0.00    -0.001 C 
BRANCH  24  25
ATOM     25  N   UNL     1      -0.666  -3.712   5.109  0.00  0.00    +0.384 N 
ATOM     26  C   UNL     1      -1.451  -4.556   4.173  0.00  0.00    -0.078 C 
ATOM     27  C   UNL     1      -2.466  -5.267   5.102  0.00  0.00    -0.020 C 
ATOM     28  C   UNL     1      -1.635  -5.542   6.376  0.00  0.00    -0.020 C 
ATOM     29  C   UNL     1      -0.476  -4.529   6.327  0.00  0.00    -0.078 C 
ATOM     30  H   UNL     1      -1.176  -2.870   5.331  0.00  0.00    -0.081 HD
ENDBRANCH  24  25
ENDBRANCH   9  24
TORSDOF 4
