REMARK  Name = ZINC19345581
REMARK  5 active torsions:
REMARK  status: ('A' for Active; 'I' for Inactive)
REMARK    1  A    between atoms: C_6  and  C_7
REMARK    2  A    between atoms: C_7  and  C_9
REMARK    3  A    between atoms: C_7  and  O_28
REMARK    4  A    between atoms: C_9  and  N_10
REMARK    5  A    between atoms: C_17  and  O_27
REMARK                            x       y       z     vdW  Elec       q    Type
REMARK                         _______ _______ _______ _____ _____    ______ ____
ROOT
ATOM      1  N   UNL     1       5.304  -1.863  -1.598  0.00  0.00    +0.382 N 
ATOM      2  C   UNL     1       5.288  -2.986  -0.650  0.00  0.00    -0.075 C 
ATOM      3  C   UNL     1       6.641  -3.700  -0.683  0.00  0.00    +0.029 C 
ATOM      4  C   UNL     1       6.913  -4.206  -2.101  0.00  0.00    +0.110 C 
ATOM      5  C   UNL     1       6.871  -3.029  -3.077  0.00  0.00    +0.029 C 
ATOM      6  C   UNL     1       5.512  -2.333  -2.974  0.00  0.00    -0.075 C 
ATOM      7  C   UNL     1       8.296  -4.864  -2.154  0.00  0.00    +0.084 C 
ATOM      8  C   UNL     1       8.346  -5.966  -1.093  0.00  0.00    +0.152 C 
ATOM      9  C   UNL     1       7.113  -6.829  -1.199  0.00  0.00    +0.024 A 
ATOM     10  C   UNL     1       7.124  -8.081  -0.607  0.00  0.00    +0.029 A 
ATOM     11  C   UNL     1       6.010  -8.895  -0.678  0.00  0.00    +0.042 A 
ATOM     12  C   UNL     1       4.877  -8.460  -1.344  0.00  0.00    +0.023 A 
ATOM     13  C   UNL     1       4.863  -7.214  -1.936  0.00  0.00    +0.047 A 
ATOM     14  C   UNL     1       5.983  -6.392  -1.867  0.00  0.00    +0.127 A 
ATOM     15  O   UNL     1       5.931  -5.174  -2.466  0.00  0.00    -0.485 OA
ATOM     16 CL   UNL     1       6.031 -10.464   0.066  0.00  0.00    -0.084 Cl
ATOM     17  H   UNL     1       6.152  -1.214  -1.333  0.00  0.00    -0.082 HD
ENDROOT
BRANCH   8  18
ATOM     18  O   UNL     1       9.508  -6.771  -1.297  0.00  0.00    -0.387 OA
ATOM     19  H   UNL     1       9.715  -7.619  -0.627  0.00  0.00    +0.210 HD
ENDBRANCH   8  18
BRANCH   1  20
ATOM     20  C   UNL     1       4.073  -1.069  -1.492  0.00  0.00    -0.042 C 
BRANCH  20  21
ATOM     21  C   UNL     1       4.230   0.224  -2.296  0.00  0.00    +0.128 C 
BRANCH  21  27
ATOM     22  C   UNL     1       2.804   1.893  -1.097  0.00  0.00    +0.010 A 
ATOM     23  C   UNL     1       1.651   2.648  -0.982  0.00  0.00    +0.050 A 
ATOM     24  C   UNL     1       0.662   2.557  -1.949  0.00  0.00    +0.162 A 
ATOM     25  C   UNL     1       0.834   1.708  -3.036  0.00  0.00    +0.162 A 
ATOM     26  C   UNL     1       1.992   0.952  -3.145  0.00  0.00    +0.055 A 
ATOM     27  C   UNL     1       2.973   1.046  -2.176  0.00  0.00    -0.017 A 
ATOM     28  O   UNL     1      -0.121   1.609  -4.001  0.00  0.00    -0.485 OA
ATOM     29  C   UNL     1      -1.425   2.096  -3.667  0.00  0.00    +0.270 C 
ATOM     30  C   UNL     1      -1.270   3.467  -2.995  0.00  0.00    +0.270 C 
ATOM     31  O   UNL     1      -0.471   3.300  -1.818  0.00  0.00    -0.485 OA
ENDBRANCH  21  27
BRANCH  21  32
ATOM     32  O   UNL     1       5.338   0.969  -1.787  0.00  0.00    -0.389 OA
ATOM     33  H   UNL     1       6.346   0.529  -1.792  0.00  0.00    +0.210 HD
ENDBRANCH  21  32
ENDBRANCH  20  21
ENDBRANCH   1  20
TORSDOF 5
