REMARK  Name = ZINC22856382
REMARK  12 active torsions:
REMARK  status: ('A' for Active; 'I' for Inactive)
REMARK    1  A    between atoms: C_1  and  C_2
REMARK    2  A    between atoms: C_5  and  N_9
REMARK    3  A    between atoms: C_6  and  C_8
REMARK    4  A    between atoms: C_10  and  C_12
REMARK    5  A    between atoms: N_14  and  C_15
REMARK    6  A    between atoms: C_15  and  C_16
REMARK    7  A    between atoms: C_16  and  C_18
REMARK    8  A    between atoms: C_16  and  N_27
REMARK    9  A    between atoms: C_21  and  N_24
REMARK   10  A    between atoms: N_24  and  C_25
REMARK   11  A    between atoms: N_24  and  C_26
REMARK   12  A    between atoms: N_30  and  C_33
REMARK                            x       y       z     vdW  Elec       q    Type
REMARK                         _______ _______ _______ _____ _____    ______ ____
ROOT
ATOM      1  C   UNL     1      -0.831   1.161   1.377  0.00  0.00    +0.104 C 
ENDROOT
BRANCH   1   2
ATOM      2  C   UNL     1      -0.135   0.799   2.663  0.00  0.00    -0.029 A 
ATOM      3  C   UNL     1      -0.246  -0.482   3.171  0.00  0.00    +0.007 A 
ATOM      4  C   UNL     1       0.395  -0.819   4.347  0.00  0.00    +0.023 A 
ATOM      5  C   UNL     1       1.143   0.134   5.025  0.00  0.00    +0.029 A 
ATOM      6  C   UNL     1       1.249   1.422   4.516  0.00  0.00    +0.023 A 
ATOM      7  C   UNL     1       0.610   1.751   3.336  0.00  0.00    +0.007 A 
BRANCH   5   8
ATOM      8  N   UNL     1       1.788  -0.201   6.218  0.00  0.00    -0.336 N 
ATOM      9  C   UNL     1       2.475   0.833   6.995  0.00  0.00    +0.129 C 
ATOM     10  C   UNL     1       1.778  -1.588   6.691  0.00  0.00    +0.129 C 
ENDBRANCH   5   8
ENDBRANCH   1   2
BRANCH   1  11
ATOM     11  N   UNL     1      -2.285   1.120   1.578  0.00  0.00    -0.291 NA
ATOM     12  C   UNL     1      -2.645   1.599   2.920  0.00  0.00    +0.104 C 
ATOM     13  C   UNL     1      -4.168   1.616   3.062  0.00  0.00    +0.120 C 
ATOM     14  N   UNL     1      -4.694   0.263   2.831  0.00  0.00    -0.327 N 
ATOM     15  C   UNL     1      -4.335  -0.216   1.489  0.00  0.00    +0.120 C 
ATOM     16  C   UNL     1      -2.811  -0.232   1.347  0.00  0.00    +0.104 C 
BRANCH  14  17
ATOM     17  C   UNL     1      -6.077   0.224   3.023  0.00  0.00    +0.030 A 
ATOM     18  C   UNL     1      -6.909  -0.223   2.004  0.00  0.00    +0.023 A 
ATOM     19  C   UNL     1      -8.276  -0.265   2.199  0.00  0.00    +0.002 A 
ATOM     20  C   UNL     1      -8.817   0.147   3.403  0.00  0.00    +0.000 A 
ATOM     21  C   UNL     1      -7.992   0.598   4.417  0.00  0.00    +0.002 A 
ATOM     22  C   UNL     1      -6.624   0.637   4.231  0.00  0.00    +0.023 A 
ENDBRANCH  14  17
ENDBRANCH   1  11
BRANCH   1  23
ATOM     23  C   UNL     1      -0.439   0.163   0.286  0.00  0.00    +0.128 C 
BRANCH  23  26
ATOM     24  C   UNL     1      -0.953  -0.250  -2.060  0.00  0.00    +0.299 C 
ATOM     25  O   UNL     1      -0.096  -1.108  -2.067  0.00  0.00    -0.265 OA
ATOM     26  N   UNL     1      -1.203   0.444  -0.932  0.00  0.00    -0.306 N 
ATOM     27  H   UNL     1      -1.980   1.223  -0.926  0.00  0.00    +0.149 HD
BRANCH  24  29
ATOM     28  N   UNL     1      -1.483  -0.656  -4.429  0.00  0.00    -0.278 N 
ATOM     29  C   UNL     1      -1.732   0.038  -3.301  0.00  0.00    +0.303 C 
ATOM     30  O   UNL     1      -2.590   0.896  -3.295  0.00  0.00    -0.265 OA
ATOM     31  H   UNL     1      -0.758  -1.484  -4.417  0.00  0.00    +0.155 HD
BRANCH  28  36
ATOM     32  C   UNL     1      -4.168   0.690  -9.240  0.00  0.00    +0.044 C 
ATOM     33  C   UNL     1      -3.454   0.332  -7.962  0.00  0.00    -0.050 A 
ATOM     34  C   UNL     1      -4.094   0.494  -6.746  0.00  0.00    +0.005 A 
ATOM     35  C   UNL     1      -3.443   0.168  -5.573  0.00  0.00    +0.024 A 
ATOM     36  C   UNL     1      -2.144  -0.325  -5.615  0.00  0.00    +0.037 A 
ATOM     37  C   UNL     1      -1.503  -0.482  -6.837  0.00  0.00    -0.029 A 
ATOM     38  C   UNL     1      -2.162  -0.158  -8.007  0.00  0.00    +0.008 A 
ATOM     39  C   UNL     1      -0.093  -1.010  -6.887  0.00  0.00    +0.045 C 
ENDBRANCH  28  36
ENDBRANCH  24  29
ENDBRANCH  23  26
ENDBRANCH   1  23
TORSDOF 8
