REMARK  Name = ZINC51124247
REMARK  3 active torsions:
REMARK  status: ('A' for Active; 'I' for Inactive)
REMARK    1  A    between atoms: C_3  and  N_22
REMARK    2  A    between atoms: C_4  and  C_8
REMARK    3  A    between atoms: N_22  and  N_23
REMARK                            x       y       z     vdW  Elec       q    Type
REMARK                         _______ _______ _______ _____ _____    ______ ____
ROOT
ATOM      1  C   UNL     1      -0.021   1.470  -0.025  0.00  0.00    +0.022 A 
ATOM      2  C   UNL     1       0.857   1.627   1.028  0.00  0.00    +0.026 A 
ATOM      3  C   UNL     1       2.062   0.937   1.040  0.00  0.00    +0.053 A 
ATOM      4  C   UNL     1       2.382   0.079  -0.024  0.00  0.00    +0.060 A 
ATOM      5  C   UNL     1       1.484  -0.071  -1.084  0.00  0.00    +0.035 A 
ATOM      6  C   UNL     1       0.292   0.623  -1.078  0.00  0.00    +0.042 A 
ATOM      7 CL   UNL     1      -0.823   0.435  -2.396  0.00  0.00    -0.084 Cl
ENDROOT
BRANCH   4   8
ATOM      8  C   UNL     1       3.658  -0.659  -0.024  0.00  0.00    +0.249 C 
ATOM      9  O   UNL     1       4.708  -0.059   0.100  0.00  0.00    -0.270 OA
ATOM     10  N   UNL     1       3.661  -2.000  -0.160  0.00  0.00    -0.290 N 
ATOM     11  C   UNL     1       2.417  -2.748  -0.414  0.00  0.00    +0.136 C 
ATOM     12  C   UNL     1       2.322  -3.906   0.585  0.00  0.00    +0.179 C 
ATOM     13  O   UNL     1       3.540  -4.659   0.573  0.00  0.00    -0.373 OA
ATOM     14  C   UNL     1       4.682  -3.898   0.960  0.00  0.00    +0.139 C 
ATOM     15  C   UNL     1       4.904  -2.775  -0.067  0.00  0.00    +0.105 C 
ATOM     16  C   UNL     1       6.061  -1.895   0.402  0.00  0.00    +0.025 C 
ATOM     17  C   UNL     1       7.332  -2.748   0.482  0.00  0.00    +0.002 C 
ATOM     18  C   UNL     1       7.125  -3.903   1.461  0.00  0.00    +0.003 C 
ATOM     19  C   UNL     1       5.938  -4.765   1.007  0.00  0.00    +0.033 C 
ENDBRANCH   4   8
BRANCH   3  20
ATOM     20  N   UNL     1       2.947   1.094   2.100  0.00  0.00    -0.282 N 
ATOM     21  H   UNL     1       3.752   0.556   2.143  0.00  0.00    +0.166 HD
BRANCH  20  22
ATOM     22  N   UNL     1       2.682   2.007   3.080  0.00  0.00    -0.256 NA
ATOM     23  H   UNL     1       3.409   2.009   3.779  0.00  0.00    +0.140 HD
ATOM     24  H   UNL     1       2.552   2.929   2.691  0.00  0.00    +0.140 HD
ENDBRANCH  20  22
ENDBRANCH   3  20
TORSDOF 3
