REMARK  Name = ZINC39326670
REMARK  4 active torsions:
REMARK  status: ('A' for Active; 'I' for Inactive)
REMARK    1  A    between atoms: C_1  and  C_2
REMARK    2  A    between atoms: C_10  and  N_24
REMARK    3  A    between atoms: C_11  and  C_15
REMARK    4  A    between atoms: C_15  and  C_17
REMARK                            x       y       z     vdW  Elec       q    Type
REMARK                         _______ _______ _______ _____ _____    ______ ____
ROOT
ATOM      1  C   UNL     1       1.643   1.698  -0.265  0.00  0.00    +0.008 C 
ATOM      2  C   UNL     1       1.380   0.191  -0.225  0.00  0.00    -0.009 C 
ATOM      3  C   UNL     1       1.994  -0.473  -1.463  0.00  0.00    +0.010 C 
ATOM      4  C   UNL     1       1.511  -1.921  -1.523  0.00  0.00    +0.056 C 
ATOM      5  C   UNL     1       1.745  -2.612  -0.205  0.00  0.00    +0.046 A 
ATOM      6  C   UNL     1       1.976  -1.917   0.968  0.00  0.00    -0.025 A 
ATOM      7  C   UNL     1       2.176  -2.604   2.150  0.00  0.00    +0.017 A 
ATOM      8  C   UNL     1       2.149  -4.019   2.150  0.00  0.00    +0.029 A 
ATOM      9  C   UNL     1       2.333  -4.935   3.265  0.00  0.00    +0.052 A 
ATOM     10  C   UNL     1       2.264  -6.291   3.014  0.00  0.00    +0.083 A 
ATOM     11  S   UNL     1       1.947  -6.371   1.263  0.00  0.00    -0.064 S 
ATOM     12  C   UNL     1       1.911  -4.634   0.900  0.00  0.00    +0.111 A 
ATOM     13  N   UNL     1       1.723  -3.938  -0.197  0.00  0.00    -0.244 NA
ATOM     14  C   UNL     1       2.029  -0.412   1.019  0.00  0.00    +0.040 C 
ENDROOT
BRANCH   9  15
ATOM     15  N   UNL     1       2.573  -4.459   4.544  0.00  0.00    -0.356 N 
ATOM     16  H   UNL     1       2.619  -3.504   4.706  0.00  0.00    +0.142 HD
ATOM     17  H   UNL     1       2.694  -5.082   5.278  0.00  0.00    +0.142 HD
ENDBRANCH   9  15
BRANCH  10  18
ATOM     18  C   UNL     1       2.411  -7.361   3.929  0.00  0.00    +0.202 C 
ATOM     19  O   UNL     1       2.501  -7.134   5.122  0.00  0.00    -0.286 OA
BRANCH  18  20
ATOM     20  C   UNL     1       2.454  -8.754   3.436  0.00  0.00    +0.023 A 
ATOM     21  C   UNL     1       2.889  -9.025   2.137  0.00  0.00    +0.014 A 
ATOM     22  C   UNL     1       2.927 -10.326   1.683  0.00  0.00    +0.039 A 
ATOM     23  C   UNL     1       2.535 -11.365   2.514  0.00  0.00    +0.123 A 
ATOM     24  C   UNL     1       2.101 -11.101   3.804  0.00  0.00    +0.039 A 
ATOM     25  C   UNL     1       2.064  -9.805   4.270  0.00  0.00    +0.014 A 
ATOM     26  F   UNL     1       2.574 -12.638   2.064  0.00  0.00    -0.205 F 
ENDBRANCH  18  20
ENDBRANCH  10  18
TORSDOF 3
