REMARK  Name = ZINC08455851
REMARK  6 active torsions:
REMARK  status: ('A' for Active; 'I' for Inactive)
REMARK    1  A    between atoms: C_1  and  C_2
REMARK    2  A    between atoms: C_9  and  N_13
REMARK    3  A    between atoms: C_10  and  C_11
REMARK    4  A    between atoms: C_14  and  C_16
REMARK    5  A    between atoms: C_21  and  C_33
REMARK    6  A    between atoms: C_24  and  C_27
REMARK                            x       y       z     vdW  Elec       q    Type
REMARK                         _______ _______ _______ _____ _____    ______ ____
ROOT
ATOM      1  C   UNL     1       1.891  -7.470   3.820  0.00  0.00    +0.168 A 
ATOM      2  C   UNL     1       2.874  -7.870   4.753  0.00  0.00    +0.112 A 
ATOM      3  C   UNL     1       2.740  -9.198   4.942  0.00  0.00    +0.137 A 
ATOM      4  N   UNL     1       1.711  -9.638   4.157  0.00  0.00    -0.237 N 
ATOM      5  N   UNL     1       1.194  -8.539   3.472  0.00  0.00    -0.163 NA
ATOM      6  C   UNL     1       1.276 -11.036   4.096  0.00  0.00    +0.215 C 
ATOM      7  C   UNL     1       2.404 -11.930   4.622  0.00  0.00    +0.063 C 
ATOM      8  C   UNL     1       2.902 -11.403   5.972  0.00  0.00    +0.104 C 
ATOM      9  N   UNL     1       3.472 -10.056   5.769  0.00  0.00    -0.321 N 
ATOM     10 CL   UNL     1       4.042  -6.838   5.518  0.00  0.00    -0.078 Cl
ATOM     11  H   UNL     1       4.305  -9.783   6.184  0.00  0.00    +0.148 HD
ENDROOT
BRANCH   8  12
ATOM     12  C   UNL     1       1.751 -11.328   6.942  0.00  0.00    -0.027 A 
ATOM     13  C   UNL     1       0.869 -10.265   6.888  0.00  0.00    +0.005 A 
ATOM     14  C   UNL     1      -0.187 -10.197   7.777  0.00  0.00    +0.000 A 
ATOM     15  C   UNL     1      -0.361 -11.191   8.721  0.00  0.00    +0.000 A 
ATOM     16  C   UNL     1       0.521 -12.255   8.775  0.00  0.00    +0.000 A 
ATOM     17  C   UNL     1       1.574 -12.325   7.883  0.00  0.00    +0.005 A 
ENDBRANCH   8  12
BRANCH   1  19
ATOM     18  N   UNL     1       0.694  -5.848   2.433  0.00  0.00    -0.274 N 
ATOM     19  C   UNL     1       1.675  -6.096   3.323  0.00  0.00    +0.270 C 
ATOM     20  O   UNL     1       2.383  -5.189   3.717  0.00  0.00    -0.268 OA
ATOM     21  H   UNL     1       0.130  -6.571   2.119  0.00  0.00    +0.156 HD
BRANCH  18  29
ATOM     22  C   UNL     1      -0.019   1.526   0.010  0.00  0.00    +0.008 C 
ATOM     23  C   UNL     1       0.002  -0.004   0.002  0.00  0.00    -0.009 C 
ATOM     24  C   UNL     1      -1.434  -0.537   0.019  0.00  0.00    +0.008 C 
ATOM     25  C   UNL     1      -1.433  -2.045  -0.237  0.00  0.00    +0.037 C 
ATOM     26  C   UNL     1      -0.464  -2.704   0.734  0.00  0.00    -0.018 A 
ATOM     27  C   UNL     1       0.485  -1.986   1.374  0.00  0.00    -0.004 A 
ATOM     28  S   UNL     1       1.343  -3.168   2.372  0.00  0.00    -0.077 S 
ATOM     29  C   UNL     1       0.492  -4.557   1.967  0.00  0.00    +0.090 A 
ATOM     30  C   UNL     1      -0.459  -4.119   1.060  0.00  0.00    +0.084 A 
ATOM     31  C   UNL     1       0.739  -0.515   1.248  0.00  0.00    +0.046 C 
BRANCH  30  32
ATOM     32  C   UNL     1      -1.399  -5.024   0.469  0.00  0.00    +0.102 C 
ATOM     33  N   UNL     1      -2.144  -5.741   0.000  0.00  0.00    -0.191 NA
ENDBRANCH  30  32
ENDBRANCH  18  29
ENDBRANCH   1  19
BRANCH   6  34
ATOM     34  C   UNL     1       0.956 -11.410   2.647  0.00  0.00    +0.412 C 
ATOM     35  F   UNL     1       2.099 -11.244   1.859  0.00  0.00    -0.168 F 
ATOM     36  F   UNL     1       0.540 -12.745   2.591  0.00  0.00    -0.168 F 
ATOM     37  F   UNL     1      -0.066 -10.583   2.167  0.00  0.00    -0.168 F 
ENDBRANCH   6  34
TORSDOF 5
