REMARK  Name = ZINC39790134
REMARK  6 active torsions:
REMARK  status: ('A' for Active; 'I' for Inactive)
REMARK    1  A    between atoms: C_1  and  C_2
REMARK    2  A    between atoms: C_3  and  S_9
REMARK    3  A    between atoms: S_9  and  N_12
REMARK    4  A    between atoms: C_18  and  C_20
REMARK    5  A    between atoms: C_21  and  C_34
REMARK    6  A    between atoms: N_23  and  C_27
REMARK                            x       y       z     vdW  Elec       q    Type
REMARK                         _______ _______ _______ _____ _____    ______ ____
ROOT
ATOM      1  N   UNL     1      -3.491  -0.396  -1.499  0.00  0.00    -0.173 NA
ATOM      2  C   UNL     1      -3.300   0.527  -2.627  0.00  0.00    +0.128 C 
ATOM      3  C   UNL     1      -2.640  -0.239  -3.781  0.00  0.00    +0.125 C 
ATOM      4  N   UNL     1      -3.387  -1.485  -4.004  0.00  0.00    -0.295 N 
ATOM      5  C   UNL     1      -3.579  -2.408  -2.876  0.00  0.00    +0.125 C 
ATOM      6  C   UNL     1      -4.233  -1.645  -1.724  0.00  0.00    +0.128 C 
ATOM      7  C   UNL     1      -3.888  -1.776  -5.221  0.00  0.00    +0.247 C 
ATOM      8  O   UNL     1      -3.863  -0.940  -6.105  0.00  0.00    -0.270 OA
ENDROOT
BRANCH   7   9
ATOM      9  C   UNL     1      -4.441  -3.054  -5.471  0.00  0.00    +0.069 C 
ATOM     10  C   UNL     1      -4.907  -3.509  -6.650  0.00  0.00    +0.030 C 
ATOM     11  N   UNL     1      -5.372  -4.781  -6.549  0.00  0.00    -0.266 N 
ATOM     12  N   UNL     1      -5.234  -5.263  -5.240  0.00  0.00    -0.231 N 
ATOM     13  C   UNL     1      -4.617  -4.172  -4.466  0.00  0.00    +0.221 C 
ATOM     14 CL   UNL     1      -3.019  -4.687  -3.810  0.00  0.00    -0.094 Cl
ATOM     15  C   UNL     1      -4.912  -2.705  -7.924  0.00  0.00    +0.062 C 
ATOM     16  H   UNL     1      -5.748  -5.289  -7.284  0.00  0.00    +0.170 HD
BRANCH  12  17
ATOM     17  C   UNL     1      -5.603  -6.525  -4.766  0.00  0.00    +0.050 A 
ATOM     18  C   UNL     1      -5.406  -6.851  -3.431  0.00  0.00    +0.027 A 
ATOM     19  C   UNL     1      -5.771  -8.099  -2.965  0.00  0.00    +0.040 A 
ATOM     20  C   UNL     1      -6.333  -9.025  -3.828  0.00  0.00    +0.124 A 
ATOM     21  C   UNL     1      -6.530  -8.702  -5.160  0.00  0.00    +0.040 A 
ATOM     22  C   UNL     1      -6.172  -7.453  -5.629  0.00  0.00    +0.027 A 
ATOM     23  F   UNL     1      -6.688 -10.245  -3.370  0.00  0.00    -0.205 F 
ENDBRANCH  12  17
ENDBRANCH   7   9
BRANCH   1  24
ATOM     24  S   UNL     1      -2.876  -0.038  -0.004  0.00  0.00    +0.069 S 
ATOM     25  O   UNL     1      -3.652  -0.765   0.939  0.00  0.00    -0.152 OA
ATOM     26  O   UNL     1      -2.738   1.375   0.051  0.00  0.00    -0.152 OA
BRANCH  24  29
ATOM     27  C   UNL     1      -0.000   1.438   0.037  0.00  0.00    +0.066 C 
ATOM     28  C   UNL     1      -0.074  -0.066   0.079  0.00  0.00    +0.050 A 
ATOM     29  C   UNL     1      -1.247  -0.706   0.063  0.00  0.00    +0.166 A 
ATOM     30  S   UNL     1      -0.733  -2.413   0.128  0.00  0.00    -0.007 S 
ATOM     31  C   UNL     1       0.931  -2.176   0.170  0.00  0.00    +0.290 A 
ATOM     32  O   UNL     1       1.813  -3.014   0.220  0.00  0.00    -0.260 OA
ATOM     33  N   UNL     1       1.053  -0.832   0.128  0.00  0.00    -0.318 N 
ATOM     34  H   UNL     1       1.930  -0.418   0.137  0.00  0.00    +0.169 HD
ENDBRANCH  24  29
ENDBRANCH   1  24
TORSDOF 4
