REMARK  Name = ZINC39600880
REMARK  9 active torsions:
REMARK  status: ('A' for Active; 'I' for Inactive)
REMARK    1  A    between atoms: C_1  and  C_2
REMARK    2  A    between atoms: C_2  and  C_3
REMARK    3  A    between atoms: C_3  and  C_4
REMARK    4  A    between atoms: C_4  and  C_5
REMARK    5  A    between atoms: C_5  and  C_7
REMARK    6  A    between atoms: C_5  and  C_8
REMARK    7  A    between atoms: C_12  and  C_21
REMARK    8  A    between atoms: N_23  and  C_24
REMARK    9  A    between atoms: C_24  and  C_25
REMARK                            x       y       z     vdW  Elec       q    Type
REMARK                         _______ _______ _______ _____ _____    ______ ____
ROOT
ATOM      1  C   UNL     1      -2.990  -4.336   0.307  0.00  0.00    +0.218 C 
ATOM      2  O   UNL     1      -1.997  -4.998   0.523  0.00  0.00    -0.275 OA
ATOM      3  N   UNL     1      -4.179  -4.945   0.127  0.00  0.00    -0.300 N 
ATOM      4  C   UNL     1      -5.469  -4.322  -0.253  0.00  0.00    +0.121 C 
ATOM      5  C   UNL     1      -6.114  -5.327  -1.234  0.00  0.00    +0.100 C 
ATOM      6  C   UNL     1      -5.469  -6.680  -0.890  0.00  0.00    -0.004 C 
ATOM      7  C   UNL     1      -4.490  -6.388   0.257  0.00  0.00    +0.115 C 
ATOM      8  C   UNL     1      -6.535  -7.673  -0.435  0.00  0.00    -0.010 C 
ATOM      9  C   UNL     1      -5.878  -9.027  -0.154  0.00  0.00    -0.082 C 
ATOM     10  N   UNL     1      -5.215  -9.513  -1.370  0.00  0.00    +0.379 N 
ATOM     11  C   UNL     1      -4.130  -8.600  -1.748  0.00  0.00    -0.082 C 
ATOM     12  C   UNL     1      -4.713  -7.227  -2.096  0.00  0.00    -0.010 C 
ATOM     13  H   UNL     1      -4.836 -10.432  -1.200  0.00  0.00    -0.086 HD
ATOM     14  H   UNL     1      -5.887  -9.563  -2.121  0.00  0.00    -0.086 HD
ENDROOT
BRANCH   5  15
ATOM     15  C   UNL     1      -7.605  -5.384  -1.023  0.00  0.00    +0.218 C 
ATOM     16  O   UNL     1      -8.071  -5.159   0.074  0.00  0.00    -0.275 OA
ATOM     17  N   UNL     1      -8.420  -5.685  -2.053  0.00  0.00    -0.311 N 
ATOM     18  H   UNL     1      -8.047  -5.865  -2.930  0.00  0.00    +0.149 HD
BRANCH  17  19
ATOM     19  C   UNL     1      -9.870  -5.741  -1.847  0.00  0.00    +0.142 C 
BRANCH  19  20
ATOM     20  C   UNL     1     -10.548  -6.096  -3.146  0.00  0.00    +0.006 A 
ATOM     21  C   UNL     1     -11.121  -5.104  -3.920  0.00  0.00    +0.023 A 
ATOM     22  C   UNL     1     -11.743  -5.429  -5.111  0.00  0.00    +0.018 A 
ATOM     23  C   UNL     1     -11.792  -6.747  -5.529  0.00  0.00    +0.018 A 
ATOM     24  C   UNL     1     -11.220  -7.739  -4.757  0.00  0.00    +0.040 A 
ATOM     25  C   UNL     1     -10.592  -7.414  -3.566  0.00  0.00    +0.128 A 
ATOM     26  F   UNL     1     -10.027  -8.383  -2.813  0.00  0.00    -0.205 F 
ATOM     27 BR   UNL     1     -12.527  -4.072  -6.169  0.00  0.00    -0.050 Br
ENDBRANCH  19  20
ENDBRANCH  17  19
ENDBRANCH   5  15
BRANCH   1  28
ATOM     28  C   UNL     1      -2.894  -2.834   0.240  0.00  0.00    +0.072 C 
ATOM     29  C   UNL     1      -2.587  -2.406  -1.196  0.00  0.00    +0.017 C 
BRANCH  28  30
ATOM     30  C   UNL     1      -1.776  -2.352   1.166  0.00  0.00    +0.012 C 
BRANCH  30  31
ATOM     31  C   UNL     1      -1.761  -0.822   1.194  0.00  0.00    +0.000 C 
BRANCH  31  33
ATOM     32  C   UNL     1      -0.627   1.189   2.149  0.00  0.00    +0.004 C 
ATOM     33  C   UNL     1      -0.642  -0.341   2.120  0.00  0.00    -0.003 C 
ENDBRANCH  31  33
ENDBRANCH  30  31
ENDBRANCH  28  30
ENDBRANCH   1  28
TORSDOF 7
