REMARK  Name = ZINC33615453
REMARK  12 active torsions:
REMARK  status: ('A' for Active; 'I' for Inactive)
REMARK    1  A    between atoms: C_1  and  C_2
REMARK    2  A    between atoms: C_2  and  C_3
REMARK    3  A    between atoms: C_3  and  C_5
REMARK    4  A    between atoms: C_3  and  N_6
REMARK    5  A    between atoms: C_7  and  C_9
REMARK    6  A    between atoms: C_10  and  N_11
REMARK    7  A    between atoms: C_10  and  C_26
REMARK    8  A    between atoms: N_11  and  N_12
REMARK    9  A    between atoms: C_13  and  C_15
REMARK   10  A    between atoms: C_15  and  O_16
REMARK   11  A    between atoms: O_16  and  C_17
REMARK   12  A    between atoms: C_19  and  C_25
REMARK                            x       y       z     vdW  Elec       q    Type
REMARK                         _______ _______ _______ _____ _____    ______ ____
ROOT
ATOM      1  N   UNL     1      -5.297   0.642  -4.902  0.00  0.00    -0.234 N 
ATOM      2  C   UNL     1      -5.897   0.686  -6.108  0.00  0.00    +0.267 C 
ATOM      3  O   UNL     1      -7.093   0.504  -6.196  0.00  0.00    -0.271 OA
ATOM      4  H   UNL     1      -4.340   0.787  -4.831  0.00  0.00    +0.173 HD
ENDROOT
BRANCH   1   5
ATOM      5  N   UNL     1      -6.054   0.388  -3.751  0.00  0.00    -0.269 N 
ATOM      6  H   UNL     1      -7.010   0.243  -3.822  0.00  0.00    +0.170 HD
BRANCH   5   8
ATOM      7  C   UNL     1      -4.114   0.545  -2.430  0.00  0.00    +0.087 C 
ATOM      8  C   UNL     1      -5.445   0.344  -2.528  0.00  0.00    +0.024 C 
ATOM      9  C   UNL     1      -6.259   0.070  -1.290  0.00  0.00    +0.062 C 
BRANCH   7  11
ATOM     10  N   UNL     1      -2.167   0.734  -1.053  0.00  0.00    -0.309 N 
ATOM     11  C   UNL     1      -3.508   0.655  -1.156  0.00  0.00    +0.239 C 
ATOM     12  O   UNL     1      -4.199   0.678  -0.153  0.00  0.00    -0.271 OA
ATOM     13  H   UNL     1      -1.617   0.716  -1.852  0.00  0.00    +0.149 HD
BRANCH  10  14
ATOM     14  C   UNL     1      -1.539   0.847   0.265  0.00  0.00    +0.070 C 
ATOM     15  C   UNL     1      -1.356  -0.549   0.865  0.00  0.00    +0.028 C 
BRANCH  14  17
ATOM     16  C   UNL     1      -0.367   2.964  -0.358  0.00  0.00    +0.005 C 
ATOM     17  C   UNL     1      -0.174   1.524   0.124  0.00  0.00    +0.018 C 
ENDBRANCH  14  17
ENDBRANCH  10  14
ENDBRANCH   7  11
ENDBRANCH   5   8
ENDBRANCH   1   5
BRANCH   2  18
ATOM     18  C   UNL     1      -5.083   0.960  -7.346  0.00  0.00    +0.326 C 
BRANCH  18  19
ATOM     19  O   UNL     1      -5.939   0.955  -8.490  0.00  0.00    -0.482 OA
BRANCH  19  20
ATOM     20  C   UNL     1      -5.358   1.188  -9.696  0.00  0.00    +0.135 A 
ATOM     21  C   UNL     1      -3.991   1.410  -9.778  0.00  0.00    +0.051 A 
ATOM     22  C   UNL     1      -3.402   1.646 -11.005  0.00  0.00    -0.033 A 
ATOM     23  C   UNL     1      -4.175   1.661 -12.153  0.00  0.00    +0.022 A 
ATOM     24  C   UNL     1      -5.538   1.440 -12.075  0.00  0.00    +0.034 A 
ATOM     25  C   UNL     1      -6.130   1.198 -10.849  0.00  0.00    +0.061 A 
ATOM     26 BR   UNL     1      -7.993   0.887 -10.744  0.00  0.00    -0.046 Br
ATOM     27 BR   UNL     1      -3.366   1.984 -13.831  0.00  0.00    -0.050 Br
ATOM     28  C   UNL     1      -1.918   1.889 -11.094  0.00  0.00    +0.045 C 
ENDBRANCH  19  20
ENDBRANCH  18  19
ENDBRANCH   2  18
TORSDOF 8
