REMARK  Name = ZINC45599194
REMARK  9 active torsions:
REMARK  status: ('A' for Active; 'I' for Inactive)
REMARK    1  A    between atoms: C_1  and  C_2
REMARK    2  A    between atoms: C_11  and  N_31
REMARK    3  A    between atoms: C_13  and  C_15
REMARK    4  A    between atoms: C_15  and  S_16
REMARK    5  A    between atoms: S_16  and  C_17
REMARK    6  A    between atoms: C_20  and  C_22
REMARK    7  A    between atoms: C_22  and  C_23
REMARK    8  A    between atoms: C_26  and  O_29
REMARK    9  A    between atoms: O_29  and  C_30
REMARK                            x       y       z     vdW  Elec       q    Type
REMARK                         _______ _______ _______ _____ _____    ______ ____
ROOT
ATOM      1  C   UNL     1      -2.009   0.731   0.322  0.00  0.00    +0.008 C 
ATOM      2  C   UNL     1      -1.528  -0.718   0.214  0.00  0.00    -0.009 C 
ATOM      3  C   UNL     1      -0.605  -0.864  -0.999  0.00  0.00    +0.008 C 
ATOM      4  C   UNL     1      -0.321  -2.343  -1.259  0.00  0.00    +0.037 C 
ATOM      5  C   UNL     1       0.187  -2.983   0.030  0.00  0.00    -0.025 A 
ATOM      6  C   UNL     1      -0.027  -2.386   1.225  0.00  0.00    -0.004 A 
ATOM      7  S   UNL     1       0.721  -3.460   2.425  0.00  0.00    -0.073 S 
ATOM      8  C   UNL     1       1.321  -4.704   1.329  0.00  0.00    +0.114 A 
ATOM      9  C   UNL     1       0.915  -4.242   0.051  0.00  0.00    +0.051 A 
ATOM     10  C   UNL     1       1.262  -5.053  -1.067  0.00  0.00    +0.128 A 
ATOM     11  N   UNL     1       1.936  -6.167  -0.788  0.00  0.00    -0.216 NA
ATOM     12  C   UNL     1       2.280  -6.535   0.430  0.00  0.00    +0.143 A 
ATOM     13  N   UNL     1       1.988  -5.825   1.514  0.00  0.00    -0.224 NA
ATOM     14  C   UNL     1      -0.746  -1.097   1.480  0.00  0.00    +0.046 C 
ENDROOT
BRANCH  10  15
ATOM     15  N   UNL     1       0.921  -4.705  -2.361  0.00  0.00    -0.343 N 
ATOM     16  H   UNL     1       1.363  -5.134  -3.111  0.00  0.00    +0.144 HD
ATOM     17  H   UNL     1       0.239  -4.033  -2.519  0.00  0.00    +0.144 HD
ENDBRANCH  10  15
BRANCH  12  18
ATOM     18  C   UNL     1       3.042  -7.823   0.601  0.00  0.00    +0.155 C 
BRANCH  18  19
ATOM     19  S   UNL     1       4.822  -7.490   0.510  0.00  0.00    -0.058 S 
BRANCH  19  20
ATOM     20  C   UNL     1       5.564  -9.073   0.724  0.00  0.00    +0.278 A 
ATOM     21  N   UNL     1       4.935 -10.210   0.900  0.00  0.00    -0.101 NA
ATOM     22  N   UNL     1       5.795 -11.159   1.021  0.00  0.00    -0.111 NA
ATOM     23  C   UNL     1       6.997 -10.671   0.928  0.00  0.00    +0.222 A 
ATOM     24  O   UNL     1       6.884  -9.343   0.733  0.00  0.00    -0.415 OA
BRANCH  23  25
ATOM     25  C   UNL     1       8.284 -11.451   1.017  0.00  0.00    +0.132 C 
BRANCH  25  26
ATOM     26  C   UNL     1       8.687 -11.914  -0.359  0.00  0.00    -0.038 A 
ATOM     27  C   UNL     1       8.243 -13.135  -0.834  0.00  0.00    +0.007 A 
ATOM     28  C   UNL     1       8.611 -13.562  -2.095  0.00  0.00    +0.046 A 
ATOM     29  C   UNL     1       9.427 -12.765  -2.885  0.00  0.00    +0.120 A 
ATOM     30  C   UNL     1       9.870 -11.541  -2.406  0.00  0.00    +0.046 A 
ATOM     31  C   UNL     1       9.495 -11.116  -1.147  0.00  0.00    +0.007 A 
BRANCH  29  32
ATOM     32  O   UNL     1       9.791 -13.183  -4.126  0.00  0.00    -0.495 OA
ATOM     33  C   UNL     1      10.632 -12.311  -4.883  0.00  0.00    +0.277 C 
ENDBRANCH  29  32
ENDBRANCH  25  26
ENDBRANCH  23  25
ENDBRANCH  19  20
ENDBRANCH  18  19
ENDBRANCH  12  18
TORSDOF 7
