REMARK  Name = ZINC13894291
REMARK  6 active torsions:
REMARK  status: ('A' for Active; 'I' for Inactive)
REMARK    1  A    between atoms: C_3  and  C_6
REMARK    2  A    between atoms: C_7  and  C_8
REMARK    3  A    between atoms: C_7  and  N_22
REMARK    4  A    between atoms: N_10  and  N_11
REMARK    5  A    between atoms: C_12  and  C_13
REMARK    6  A    between atoms: C_23  and  C_25
REMARK                            x       y       z     vdW  Elec       q    Type
REMARK                         _______ _______ _______ _____ _____    ______ ____
ROOT
ATOM      1  C   UNL     1       2.837  -0.136   1.373  0.00  0.00    +0.074 C 
ATOM      2  C   UNL     1       2.627   1.181   1.102  0.00  0.00    +0.101 C 
ENDROOT
BRANCH   1   5
ATOM      3  C   UNL     1       0.637  -2.595   2.837  0.00  0.00    +0.042 A 
ATOM      4  C   UNL     1       1.901  -2.230   2.346  0.00  0.00    +0.049 A 
ATOM      5  C   UNL     1       1.799  -0.917   1.937  0.00  0.00    +0.130 A 
ATOM      6  O   UNL     1       0.536  -0.508   2.175  0.00  0.00    -0.463 OA
ATOM      7  C   UNL     1      -0.167  -1.517   2.711  0.00  0.00    +0.195 A 
ENDBRANCH   1   5
BRANCH   2   8
ATOM      8  C   UNL     1       3.736   2.020   0.644  0.00  0.00    +0.278 C 
ATOM      9  O   UNL     1       3.547   3.199   0.402  0.00  0.00    -0.267 OA
ATOM     10  N   UNL     1       4.964   1.488   0.490  0.00  0.00    -0.202 N 
ATOM     11  H   UNL     1       5.114   0.550   0.683  0.00  0.00    +0.178 HD
BRANCH  10  12
ATOM     12  N   UNL     1       6.026   2.291   0.052  0.00  0.00    -0.187 NA
ATOM     13  C   UNL     1       7.179   1.756  -0.212  0.00  0.00    +0.138 C 
BRANCH  13  14
ATOM     14  C   UNL     1       7.268   0.322  -0.540  0.00  0.00    -0.002 A 
ATOM     15  C   UNL     1       6.106  -0.414  -0.784  0.00  0.00    +0.013 A 
ATOM     16  C   UNL     1       6.193  -1.755  -1.095  0.00  0.00    +0.050 A 
ATOM     17  C   UNL     1       7.430  -2.379  -1.157  0.00  0.00    +0.166 A 
ATOM     18  C   UNL     1       8.594  -1.651  -0.909  0.00  0.00    +0.167 A 
ATOM     19  C   UNL     1       8.515  -0.306  -0.602  0.00  0.00    +0.059 A 
ATOM     20  O   UNL     1       9.666  -2.488  -1.032  0.00  0.00    -0.453 OA
ATOM     21  C   UNL     1       9.179  -3.633  -1.756  0.00  0.00    +0.466 C 
ATOM     22  O   UNL     1       7.776  -3.670  -1.434  0.00  0.00    -0.453 OA
ENDBRANCH  13  14
ENDBRANCH  10  12
ENDBRANCH   2   8
BRANCH   2  23
ATOM     23  N   UNL     1       1.351   1.733   1.262  0.00  0.00    -0.277 N 
ATOM     24  C   UNL     1       1.158   2.744   2.132  0.00  0.00    +0.248 C 
ATOM     25  O   UNL     1       2.071   3.115   2.844  0.00  0.00    -0.270 OA
ATOM     26  H   UNL     1       0.605   1.388   0.746  0.00  0.00    +0.155 HD
BRANCH  24  27
ATOM     27  C   UNL     1      -0.164   3.397   2.224  0.00  0.00    +0.037 A 
ATOM     28  C   UNL     1      -1.242   2.907   1.483  0.00  0.00    +0.014 A 
ATOM     29  C   UNL     1      -2.474   3.518   1.578  0.00  0.00    +0.016 A 
ATOM     30  C   UNL     1      -2.642   4.622   2.397  0.00  0.00    +0.018 A 
ATOM     31  C   UNL     1      -1.576   5.116   3.130  0.00  0.00    +0.016 A 
ATOM     32  C   UNL     1      -0.340   4.511   3.048  0.00  0.00    +0.014 A 
ATOM     33 BR   UNL     1      -4.334   5.458   2.515  0.00  0.00    -0.050 Br
ENDBRANCH  24  27
ENDBRANCH   2  23
TORSDOF 6
