REMARK  Name = ZINC13349148
REMARK  6 active torsions:
REMARK  status: ('A' for Active; 'I' for Inactive)
REMARK    1  A    between atoms: C_1  and  C_2
REMARK    2  A    between atoms: C_5  and  S_8
REMARK    3  A    between atoms: S_8  and  N_11
REMARK    4  A    between atoms: C_15  and  C_32
REMARK    5  A    between atoms: C_17  and  N_21
REMARK    6  A    between atoms: N_24  and  C_25
REMARK                            x       y       z     vdW  Elec       q    Type
REMARK                         _______ _______ _______ _____ _____    ______ ____
ROOT
ATOM      1  N   UNL     1      -0.035   0.017   0.034  0.00  0.00    -0.194 N 
ATOM      2  C   UNL     1       0.497  -0.676   1.103  0.00  0.00    +0.179 A 
ATOM      3  N   UNL     1       0.613  -1.974   1.267  0.00  0.00    -0.223 NA
ATOM      4  C   UNL     1       1.161  -2.519   2.377  0.00  0.00    +0.083 A 
ATOM      5  C   UNL     1       1.343  -3.889   2.675  0.00  0.00    -0.022 A 
ATOM      6  C   UNL     1       1.920  -4.280   3.854  0.00  0.00    +0.028 A 
ATOM      7  C   UNL     1       2.347  -3.349   4.798  0.00  0.00    +0.036 A 
ATOM      8  C   UNL     1       2.182  -1.995   4.535  0.00  0.00    +0.040 A 
ATOM      9  C   UNL     1       1.604  -1.601   3.355  0.00  0.00    +0.043 A 
ATOM     10  S   UNL     1       1.212  -0.036   2.611  0.00  0.00    -0.051 S 
ATOM     11  C   UNL     1       0.897  -4.933   1.683  0.00  0.00    +0.046 C 
ATOM     12  H   UNL     1      -0.388  -0.465  -0.730  0.00  0.00    +0.176 HD
ENDROOT
BRANCH   7  13
ATOM     13  N   UNL     1       2.934  -3.772   5.998  0.00  0.00    -0.269 N 
ATOM     14  C   UNL     1       3.924  -3.048   6.556  0.00  0.00    +0.308 C 
ATOM     15  O   UNL     1       4.250  -1.984   6.065  0.00  0.00    -0.252 OA
ATOM     16  N   UNL     1       4.553  -3.503   7.658  0.00  0.00    -0.269 N 
ATOM     17  H   UNL     1       2.628  -4.587   6.427  0.00  0.00    +0.156 HD
ATOM     18  H   UNL     1       4.340  -4.381   8.011  0.00  0.00    +0.156 HD
BRANCH  16  19
ATOM     19  C   UNL     1       5.513  -2.708   8.294  0.00  0.00    +0.036 A 
ATOM     20  C   UNL     1       6.347  -1.889   7.543  0.00  0.00    +0.023 A 
ATOM     21  C   UNL     1       7.291  -1.103   8.173  0.00  0.00    +0.003 A 
ATOM     22  C   UNL     1       7.413  -1.136   9.550  0.00  0.00    +0.020 A 
ATOM     23  C   UNL     1       6.588  -1.954  10.301  0.00  0.00    +0.043 A 
ATOM     24  C   UNL     1       5.638  -2.740   9.676  0.00  0.00    +0.043 A 
ATOM     25 CL   UNL     1       6.746  -1.993  12.030  0.00  0.00    -0.083 Cl
ENDBRANCH  16  19
ENDBRANCH   7  13
BRANCH   1  26
ATOM     26  S   UNL     1      -0.071   1.673   0.057  0.00  0.00    +0.074 S 
ATOM     27  O   UNL     1      -0.644   2.083  -1.177  0.00  0.00    -0.150 OA
ATOM     28  O   UNL     1      -0.616   2.050   1.314  0.00  0.00    -0.150 OA
BRANCH  26  33
ATOM     29  C   UNL     1       5.652   3.583   0.018  0.00  0.00    +0.044 C 
ATOM     30  C   UNL     1       4.223   3.106   0.028  0.00  0.00    -0.050 A 
ATOM     31  C   UNL     1       3.554   2.903  -1.165  0.00  0.00    +0.005 A 
ATOM     32  C   UNL     1       2.243   2.465  -1.156  0.00  0.00    +0.029 A 
ATOM     33  C   UNL     1       1.601   2.230   0.045  0.00  0.00    +0.109 A 
ATOM     34  C   UNL     1       2.268   2.438   1.238  0.00  0.00    +0.029 A 
ATOM     35  C   UNL     1       3.580   2.872   1.229  0.00  0.00    +0.005 A 
ENDBRANCH  26  33
ENDBRANCH   1  26
TORSDOF 4
