REMARK  Name = ZINC16941194
REMARK  6 active torsions:
REMARK  status: ('A' for Active; 'I' for Inactive)
REMARK    1  A    between atoms: C_4  and  C_7
REMARK    2  A    between atoms: C_8  and  C_9
REMARK    3  A    between atoms: C_12  and  N_17
REMARK    4  A    between atoms: N_20  and  C_21
REMARK    5  A    between atoms: C_27  and  C_29
REMARK    6  A    between atoms: C_30  and  C_31
REMARK                            x       y       z     vdW  Elec       q    Type
REMARK                         _______ _______ _______ _____ _____    ______ ____
ROOT
ATOM      1  N   UNL     1       7.003  -4.660  -1.292  0.00  0.00    -0.281 N 
ATOM      2  C   UNL     1       8.149  -3.955  -1.219  0.00  0.00    +0.302 C 
ATOM      3  O   UNL     1       8.537  -3.537  -0.145  0.00  0.00    -0.253 OA
ATOM      4  N   UNL     1       8.864  -3.713  -2.335  0.00  0.00    -0.281 N 
ATOM      5  H   UNL     1       6.692  -4.994  -2.149  0.00  0.00    +0.152 HD
ATOM      6  H   UNL     1       8.554  -4.046  -3.192  0.00  0.00    +0.152 HD
ENDROOT
BRANCH   1  10
ATOM      7  C   UNL     1       4.994  -2.739  -0.061  0.00  0.00    +0.241 C 
ATOM      8  O   UNL     1       6.037  -2.113  -0.068  0.00  0.00    -0.271 OA
ATOM      9  N   UNL     1       5.016  -4.086  -0.069  0.00  0.00    -0.279 N 
ATOM     10  C   UNL     1       6.225  -4.923  -0.079  0.00  0.00    +0.165 C 
ATOM     11  C   UNL     1       5.763  -6.396  -0.057  0.00  0.00    +0.044 C 
ATOM     12  C   UNL     1       4.332  -6.302   0.536  0.00  0.00    +0.022 C 
ATOM     13  C   UNL     1       3.833  -4.965  -0.061  0.00  0.00    +0.110 C 
BRANCH   7  15
ATOM     14  C   UNL     1       3.692  -0.680  -0.037  0.00  0.00    +0.013 C 
ATOM     15  C   UNL     1       3.714  -2.028  -0.045  0.00  0.00    +0.068 C 
BRANCH  14  19
ATOM     16  C   UNL     1      -0.017   1.380   0.010  0.00  0.00    +0.000 A 
ATOM     17  C   UNL     1       1.168   2.095   0.002  0.00  0.00    +0.001 A 
ATOM     18  C   UNL     1       2.377   1.433  -0.013  0.00  0.00    +0.008 A 
ATOM     19  C   UNL     1       2.405   0.035  -0.021  0.00  0.00    -0.025 A 
ATOM     20  C   UNL     1       1.203  -0.681  -0.013  0.00  0.00    +0.008 A 
ATOM     21  C   UNL     1       0.002  -0.004   0.002  0.00  0.00    +0.001 A 
ENDBRANCH  14  19
ENDBRANCH   7  15
ENDBRANCH   1  10
BRANCH   4  22
ATOM     22  C   UNL     1      10.110  -2.946  -2.255  0.00  0.00    +0.165 C 
ATOM     23  N   UNL     1      11.261  -3.843  -2.429  0.00  0.00    -0.279 N 
ATOM     24  C   UNL     1      12.006  -3.428  -3.632  0.00  0.00    +0.110 C 
ATOM     25  C   UNL     1      11.653  -1.932  -3.821  0.00  0.00    +0.022 C 
ATOM     26  C   UNL     1      10.159  -1.905  -3.393  0.00  0.00    +0.044 C 
ATOM     27  C   UNL     1      11.583  -4.873  -1.623  0.00  0.00    +0.241 C 
ATOM     28  O   UNL     1      10.893  -5.125  -0.652  0.00  0.00    -0.271 OA
BRANCH  27  29
ATOM     29  C   UNL     1      12.763  -5.690  -1.914  0.00  0.00    +0.068 C 
ATOM     30  C   UNL     1      13.085  -6.721  -1.107  0.00  0.00    +0.013 C 
BRANCH  30  31
ATOM     31  C   UNL     1      14.271  -7.542  -1.399  0.00  0.00    -0.025 A 
ATOM     32  C   UNL     1      15.070  -7.253  -2.510  0.00  0.00    +0.008 A 
ATOM     33  C   UNL     1      16.179  -8.026  -2.778  0.00  0.00    +0.001 A 
ATOM     34  C   UNL     1      16.503  -9.087  -1.950  0.00  0.00    +0.000 A 
ATOM     35  C   UNL     1      15.718  -9.380  -0.849  0.00  0.00    +0.001 A 
ATOM     36  C   UNL     1      14.609  -8.612  -0.565  0.00  0.00    +0.008 A 
ENDBRANCH  30  31
ENDBRANCH  27  29
ENDBRANCH   4  22
TORSDOF 6
