REMARK  Name = ZINC02339597
REMARK  5 active torsions:
REMARK  status: ('A' for Active; 'I' for Inactive)
REMARK    1  A    between atoms: C_4  and  O_7
REMARK    2  A    between atoms: O_7  and  C_8
REMARK    3  A    between atoms: C_11  and  N_14
REMARK    4  A    between atoms: C_20  and  C_23
REMARK    5  A    between atoms: N_25  and  C_26
REMARK                            x       y       z     vdW  Elec       q    Type
REMARK                         _______ _______ _______ _____ _____    ______ ____
ROOT
ATOM      1  N   UNL     1       3.821  -6.180   0.114  0.00  0.00    -0.215 NA
ATOM      2  C   UNL     1       4.703  -6.776  -0.659  0.00  0.00    +0.219 C 
ATOM      3  N   UNL     1       5.525  -6.056  -1.468  0.00  0.00    -0.179 NA
ATOM      4  C   UNL     1       6.285  -6.618  -2.353  0.00  0.00    +0.251 C 
ATOM      5  O   UNL     1       7.048  -5.830  -3.132  0.00  0.00    -0.271 OA
ATOM      6  C   UNL     1       6.358  -8.105  -2.554  0.00  0.00    +0.132 C 
ATOM      7  C   UNL     1       5.103  -8.775  -1.985  0.00  0.00    +0.168 C 
ATOM      8  N   UNL     1       4.827  -8.159  -0.669  0.00  0.00    -0.302 N 
ATOM      9  H   UNL     1       4.736  -8.688   0.139  0.00  0.00    +0.150 HD
ENDROOT
BRANCH   1  13
ATOM     10  C   UNL     1       3.504  -2.052   0.095  0.00  0.00    +0.129 A 
ATOM     11  C   UNL     1       2.358  -2.834   0.054  0.00  0.00    +0.048 A 
ATOM     12  C   UNL     1       2.459  -4.210   0.060  0.00  0.00    +0.031 A 
ATOM     13  C   UNL     1       3.716  -4.816   0.107  0.00  0.00    +0.068 A 
ATOM     14  C   UNL     1       4.867  -4.024   0.148  0.00  0.00    +0.031 A 
ATOM     15  C   UNL     1       4.756  -2.650   0.137  0.00  0.00    +0.048 A 
BRANCH  10  16
ATOM     16  O   UNL     1       3.400  -0.697   0.089  0.00  0.00    -0.456 OA
BRANCH  16  20
ATOM     17  C   UNL     1       2.218   1.170   3.573  0.00  0.00    +0.000 A 
ATOM     18  C   UNL     1       2.239  -0.210   3.503  0.00  0.00    +0.004 A 
ATOM     19  C   UNL     1       2.635  -0.838   2.338  0.00  0.00    +0.046 A 
ATOM     20  C   UNL     1       3.011  -0.082   1.237  0.00  0.00    +0.128 A 
ATOM     21  C   UNL     1       2.988   1.304   1.310  0.00  0.00    +0.046 A 
ATOM     22  C   UNL     1       2.592   1.926   2.477  0.00  0.00    +0.004 A 
ENDBRANCH  16  20
ENDBRANCH  10  16
ENDBRANCH   1  13
BRANCH   7  23
ATOM     23  C   UNL     1       3.938  -8.551  -2.915  0.00  0.00    +0.238 C 
ATOM     24  O   UNL     1       3.125  -7.685  -2.671  0.00  0.00    -0.273 OA
ATOM     25  N   UNL     1       3.799  -9.314  -4.017  0.00  0.00    -0.284 N 
ATOM     26  H   UNL     1       4.399 -10.062  -4.168  0.00  0.00    +0.155 HD
BRANCH  25  27
ATOM     27  C   UNL     1       2.789  -9.029  -4.944  0.00  0.00    +0.034 A 
ATOM     28  C   UNL     1       2.276 -10.039  -5.746  0.00  0.00    +0.026 A 
ATOM     29  C   UNL     1       1.280  -9.755  -6.660  0.00  0.00    +0.040 A 
ATOM     30  C   UNL     1       0.793  -8.464  -6.776  0.00  0.00    +0.124 A 
ATOM     31  C   UNL     1       1.304  -7.455  -5.977  0.00  0.00    +0.040 A 
ATOM     32  C   UNL     1       2.296  -7.736  -5.058  0.00  0.00    +0.026 A 
ATOM     33  F   UNL     1      -0.181  -8.188  -7.671  0.00  0.00    -0.205 F 
ENDBRANCH  25  27
ENDBRANCH   7  23
TORSDOF 5
