REMARK  Name = ZINC09312774
REMARK  9 active torsions:
REMARK  status: ('A' for Active; 'I' for Inactive)
REMARK    1  A    between atoms: C_1  and  C_2
REMARK    2  A    between atoms: C_3  and  C_34
REMARK    3  A    between atoms: C_4  and  C_25
REMARK    4  A    between atoms: C_6  and  C_23
REMARK    5  A    between atoms: C_7  and  S_9
REMARK    6  A    between atoms: S_9  and  C_10
REMARK    7  A    between atoms: C_10  and  C_11
REMARK    8  A    between atoms: C_30  and  N_31
REMARK    9  A    between atoms: C_34  and  C_36
REMARK                            x       y       z     vdW  Elec       q    Type
REMARK                         _______ _______ _______ _____ _____    ______ ____
ROOT
ATOM      1  C   UNL     1       1.651  -0.019   0.453  0.00  0.00    +0.061 C 
ATOM      2  C   UNL     1       1.148  -1.414   0.188  0.00  0.00    +0.013 C 
ATOM      3  C   UNL     1      -0.177  -1.664   0.239  0.00  0.00    +0.024 C 
ATOM      4  C   UNL     1      -0.732  -3.034  -0.027  0.00  0.00    +0.099 C 
ATOM      5  C   UNL     1       0.351  -4.073   0.052  0.00  0.00    +0.069 C 
ATOM      6  C   UNL     1       1.665  -3.727   0.009  0.00  0.00    +0.080 C 
ATOM      7  N   UNL     1       2.038  -2.405  -0.107  0.00  0.00    -0.312 N 
ATOM      8  H   UNL     1       2.936  -2.178  -0.395  0.00  0.00    +0.152 HD
ENDROOT
BRANCH   4   9
ATOM      9  C   UNL     1      -1.345  -3.063  -1.403  0.00  0.00    -0.005 A 
ATOM     10  C   UNL     1      -0.609  -2.647  -2.497  0.00  0.00    +0.007 A 
ATOM     11  C   UNL     1      -1.171  -2.673  -3.759  0.00  0.00    +0.000 A 
ATOM     12  C   UNL     1      -2.470  -3.115  -3.928  0.00  0.00    +0.002 A 
ATOM     13  C   UNL     1      -3.206  -3.531  -2.834  0.00  0.00    +0.033 A 
ATOM     14  C   UNL     1      -2.642  -3.509  -1.572  0.00  0.00    +0.130 A 
BRANCH  14  15
ATOM     15  N   UNL     1      -3.428  -3.960  -0.402  0.00  0.00    +0.057 N 
ATOM     16  O   UNL     1      -4.310  -4.776  -0.544  0.00  0.00    -0.126 OA
ATOM     17  O   UNL     1      -3.190  -3.513   0.695  0.00  0.00    -0.126 OA
ENDBRANCH  14  15
ENDBRANCH   4   9
BRANCH   3  18
ATOM     18  C   UNL     1      -1.059  -0.617   0.549  0.00  0.00    +0.159 C 
ATOM     19  O   UNL     1      -0.627   0.497   0.766  0.00  0.00    -0.293 OA
ATOM     20  C   UNL     1      -2.543  -0.876   0.612  0.00  0.00    +0.091 C 
ENDBRANCH   3  18
BRANCH   5  21
ATOM     21  C   UNL     1      -0.008  -5.454   0.176  0.00  0.00    +0.098 C 
ATOM     22  N   UNL     1      -0.293  -6.549   0.274  0.00  0.00    -0.191 NA
ENDBRANCH   5  21
BRANCH   6  23
ATOM     23  S   UNL     1       2.901  -4.980   0.096  0.00  0.00    -0.100 S 
BRANCH  23  24
ATOM     24  C   UNL     1       4.463  -4.062   0.004  0.00  0.00    +0.171 C 
BRANCH  24  25
ATOM     25  C   UNL     1       5.618  -5.029   0.069  0.00  0.00    +0.229 C 
ATOM     26  O   UNL     1       5.408  -6.219   0.167  0.00  0.00    -0.275 OA
ATOM     27  N   UNL     1       6.885  -4.570   0.017  0.00  0.00    -0.264 N 
ATOM     28  C   UNL     1       7.946  -5.458   0.076  0.00  0.00    +0.165 A 
ATOM     29  N   UNL     1       7.920  -6.766   0.176  0.00  0.00    -0.225 NA
ATOM     30  C   UNL     1       9.044  -7.513   0.223  0.00  0.00    +0.080 A 
ATOM     31  C   UNL     1       9.155  -8.919   0.330  0.00  0.00    +0.029 A 
ATOM     32  C   UNL     1      10.384  -9.524   0.367  0.00  0.00    +0.002 A 
ATOM     33  C   UNL     1      11.557  -8.787   0.301  0.00  0.00    +0.001 A 
ATOM     34  C   UNL     1      11.487  -7.410   0.196  0.00  0.00    +0.017 A 
ATOM     35  C   UNL     1      10.260  -6.795   0.159  0.00  0.00    +0.041 A 
ATOM     36  S   UNL     1       9.699  -5.114   0.028  0.00  0.00    -0.052 S 
ATOM     37  H   UNL     1       7.053  -3.618  -0.062  0.00  0.00    +0.157 HD
ENDBRANCH  24  25
ENDBRANCH  23  24
ENDBRANCH   6  23
TORSDOF 7
