REMARK  Name = ZINC02154884
REMARK  8 active torsions:
REMARK  status: ('A' for Active; 'I' for Inactive)
REMARK    1  A    between atoms: C_1  and  O_2
REMARK    2  A    between atoms: O_2  and  C_3
REMARK    3  A    between atoms: C_6  and  C_9
REMARK    4  A    between atoms: C_17  and  O_30
REMARK    5  A    between atoms: C_20  and  C_21
REMARK    6  A    between atoms: C_20  and  N_59
REMARK    7  A    between atoms: N_23  and  C_24
REMARK    8  A    between atoms: C_24  and  C_25
REMARK                            x       y       z     vdW  Elec       q    Type
REMARK                         _______ _______ _______ _____ _____    ______ ____
ROOT
ATOM      1  C   UNL     1      -2.205   1.457  -1.218  0.00  0.00    -0.031 C 
ATOM      2  C   UNL     1      -0.772   1.961  -1.394  0.00  0.00    +0.011 C 
ATOM      3  C   UNL     1      -0.206   1.473  -2.729  0.00  0.00    +0.005 C 
ATOM      4  C   UNL     1       1.224   1.994  -2.892  0.00  0.00    +0.000 C 
ATOM      5  C   UNL     1       2.093   1.476  -1.745  0.00  0.00    +0.003 C 
ATOM      6  C   UNL     1       1.520   1.954  -0.408  0.00  0.00    +0.035 C 
ATOM      7  C   UNL     1       0.095   1.425  -0.252  0.00  0.00    +0.066 C 
ATOM      8  C   UNL     1      -0.492   1.889   1.083  0.00  0.00    +0.016 C 
ATOM      9  C   UNL     1      -1.938   1.394   1.192  0.00  0.00    -0.075 C 
ATOM     10  N   UNL     1      -2.728   1.952   0.074  0.00  0.00    +0.390 N 
ATOM     11  H   UNL     1      -2.653   2.976   0.092  0.00  0.00    -0.080 HD
ENDROOT
BRANCH   1  15
ATOM     12  C   UNL     1      -2.234  -2.816  -1.319  0.00  0.00    +0.120 A 
ATOM     13  C   UNL     1      -1.750  -2.098  -2.403  0.00  0.00    +0.046 A 
ATOM     14  C   UNL     1      -1.742  -0.717  -2.369  0.00  0.00    +0.005 A 
ATOM     15  C   UNL     1      -2.215  -0.050  -1.254  0.00  0.00    -0.060 A 
ATOM     16  C   UNL     1      -2.693  -0.763  -0.170  0.00  0.00    +0.005 A 
ATOM     17  C   UNL     1      -2.708  -2.143  -0.202  0.00  0.00    +0.046 A 
BRANCH  12  19
ATOM     18  C   UNL     1      -2.755  -4.847  -0.198  0.00  0.00    +0.277 C 
ATOM     19  O   UNL     1      -2.242  -4.174  -1.350  0.00  0.00    -0.495 OA
ENDBRANCH  12  19
ENDBRANCH   1  15
BRANCH   7  20
ATOM     20  O   UNL     1       0.110  -0.004  -0.295  0.00  0.00    -0.388 OA
ATOM     21  H   UNL     1       0.643  -0.413   0.400  0.00  0.00    +0.210 HD
ENDBRANCH   7  20
BRANCH  10  22
ATOM     22  C   UNL     1      -4.148   1.573   0.221  0.00  0.00    +0.019 C 
BRANCH  22  23
ATOM     23  C   UNL     1      -4.752   2.388   1.336  0.00  0.00    +0.197 C 
ATOM     24  O   UNL     1      -4.067   3.181   1.947  0.00  0.00    -0.278 OA
ATOM     25  N   UNL     1      -6.052   2.236   1.654  0.00  0.00    -0.310 N 
ATOM     26  H   UNL     1      -6.600   1.601   1.165  0.00  0.00    +0.149 HD
BRANCH  25  27
ATOM     27  C   UNL     1      -6.639   3.028   2.738  0.00  0.00    +0.178 C 
BRANCH  27  28
ATOM     28  C   UNL     1      -8.095   2.671   2.890  0.00  0.00    +0.122 A 
ATOM     29  C   UNL     1      -8.589   1.700   3.680  0.00  0.00    +0.046 A 
ATOM     30  C   UNL     1      -9.993   1.715   3.517  0.00  0.00    +0.041 A 
ATOM     31  C   UNL     1     -10.273   2.688   2.632  0.00  0.00    +0.195 A 
ATOM     32  O   UNL     1      -9.120   3.264   2.255  0.00  0.00    -0.466 OA
ENDBRANCH  27  28
ENDBRANCH  25  27
ENDBRANCH  22  23
ENDBRANCH  10  22
TORSDOF 7
