REMARK  Name = ZINC25468289
REMARK  10 active torsions:
REMARK  status: ('A' for Active; 'I' for Inactive)
REMARK    1  A    between atoms: C_1  and  C_2
REMARK    2  A    between atoms: C_5  and  S_8
REMARK    3  A    between atoms: S_8  and  N_11
REMARK    4  A    between atoms: C_15  and  C_17
REMARK    5  A    between atoms: N_19  and  C_20
REMARK    6  A    between atoms: C_24  and  N_26
REMARK    7  A    between atoms: C_27  and  C_29
REMARK    8  A    between atoms: C_29  and  C_30
REMARK    9  A    between atoms: C_29  and  C_31
REMARK   10  A    between atoms: C_29  and  C_32
REMARK                            x       y       z     vdW  Elec       q    Type
REMARK                         _______ _______ _______ _____ _____    ______ ____
ROOT
ATOM      1  C   UNL     1      -0.030   1.178   0.171  0.00  0.00    +0.236 C 
ATOM      2  O   UNL     1      -0.039  -0.027   0.305  0.00  0.00    -0.274 OA
ATOM      3  N   UNL     1      -1.189   1.848   0.018  0.00  0.00    -0.284 N 
ATOM      4  H   UNL     1      -1.188   2.947  -0.020  0.00  0.00    +0.155 HD
ENDROOT
BRANCH   3   5
ATOM      5  C   UNL     1      -2.394   1.145  -0.094  0.00  0.00    +0.035 A 
ATOM      6  C   UNL     1      -2.421  -0.094  -0.722  0.00  0.00    +0.023 A 
ATOM      7  C   UNL     1      -3.610  -0.789  -0.831  0.00  0.00    +0.004 A 
ATOM      8  C   UNL     1      -4.776  -0.254  -0.318  0.00  0.00    +0.023 A 
ATOM      9  C   UNL     1      -4.756   0.984   0.311  0.00  0.00    +0.035 A 
ATOM     10  C   UNL     1      -3.562   1.682   0.428  0.00  0.00    +0.046 A 
BRANCH   9  11
ATOM     11  N   UNL     1      -5.937   1.525   0.830  0.00  0.00    -0.285 N 
ATOM     12  C   UNL     1      -6.864   0.716   1.381  0.00  0.00    +0.223 C 
ATOM     13  O   UNL     1      -6.712  -0.487   1.352  0.00  0.00    -0.275 OA
ATOM     14  H   UNL     1      -6.110   2.611   0.789  0.00  0.00    +0.155 HD
BRANCH  12  15
ATOM     15  C   UNL     1      -8.087   1.306   2.033  0.00  0.00    +0.039 C 
ATOM     16  C   UNL     1      -8.970   0.180   2.575  0.00  0.00    +0.020 C 
ATOM     17  C   UNL     1      -7.662   2.219   3.185  0.00  0.00    +0.020 C 
ATOM     18  C   UNL     1      -8.873   2.119   1.002  0.00  0.00    +0.020 C 
ENDBRANCH  12  15
ENDBRANCH   9  11
ENDBRANCH   3   5
BRANCH   1  23
ATOM     19  N   UNL     1       2.393   0.984   0.345  0.00  0.00    -0.165 NA
ATOM     20  C   UNL     1       3.259   1.048  -0.847  0.00  0.00    +0.110 C 
ATOM     21  C   UNL     1       3.001   2.452  -1.449  0.00  0.00    +0.019 C 
ATOM     22  C   UNL     1       1.481   2.627  -1.190  0.00  0.00    +0.031 C 
ATOM     23  C   UNL     1       1.278   1.926   0.170  0.00  0.00    +0.166 C 
BRANCH  19  24
ATOM     24  S   UNL     1       2.637   0.011   1.663  0.00  0.00    +0.062 S 
ATOM     25  O   UNL     1       4.026  -0.287   1.696  0.00  0.00    -0.153 OA
ATOM     26  O   UNL     1       1.964   0.628   2.753  0.00  0.00    -0.153 OA
BRANCH  24  31
ATOM     27  C   UNL     1      -0.222  -5.194   0.597  0.00  0.00    +0.044 C 
ATOM     28  C   UNL     1       0.492  -3.893   0.863  0.00  0.00    -0.050 A 
ATOM     29  C   UNL     1       1.810  -3.737   0.477  0.00  0.00    +0.005 A 
ATOM     30  C   UNL     1       2.465  -2.545   0.721  0.00  0.00    +0.029 A 
ATOM     31  C   UNL     1       1.802  -1.508   1.351  0.00  0.00    +0.106 A 
ATOM     32  C   UNL     1       0.485  -1.666   1.742  0.00  0.00    +0.029 A 
ATOM     33  C   UNL     1      -0.172  -2.857   1.493  0.00  0.00    +0.005 A 
ENDBRANCH  24  31
ENDBRANCH  19  24
ENDBRANCH   1  23
TORSDOF 6
