REMARK  Name = ZINC42015106
REMARK  4 active torsions:
REMARK  status: ('A' for Active; 'I' for Inactive)
REMARK    1  A    between atoms: C_3  and  C_9
REMARK    2  A    between atoms: C_4  and  N_8
REMARK    3  A    between atoms: C_6  and  N_7
REMARK    4  A    between atoms: N_13  and  C_14
REMARK                            x       y       z     vdW  Elec       q    Type
REMARK                         _______ _______ _______ _____ _____    ______ ____
ROOT
ATOM      1  C   UNL     1       3.695   2.161  -0.048  0.00  0.00    +0.184 A 
ATOM      2  N   UNL     1       4.900   1.632   0.013  0.00  0.00    -0.108 NA
ATOM      3  N   UNL     1       5.798   2.548  -0.050  0.00  0.00    -0.023 NA
ATOM      4  N   UNL     1       5.251   3.710  -0.154  0.00  0.00    -0.043 NA
ATOM      5  N   UNL     1       3.860   3.509  -0.163  0.00  0.00    -0.222 N 
ENDROOT
BRANCH   5   6
ATOM      6  C   UNL     1       2.813   4.528  -0.271  0.00  0.00    +0.111 C 
ATOM      7  C   UNL     1       2.906   5.214  -1.635  0.00  0.00    +0.027 C 
ATOM      8  C   UNL     1       1.609   5.976  -1.913  0.00  0.00    +0.002 C 
ATOM      9  C   UNL     1       0.412   5.105  -1.527  0.00  0.00    +0.000 C 
ATOM     10  C   UNL     1      -0.305   5.726  -0.327  0.00  0.00    +0.000 C 
ATOM     11  C   UNL     1       0.504   5.459   0.944  0.00  0.00    +0.000 C 
ATOM     12  C   UNL     1       1.716   6.391   0.982  0.00  0.00    +0.002 C 
ATOM     13  C   UNL     1       2.998   5.568   0.836  0.00  0.00    +0.027 C 
ENDBRANCH   5   6
BRANCH   1  16
ATOM     14  C   UNL     1       0.235   1.002  -0.926  0.00  0.00    +0.023 A 
ATOM     15  C   UNL     1       1.431   1.683  -0.967  0.00  0.00    +0.015 A 
ATOM     16  C   UNL     1       2.411   1.433  -0.005  0.00  0.00    +0.041 A 
ATOM     17  C   UNL     1       2.172   0.485   1.002  0.00  0.00    +0.037 A 
ATOM     18  C   UNL     1       0.965  -0.195   1.035  0.00  0.00    +0.046 A 
ATOM     19  C   UNL     1      -0.003   0.062   0.073  0.00  0.00    +0.026 A 
BRANCH  19  20
ATOM     20  N   UNL     1      -1.216  -0.623   0.107  0.00  0.00    -0.358 N 
ATOM     21  H   UNL     1      -1.893  -0.445  -0.564  0.00  0.00    +0.142 HD
ATOM     22  H   UNL     1      -1.383  -1.279   0.803  0.00  0.00    +0.142 HD
ENDBRANCH  19  20
BRANCH  17  23
ATOM     23  N   UNL     1       3.145   0.229   1.965  0.00  0.00    -0.357 N 
ATOM     24  H   UNL     1       3.950   0.769   1.997  0.00  0.00    +0.142 HD
ATOM     25  H   UNL     1       3.017  -0.489   2.604  0.00  0.00    +0.142 HD
ENDBRANCH  17  23
ENDBRANCH   1  16
TORSDOF 4
