REMARK  Name = ZINC35703566
REMARK  11 active torsions:
REMARK  status: ('A' for Active; 'I' for Inactive)
REMARK    1  A    between atoms: C_1  and  C_2
REMARK    2  A    between atoms: C_2  and  O_3
REMARK    3  A    between atoms: O_3  and  C_4
REMARK    4  A    between atoms: C_4  and  C_6
REMARK    5  A    between atoms: C_7  and  C_34
REMARK    6  A    between atoms: C_11  and  C_13
REMARK    7  A    between atoms: C_18  and  C_19
REMARK    8  A    between atoms: C_20  and  C_23
REMARK    9  A    between atoms: C_24  and  N_26
REMARK   10  A    between atoms: N_26  and  C_27
REMARK   11  A    between atoms: C_27  and  C_28
REMARK                            x       y       z     vdW  Elec       q    Type
REMARK                         _______ _______ _______ _____ _____    ______ ____
ROOT
ATOM      1  C   UNL     1       1.409  -1.943  -2.453  0.00  0.00    +0.091 C 
ATOM      2  C   UNL     1       1.544  -3.311  -2.594  0.00  0.00    +0.158 C 
ATOM      3  N   UNL     1       2.151  -3.819  -3.654  0.00  0.00    -0.220 NA
ATOM      4  C   UNL     1       2.664  -3.110  -4.638  0.00  0.00    +0.166 C 
ATOM      5  N   UNL     1       2.635  -1.744  -4.690  0.00  0.00    -0.267 N 
ATOM      6  C   UNL     1       1.969  -1.063  -3.547  0.00  0.00    +0.150 C 
ATOM      7  C   UNL     1       3.216  -1.145  -5.790  0.00  0.00    +0.048 C 
ATOM      8  C   UNL     1       3.766  -1.952  -6.725  0.00  0.00    +0.072 C 
ATOM      9  S   UNL     1       3.459  -3.569  -6.043  0.00  0.00    -0.060 S 
ENDROOT
BRANCH   6  10
ATOM     10  C   UNL     1       0.841  -0.227  -4.093  0.00  0.00    -0.019 A 
ATOM     11  C   UNL     1       0.096  -0.685  -5.164  0.00  0.00    +0.006 A 
ATOM     12  C   UNL     1      -0.939   0.081  -5.665  0.00  0.00    +0.000 A 
ATOM     13  C   UNL     1      -1.230   1.307  -5.095  0.00  0.00    +0.000 A 
ATOM     14  C   UNL     1      -0.486   1.765  -4.024  0.00  0.00    +0.004 A 
ATOM     15  C   UNL     1       0.547   0.996  -3.520  0.00  0.00    -0.045 A 
ATOM     16  C   UNL     1       1.355   1.493  -2.349  0.00  0.00    +0.044 C 
ENDBRANCH   6  10
BRANCH   2  17
ATOM     17  C   UNL     1       0.997  -4.231  -1.533  0.00  0.00    +0.435 C 
ATOM     18  F   UNL     1       0.272  -3.485  -0.598  0.00  0.00    -0.164 F 
ATOM     19  F   UNL     1       0.156  -5.179  -2.126  0.00  0.00    -0.164 F 
ATOM     20  F   UNL     1       2.055  -4.883  -0.890  0.00  0.00    -0.164 F 
ENDBRANCH   2  17
BRANCH   7  21
ATOM     21  C   UNL     1       3.236   0.317  -5.939  0.00  0.00    +0.091 C 
ATOM     22  C   UNL     1       3.682   0.871  -7.083  0.00  0.00    +0.239 C 
ATOM     23  O   UNL     1       3.987   0.084  -8.143  0.00  0.00    -0.271 OA
BRANCH  22  24
ATOM     24  N   UNL     1       3.828   2.245  -7.175  0.00  0.00    -0.308 N 
ATOM     25  H   UNL     1       3.681   2.802  -6.395  0.00  0.00    +0.149 HD
BRANCH  24  26
ATOM     26  C   UNL     1       4.205   2.857  -8.452  0.00  0.00    +0.141 C 
BRANCH  26  27
ATOM     27  C   UNL     1       4.414   4.337  -8.257  0.00  0.00    -0.012 A 
ATOM     28  C   UNL     1       3.357   5.221  -8.407  0.00  0.00    +0.008 A 
ATOM     29  C   UNL     1       3.596   6.574  -8.218  0.00  0.00    +0.020 A 
ATOM     30  C   UNL     1       4.872   6.992  -7.889  0.00  0.00    +0.111 A 
ATOM     31  N   UNL     1       5.853   6.122  -7.755  0.00  0.00    -0.263 NA
ATOM     32  C   UNL     1       5.661   4.828  -7.921  0.00  0.00    +0.115 A 
ENDBRANCH  26  27
ENDBRANCH  24  26
ENDBRANCH  22  24
ENDBRANCH   7  21
BRANCH   1  33
ATOM     33  C   UNL     1       0.770  -1.391  -1.336  0.00  0.00    +0.339 C 
ATOM     34  O   UNL     1      -0.396  -1.044  -1.412  0.00  0.00    -0.245 OA
BRANCH  33  35
ATOM     35  O   UNL     1       1.445  -1.243  -0.175  0.00  0.00    -0.462 OA
BRANCH  35  37
ATOM     36  C   UNL     1       1.653  -0.551   2.131  0.00  0.00    +0.048 C 
ATOM     37  C   UNL     1       0.704  -0.767   0.950  0.00  0.00    +0.229 C 
ENDBRANCH  35  37
ENDBRANCH  33  35
ENDBRANCH   1  33
TORSDOF 9
