REMARK  Name = ZINC14849231
REMARK  7 active torsions:
REMARK  status: ('A' for Active; 'I' for Inactive)
REMARK    1  A    between atoms: C_8  and  C_13
REMARK    2  A    between atoms: C_13  and  C_14
REMARK    3  A    between atoms: C_14  and  C_15
REMARK    4  A    between atoms: N_17  and  C_18
REMARK    5  A    between atoms: C_22  and  C_24
REMARK    6  A    between atoms: N_26  and  C_27
REMARK    7  A    between atoms: C_31  and  C_33
REMARK                            x       y       z     vdW  Elec       q    Type
REMARK                         _______ _______ _______ _____ _____    ______ ____
ROOT
ATOM      1  C   UNL     1       2.325   9.316  -0.347  0.00  0.00    +0.034 A 
ATOM      2  C   UNL     1       2.263   8.066   0.259  0.00  0.00    +0.023 A 
ATOM      3  C   UNL     1       1.058   7.397   0.352  0.00  0.00    +0.003 A 
ATOM      4  C   UNL     1      -0.093   7.965  -0.156  0.00  0.00    +0.013 A 
ATOM      5  C   UNL     1      -0.042   9.219  -0.766  0.00  0.00    +0.039 A 
ATOM      6  C   UNL     1       1.176   9.892  -0.866  0.00  0.00    +0.036 A 
ENDROOT
BRANCH   1   9
ATOM      7  C   UNL     1       3.588  11.332  -0.327  0.00  0.00    +0.217 C 
ATOM      8  O   UNL     1       2.557  11.964  -0.231  0.00  0.00    -0.275 OA
ATOM      9  N   UNL     1       3.548   9.990  -0.439  0.00  0.00    -0.285 N 
ATOM     10  H   UNL     1       4.367   9.490  -0.582  0.00  0.00    +0.155 HD
BRANCH   7  11
ATOM     11  C   UNL     1       4.914  12.049  -0.321  0.00  0.00    +0.097 C 
BRANCH  11  12
ATOM     12  C   UNL     1       4.679  13.554  -0.184  0.00  0.00    +0.022 C 
BRANCH  12  20
ATOM     13  C   UNL     1       3.717  18.050  -2.086  0.00  0.00    +0.000 A 
ATOM     14  C   UNL     1       4.050  17.610  -3.354  0.00  0.00    +0.002 A 
ATOM     15  C   UNL     1       4.941  16.568  -3.513  0.00  0.00    +0.023 A 
ATOM     16  C   UNL     1       5.503  15.960  -2.397  0.00  0.00    +0.037 A 
ATOM     17  C   UNL     1       5.175  16.412  -1.127  0.00  0.00    -0.025 A 
ATOM     18  C   UNL     1       4.279  17.452  -0.974  0.00  0.00    +0.005 A 
ATOM     19  C   UNL     1       5.798  15.770   0.087  0.00  0.00    +0.049 C 
ATOM     20  C   UNL     1       6.025  14.282  -0.178  0.00  0.00    +0.080 C 
ATOM     21  C   UNL     1       6.699  14.100  -1.513  0.00  0.00    +0.221 C 
ATOM     22  O   UNL     1       7.540  13.236  -1.648  0.00  0.00    -0.275 OA
ATOM     23  N   UNL     1       6.378  14.882  -2.556  0.00  0.00    -0.285 N 
ATOM     24  H   UNL     1       6.758  14.697  -3.429  0.00  0.00    +0.155 HD
ENDBRANCH  12  20
ENDBRANCH  11  12
ENDBRANCH   7  11
ENDBRANCH   1   9
BRANCH   5  25
ATOM     25  C   UNL     1      -1.273   9.830  -1.311  0.00  0.00    +0.248 C 
ATOM     26  O   UNL     1      -1.226  10.922  -1.842  0.00  0.00    -0.270 OA
ATOM     27  N   UNL     1      -2.448   9.175  -1.219  0.00  0.00    -0.281 N 
ATOM     28  H   UNL     1      -2.500   8.339  -0.731  0.00  0.00    +0.155 HD
BRANCH  27  29
ATOM     29  C   UNL     1      -3.591   9.703  -1.827  0.00  0.00    +0.034 A 
ATOM     30  C   UNL     1      -4.838   9.517  -1.244  0.00  0.00    +0.023 A 
ATOM     31  C   UNL     1      -5.966  10.038  -1.847  0.00  0.00    +0.002 A 
ATOM     32  C   UNL     1      -5.855  10.745  -3.030  0.00  0.00    +0.012 A 
ATOM     33  C   UNL     1      -4.616  10.927  -3.616  0.00  0.00    +0.057 A 
ATOM     34  C   UNL     1      -3.483  10.413  -3.015  0.00  0.00    +0.035 A 
BRANCH  33  35
ATOM     35  C   UNL     1      -4.500  11.693  -4.909  0.00  0.00    +0.417 C 
ATOM     36  F   UNL     1      -5.770  12.115  -5.316  0.00  0.00    -0.166 F 
ATOM     37  F   UNL     1      -3.676  12.807  -4.719  0.00  0.00    -0.166 F 
ATOM     38  F   UNL     1      -3.946  10.866  -5.893  0.00  0.00    -0.166 F 
ENDBRANCH  33  35
ENDBRANCH  27  29
ENDBRANCH   5  25
TORSDOF 7
