REMARK  Name = ZINC09435604
REMARK  5 active torsions:
REMARK  status: ('A' for Active; 'I' for Inactive)
REMARK    1  A    between atoms: C_6  and  C_7
REMARK    2  A    between atoms: C_7  and  N_8
REMARK    3  A    between atoms: C_9  and  C_11
REMARK    4  A    between atoms: C_16  and  C_31
REMARK    5  A    between atoms: C_19  and  C_22
REMARK                            x       y       z     vdW  Elec       q    Type
REMARK                         _______ _______ _______ _____ _____    ______ ____
ROOT
ATOM      1  C   UNL     1       5.694  -1.818  -3.081  0.00  0.00    +0.149 A 
ATOM      2  C   UNL     1       6.873  -2.478  -3.496  0.00  0.00    +0.078 A 
ATOM      3  C   UNL     1       6.884  -2.484  -4.843  0.00  0.00    +0.119 A 
ATOM      4  N   UNL     1       5.753  -1.854  -5.281  0.00  0.00    -0.238 N 
ATOM      5  N   UNL     1       5.027  -1.451  -4.161  0.00  0.00    -0.164 NA
ATOM      6  C   UNL     1       5.419  -1.673  -6.696  0.00  0.00    +0.215 C 
ATOM      7  C   UNL     1       6.224  -2.678  -7.528  0.00  0.00    +0.063 C 
ATOM      8  C   UNL     1       7.705  -2.612  -7.136  0.00  0.00    +0.104 C 
ATOM      9  N   UNL     1       7.834  -3.014  -5.722  0.00  0.00    -0.322 N 
ATOM     10  H   UNL     1       8.537  -3.610  -5.419  0.00  0.00    +0.148 HD
ENDROOT
BRANCH   8  11
ATOM     11  C   UNL     1       8.504  -3.550  -8.004  0.00  0.00    -0.024 A 
ATOM     12  C   UNL     1       8.518  -4.904  -7.725  0.00  0.00    +0.009 A 
ATOM     13  C   UNL     1       9.245  -5.769  -8.522  0.00  0.00    +0.050 A 
ATOM     14  C   UNL     1       9.972  -5.279  -9.594  0.00  0.00    +0.166 A 
ATOM     15  C   UNL     1       9.962  -3.914  -9.871  0.00  0.00    +0.167 A 
ATOM     16  C   UNL     1       9.226  -3.054  -9.073  0.00  0.00    +0.055 A 
ATOM     17  O   UNL     1      10.746  -3.685 -10.965  0.00  0.00    -0.453 OA
ATOM     18  C   UNL     1      11.561  -4.864 -11.107  0.00  0.00    +0.466 C 
ATOM     19  O   UNL     1      10.762  -5.905 -10.514  0.00  0.00    -0.453 OA
ENDBRANCH   8  11
BRANCH   1  21
ATOM     20  N   UNL     1       4.124  -0.939  -1.423  0.00  0.00    -0.306 N 
ATOM     21  C   UNL     1       5.278  -1.585  -1.683  0.00  0.00    +0.264 C 
ATOM     22  O   UNL     1       5.976  -1.975  -0.768  0.00  0.00    -0.268 OA
ATOM     23  H   UNL     1       3.567  -0.627  -2.154  0.00  0.00    +0.149 HD
BRANCH  20  24
ATOM     24  C   UNL     1       3.711  -0.707  -0.037  0.00  0.00    +0.140 C 
BRANCH  24  30
ATOM     25  C   UNL     1       1.208  -0.678  -0.013  0.00  0.00    +0.008 A 
ATOM     26  C   UNL     1       0.002  -0.004   0.002  0.00  0.00    +0.038 A 
ATOM     27  C   UNL     1      -0.017   1.380   0.010  0.00  0.00    +0.123 A 
ATOM     28  C   UNL     1       1.173   2.088   0.002  0.00  0.00    +0.038 A 
ATOM     29  C   UNL     1       2.379   1.412  -0.013  0.00  0.00    +0.008 A 
ATOM     30  C   UNL     1       2.396   0.029  -0.021  0.00  0.00    -0.030 A 
ATOM     31  F   UNL     1      -1.195   2.040   0.019  0.00  0.00    -0.205 F 
ENDBRANCH  24  30
ENDBRANCH  20  24
ENDBRANCH   1  21
BRANCH   6  32
ATOM     32  C   UNL     1       3.923  -1.917  -6.905  0.00  0.00    +0.412 C 
ATOM     33  F   UNL     1       3.602  -3.218  -6.502  0.00  0.00    -0.168 F 
ATOM     34  F   UNL     1       3.190  -0.999  -6.145  0.00  0.00    -0.168 F 
ATOM     35  F   UNL     1       3.609  -1.757  -8.259  0.00  0.00    -0.168 F 
ENDBRANCH   6  32
TORSDOF 5
