REMARK  Name = ZINC12309225
REMARK  10 active torsions:
REMARK  status: ('A' for Active; 'I' for Inactive)
REMARK    1  A    between atoms: C_1  and  C_2
REMARK    2  A    between atoms: C_2  and  C_3
REMARK    3  A    between atoms: C_2  and  S_4
REMARK    4  A    between atoms: S_4  and  C_7
REMARK    5  A    between atoms: C_11  and  C_13
REMARK    6  A    between atoms: C_13  and  N_15
REMARK    7  A    between atoms: N_17  and  C_29
REMARK    8  A    between atoms: C_21  and  S_25
REMARK    9  A    between atoms: S_25  and  N_28
REMARK   10  A    between atoms: C_29  and  C_30
REMARK                            x       y       z     vdW  Elec       q    Type
REMARK                         _______ _______ _______ _____ _____    ______ ____
ROOT
ATOM      1  N   UNL     1      -1.695  -6.414   3.003  0.00  0.00    -0.152 NA
ATOM      2  C   UNL     1      -1.316  -6.937   4.164  0.00  0.00    +0.167 A 
ATOM      3  N   UNL     1      -1.149  -6.298   5.351  0.00  0.00    -0.317 N 
ATOM      4  C   UNL     1      -0.747  -7.011   6.465  0.00  0.00    +0.058 A 
ATOM      5  C   UNL     1      -0.516  -6.557   7.771  0.00  0.00    +0.029 A 
ATOM      6  C   UNL     1      -0.115  -7.430   8.755  0.00  0.00    +0.030 A 
ATOM      7  C   UNL     1       0.072  -8.776   8.487  0.00  0.00    +0.106 A 
ATOM      8  C   UNL     1      -0.150  -9.249   7.206  0.00  0.00    +0.045 A 
ATOM      9  C   UNL     1      -0.551  -8.378   6.221  0.00  0.00    +0.041 A 
ATOM     10  S   UNL     1      -0.943  -8.541   4.499  0.00  0.00    -0.052 S 
ENDROOT
BRANCH   7  11
ATOM     11  S   UNL     1       0.588  -9.874   9.765  0.00  0.00    +0.056 S 
ATOM     12  O   UNL     1       1.214 -10.976   9.124  0.00  0.00    -0.153 OA
ATOM     13  O   UNL     1       1.252  -9.080  10.739  0.00  0.00    -0.153 OA
BRANCH  11  14
ATOM     14  N   UNL     1      -0.782 -10.462  10.487  0.00  0.00    -0.204 NA
ATOM     15  H   UNL     1      -1.655 -10.178  10.174  0.00  0.00    +0.144 HD
ATOM     16  H   UNL     1      -0.711 -11.090  11.223  0.00  0.00    +0.144 HD
ENDBRANCH  11  14
ENDBRANCH   7  11
BRANCH   1  17
ATOM     17  C   UNL     1      -1.740  -5.087   2.851  0.00  0.00    +0.269 C 
ATOM     18  O   UNL     1      -2.804  -4.499   2.947  0.00  0.00    -0.268 OA
BRANCH  17  23
ATOM     19  C   UNL     1       0.616  -2.247   2.140  0.00  0.00    +0.089 A 
ATOM     20  C   UNL     1       1.821  -2.918   2.032  0.00  0.00    +0.027 A 
ATOM     21  C   UNL     1       1.872  -4.291   2.189  0.00  0.00    +0.003 A 
ATOM     22  C   UNL     1       0.719  -5.001   2.455  0.00  0.00    +0.013 A 
ATOM     23  C   UNL     1      -0.499  -4.331   2.566  0.00  0.00    +0.041 A 
ATOM     24  C   UNL     1      -0.543  -2.945   2.412  0.00  0.00    +0.040 A 
BRANCH  19  25
ATOM     25  S   UNL     1       0.562  -0.498   1.938  0.00  0.00    -0.001 S 
ATOM     26  O   UNL     1      -0.764  -0.224   1.504  0.00  0.00    -0.169 OA
ATOM     27  O   UNL     1       1.673  -0.194   1.107  0.00  0.00    -0.169 OA
BRANCH  25  29
ATOM     28  C   UNL     1       0.674   1.695   3.570  0.00  0.00    +0.032 C 
ATOM     29  C   UNL     1       0.825   0.173   3.603  0.00  0.00    +0.130 C 
ATOM     30  C   UNL     1      -0.209  -0.422   4.561  0.00  0.00    +0.032 C 
ENDBRANCH  25  29
ENDBRANCH  19  25
ENDBRANCH  17  23
ENDBRANCH   1  17
BRANCH   3  31
ATOM     31  C   UNL     1      -1.394  -4.857   5.450  0.00  0.00    +0.151 C 
BRANCH  31  32
ATOM     32  C   UNL     1      -2.867  -4.610   5.647  0.00  0.00    -0.013 C 
ATOM     33  C   UNL     1      -3.282  -3.905   6.670  0.00  0.00    +0.005 C 
ENDBRANCH  31  32
ENDBRANCH   3  31
TORSDOF 8
