REMARK  Name = ZINC23482006
REMARK  11 active torsions:
REMARK  status: ('A' for Active; 'I' for Inactive)
REMARK    1  A    between atoms: C_1  and  C_2
REMARK    2  A    between atoms: C_7  and  N_8
REMARK    3  A    between atoms: C_9  and  C_11
REMARK    4  A    between atoms: C_11  and  N_12
REMARK    5  A    between atoms: N_12  and  C_13
REMARK    6  A    between atoms: C_14  and  C_16
REMARK    7  A    between atoms: C_16  and  C_18
REMARK    8  A    between atoms: C_16  and  N_21
REMARK    9  A    between atoms: C_18  and  C_19
REMARK   10  A    between atoms: C_18  and  C_20
REMARK   11  A    between atoms: C_22  and  C_24
REMARK                            x       y       z     vdW  Elec       q    Type
REMARK                         _______ _______ _______ _____ _____    ______ ____
ROOT
ATOM      1  N   UNL     1       1.275   1.427  -2.828  0.00  0.00    -0.294 N 
ATOM      2  C   UNL     1       2.354   2.138  -2.136  0.00  0.00    +0.132 C 
ATOM      3  C   UNL     1       0.045   1.370  -2.279  0.00  0.00    +0.236 C 
ATOM      4  O   UNL     1      -0.868   0.856  -2.889  0.00  0.00    -0.274 OA
ENDROOT
BRANCH   1   5
ATOM      5  C   UNL     1       1.533   0.779  -4.116  0.00  0.00    +0.203 C 
BRANCH   5   7
ATOM      6  N   UNL     1       1.436   1.376  -6.514  0.00  0.00    -0.284 N 
ATOM      7  C   UNL     1       1.264   1.755  -5.232  0.00  0.00    +0.235 C 
ATOM      8  O   UNL     1       0.894   2.881  -4.977  0.00  0.00    -0.274 OA
ATOM      9  H   UNL     1       1.692   0.332  -6.750  0.00  0.00    +0.155 HD
BRANCH   6  16
ATOM     10  C   UNL     1       2.964   1.012  -8.886  0.00  0.00    +0.046 C 
ATOM     11  C   UNL     1       2.015   2.170  -8.720  0.00  0.00    -0.028 A 
ATOM     12  C   UNL     1       1.863   3.091  -9.739  0.00  0.00    +0.020 A 
ATOM     13  C   UNL     1       0.996   4.158  -9.585  0.00  0.00    +0.018 A 
ATOM     14  C   UNL     1       0.274   4.303  -8.413  0.00  0.00    +0.017 A 
ATOM     15  C   UNL     1       0.418   3.382  -7.394  0.00  0.00    +0.024 A 
ATOM     16  C   UNL     1       1.288   2.310  -7.546  0.00  0.00    +0.036 A 
ATOM     17 BR   UNL     1       0.796   5.421 -10.979  0.00  0.00    -0.050 Br
ENDBRANCH   6  16
ENDBRANCH   5   7
ENDBRANCH   1   5
BRANCH   3  18
ATOM     18  C   UNL     1      -0.195   1.946  -0.907  0.00  0.00    +0.162 C 
BRANCH  18  19
ATOM     19  N   UNL     1      -1.545   2.511  -0.843  0.00  0.00    -0.300 N 
ATOM     20  C   UNL     1      -1.825   3.490   0.039  0.00  0.00    +0.250 C 
ATOM     21  O   UNL     1      -0.957   3.905   0.783  0.00  0.00    -0.270 OA
ATOM     22  H   UNL     1      -2.330   2.135  -1.516  0.00  0.00    +0.150 HD
BRANCH  20  23
ATOM     23  C   UNL     1      -3.184   4.059   0.103  0.00  0.00    +0.107 A 
ATOM     24  C   UNL     1      -4.143   3.497   0.952  0.00  0.00    +0.138 A 
ATOM     25  C   UNL     1      -5.413   4.039   1.010  0.00  0.00    +0.039 A 
ATOM     26  C   UNL     1      -5.740   5.128   0.222  0.00  0.00    +0.006 A 
ATOM     27  C   UNL     1      -4.801   5.687  -0.624  0.00  0.00    +0.039 A 
ATOM     28  C   UNL     1      -3.524   5.160  -0.690  0.00  0.00    +0.138 A 
ATOM     29  F   UNL     1      -2.607   5.708  -1.518  0.00  0.00    -0.205 F 
ATOM     30  F   UNL     1      -3.827   2.429   1.718  0.00  0.00    -0.205 F 
ENDBRANCH  20  23
ENDBRANCH  18  19
BRANCH  18  31
ATOM     31  C   UNL     1      -0.055   0.840   0.141  0.00  0.00    +0.012 C 
ATOM     32  C   UNL     1      -1.116  -0.234  -0.106  0.00  0.00    +0.009 C 
ATOM     33  C   UNL     1       1.338   0.214   0.040  0.00  0.00    +0.009 C 
ENDBRANCH  18  31
ENDBRANCH   3  18
TORSDOF 7
