REMARK  Name = ZINC09628040
REMARK  6 active torsions:
REMARK  status: ('A' for Active; 'I' for Inactive)
REMARK    1  A    between atoms: C_1  and  C_2
REMARK    2  A    between atoms: C_12  and  C_14
REMARK    3  A    between atoms: C_14  and  C_15
REMARK    4  A    between atoms: C_21  and  C_23
REMARK    5  A    between atoms: C_26  and  O_29
REMARK    6  A    between atoms: O_29  and  C_30
REMARK                            x       y       z     vdW  Elec       q    Type
REMARK                         _______ _______ _______ _____ _____    ______ ____
ROOT
ATOM      1  C   UNL     1       7.766   5.082  -0.046  0.00  0.00    +0.059 A 
ATOM      2  C   UNL     1       8.450   5.760   0.908  0.00  0.00    +0.072 A 
ATOM      3  S   UNL     1       8.125   7.447   0.414  0.00  0.00    -0.060 S 
ATOM      4  C   UNL     1       7.134   7.091  -0.966  0.00  0.00    +0.165 A 
ATOM      5  N   UNL     1       7.118   5.772  -0.964  0.00  0.00    -0.229 NA
ATOM      6  N   UNL     1       6.516   7.970  -1.846  0.00  0.00    -0.261 N 
ATOM      7  C   UNL     1       6.653   9.300  -1.678  0.00  0.00    +0.250 C 
ATOM      8  O   UNL     1       7.318   9.731  -0.755  0.00  0.00    -0.270 OA
ATOM      9  H   UNL     1       5.986   7.626  -2.582  0.00  0.00    +0.157 HD
ENDROOT
BRANCH   7  10
ATOM     10  C   UNL     1       5.996  10.233  -2.613  0.00  0.00    +0.037 A 
ATOM     11  C   UNL     1       5.237   9.740  -3.678  0.00  0.00    +0.016 A 
ATOM     12  C   UNL     1       4.621  10.615  -4.545  0.00  0.00    +0.046 A 
ATOM     13  C   UNL     1       4.764  11.986  -4.370  0.00  0.00    +0.120 A 
ATOM     14  C   UNL     1       5.523  12.481  -3.316  0.00  0.00    +0.046 A 
ATOM     15  C   UNL     1       6.137  11.613  -2.441  0.00  0.00    +0.016 A 
BRANCH  13  16
ATOM     16  O   UNL     1       4.160  12.845  -5.230  0.00  0.00    -0.495 OA
ATOM     17  C   UNL     1       3.395  12.270  -6.291  0.00  0.00    +0.277 C 
ENDBRANCH  13  16
ENDBRANCH   7  10
BRANCH   1  18
ATOM     18  C   UNL     1       7.742   3.576  -0.053  0.00  0.00    +0.152 C 
BRANCH  18  30
ATOM     19  C   UNL     1      -1.288  -0.783   0.011  0.00  0.00    +0.044 C 
ATOM     20  C   UNL     1       0.002  -0.004   0.002  0.00  0.00    -0.049 A 
ATOM     21  C   UNL     1      -0.017   1.383   0.010  0.00  0.00    +0.005 A 
ATOM     22  C   UNL     1       1.142   2.115   0.003  0.00  0.00    +0.029 A 
ATOM     23  C   UNL     1       2.402   1.474  -0.013  0.00  0.00    +0.080 A 
ATOM     24  C   UNL     1       2.382   0.060  -0.020  0.00  0.00    +0.041 A 
ATOM     25  C   UNL     1       1.217  -0.665  -0.013  0.00  0.00    +0.020 A 
ATOM     26  S   UNL     1       4.113  -0.342  -0.039  0.00  0.00    -0.052 S 
ATOM     27  C   UNL     1       4.733   1.335  -0.036  0.00  0.00    +0.165 A 
ATOM     28  N   UNL     1       3.627   2.042  -0.021  0.00  0.00    -0.225 NA
ATOM     29  N   UNL     1       6.046   1.775  -0.046  0.00  0.00    -0.264 N 
ATOM     30  C   UNL     1       6.314   3.096  -0.042  0.00  0.00    +0.224 C 
ATOM     31  O   UNL     1       5.405   3.899  -0.029  0.00  0.00    -0.275 OA
ATOM     32  H   UNL     1       6.773   1.133  -0.056  0.00  0.00    +0.157 HD
ENDBRANCH  18  30
ENDBRANCH   1  18
TORSDOF 4
