REMARK  Name = ZINC02727077
REMARK  7 active torsions:
REMARK  status: ('A' for Active; 'I' for Inactive)
REMARK    1  A    between atoms: C_1  and  C_2
REMARK    2  A    between atoms: C_5  and  C_8
REMARK    3  A    between atoms: N_10  and  N_11
REMARK    4  A    between atoms: N_11  and  C_12
REMARK    5  A    between atoms: C_12  and  N_14
REMARK    6  A    between atoms: C_15  and  C_17
REMARK    7  A    between atoms: C_19  and  C_27
REMARK                            x       y       z     vdW  Elec       q    Type
REMARK                         _______ _______ _______ _____ _____    ______ ____
ROOT
ATOM      1  N   UNL     1       3.506   3.254  -0.006  0.00  0.00    -0.263 N 
ATOM      2  C   UNL     1       4.664   3.944  -0.021  0.00  0.00    +0.250 C 
ATOM      3  O   UNL     1       5.724   3.351  -0.042  0.00  0.00    -0.270 OA
ATOM      4  H   UNL     1       2.659   3.728   0.011  0.00  0.00    +0.157 HD
ENDROOT
BRANCH   2   5
ATOM      5  C   UNL     1       4.644   5.422  -0.013  0.00  0.00    +0.048 A 
ATOM      6  C   UNL     1       3.452   6.129  -0.107  0.00  0.00    +0.042 A 
ATOM      7  C   UNL     1       3.480   7.531  -0.089  0.00  0.00    +0.072 A 
ATOM      8  N   UNL     1       4.604   8.211   0.003  0.00  0.00    -0.247 NA
ATOM      9  C   UNL     1       5.793   7.615   0.091  0.00  0.00    +0.072 A 
ATOM     10  C   UNL     1       5.879   6.200   0.088  0.00  0.00    +0.013 A 
ATOM     11  C   UNL     1       7.129   5.577   0.182  0.00  0.00    +0.011 A 
ATOM     12  C   UNL     1       8.255   6.340   0.275  0.00  0.00    +0.001 A 
ATOM     13  C   UNL     1       8.178   7.731   0.278  0.00  0.00    +0.002 A 
ATOM     14  C   UNL     1       6.978   8.368   0.188  0.00  0.00    +0.028 A 
BRANCH   7  15
ATOM     15  C   UNL     1       2.200   8.274  -0.183  0.00  0.00    +0.000 A 
ATOM     16  C   UNL     1       0.996   7.580  -0.286  0.00  0.00    +0.011 A 
ATOM     17  C   UNL     1      -0.193   8.276  -0.369  0.00  0.00    +0.020 A 
ATOM     18  C   UNL     1      -0.190   9.660  -0.359  0.00  0.00    +0.041 A 
ATOM     19  C   UNL     1       1.004  10.354  -0.261  0.00  0.00    +0.020 A 
ATOM     20  C   UNL     1       2.198   9.668  -0.173  0.00  0.00    +0.011 A 
ATOM     21 CL   UNL     1      -1.689  10.530  -0.470  0.00  0.00    -0.084 Cl
ENDBRANCH   7  15
ENDBRANCH   2   5
BRANCH   1  22
ATOM     22  C   UNL     1       3.524   1.907  -0.013  0.00  0.00    +0.153 C 
ATOM     23  S   UNL     1       5.018   1.071  -0.042  0.00  0.00    -0.017 S 
BRANCH  22  24
ATOM     24  N   UNL     1       2.366   1.217   0.002  0.00  0.00    -0.245 N 
ATOM     25  H   UNL     1       2.380   0.247  -0.003  0.00  0.00    +0.172 HD
BRANCH  24  28
ATOM     26  C   UNL     1      -0.014   1.211   0.042  0.00  0.00    +0.260 C 
ATOM     27  O   UNL     1       0.003  -0.004   0.035  0.00  0.00    -0.269 OA
ATOM     28  N   UNL     1       1.144   1.901   0.026  0.00  0.00    -0.231 N 
ATOM     29  H   UNL     1       1.131   2.871   0.032  0.00  0.00    +0.173 HD
BRANCH  26  34
ATOM     30  C   UNL     1      -5.036   4.020   0.116  0.00  0.00    +0.044 C 
ATOM     31  C   UNL     1      -3.721   3.285   0.097  0.00  0.00    -0.050 A 
ATOM     32  C   UNL     1      -3.705   1.901   0.089  0.00  0.00    +0.004 A 
ATOM     33  C   UNL     1      -2.505   1.222   0.071  0.00  0.00    +0.013 A 
ATOM     34  C   UNL     1      -1.304   1.933   0.061  0.00  0.00    +0.038 A 
ATOM     35  C   UNL     1      -1.327   3.328   0.074  0.00  0.00    +0.013 A 
ATOM     36  C   UNL     1      -2.534   3.996   0.087  0.00  0.00    +0.004 A 
ENDBRANCH  26  34
ENDBRANCH  24  28
ENDBRANCH  22  24
ENDBRANCH   1  22
TORSDOF 6
