REMARK  Name = ZINC17136303
REMARK  10 active torsions:
REMARK  status: ('A' for Active; 'I' for Inactive)
REMARK    1  A    between atoms: C_1  and  C_2
REMARK    2  A    between atoms: C_2  and  C_3
REMARK    3  A    between atoms: C_2  and  O_4
REMARK    4  A    between atoms: O_4  and  C_5
REMARK    5  A    between atoms: C_5  and  C_7
REMARK    6  A    between atoms: C_8  and  C_28
REMARK    7  A    between atoms: C_11  and  N_12
REMARK    8  A    between atoms: C_13  and  C_15
REMARK    9  A    between atoms: C_23  and  C_25
REMARK   10  A    between atoms: C_31  and  C_34
REMARK                            x       y       z     vdW  Elec       q    Type
REMARK                         _______ _______ _______ _____ _____    ______ ____
ROOT
ATOM      1  C   UNL     1       2.005   4.184   1.312  0.00  0.00    +0.095 A 
ATOM      2  C   UNL     1       1.328   3.354   0.334  0.00  0.00    +0.005 A 
ATOM      3  C   UNL     1       0.765   3.992  -0.724  0.00  0.00    +0.056 A 
ATOM      4  S   UNL     1       1.146   5.705  -0.418  0.00  0.00    -0.080 S 
ATOM      5  C   UNL     1       2.022   5.551   1.067  0.00  0.00    +0.086 A 
ENDROOT
BRANCH   2   6
ATOM      6  C   UNL     1       1.250   1.881   0.485  0.00  0.00    -0.017 A 
ATOM      7  C   UNL     1       0.022   1.230   0.369  0.00  0.00    +0.009 A 
ATOM      8  C   UNL     1      -0.045  -0.141   0.510  0.00  0.00    +0.004 A 
ATOM      9  C   UNL     1       1.103  -0.869   0.766  0.00  0.00    -0.044 A 
ATOM     10  C   UNL     1       2.324  -0.229   0.881  0.00  0.00    +0.004 A 
ATOM     11  C   UNL     1       2.403   1.142   0.742  0.00  0.00    +0.009 A 
BRANCH   9  12
ATOM     12  C   UNL     1       1.023  -2.366   0.920  0.00  0.00    +0.019 C 
ATOM     13  C   UNL     1       1.521  -2.764   2.311  0.00  0.00    +0.008 C 
ATOM     14  C   UNL     1       1.440  -4.283   2.467  0.00  0.00    +0.001 C 
ATOM     15  C   UNL     1       2.312  -4.952   1.403  0.00  0.00    +0.000 C 
ATOM     16  C   UNL     1       1.815  -4.555   0.011  0.00  0.00    +0.001 C 
ATOM     17  C   UNL     1       1.896  -3.035  -0.144  0.00  0.00    +0.008 C 
ENDBRANCH   9  12
ENDBRANCH   2   6
BRANCH   5  18
ATOM     18  N   UNL     1       2.598   6.553   1.831  0.00  0.00    -0.279 N 
ATOM     19  C   UNL     1       2.507   7.838   1.436  0.00  0.00    +0.224 C 
ATOM     20  O   UNL     1       1.922   8.118   0.411  0.00  0.00    -0.275 OA
ATOM     21  H   UNL     1       3.066   6.329   2.651  0.00  0.00    +0.155 HD
BRANCH  19  22
ATOM     22  C   UNL     1       3.133   8.928   2.268  0.00  0.00    +0.120 C 
ATOM     23  C   UNL     1       2.037   9.797   2.954  0.00  0.00    +0.131 C 
ATOM     24  C   UNL     1       0.988  10.092   1.841  0.00  0.00    +0.035 C 
ATOM     25  C   UNL     1       1.723  11.117   0.939  0.00  0.00    +0.035 C 
ATOM     26  C   UNL     1       3.100  11.277   1.652  0.00  0.00    +0.133 C 
ATOM     27  C   UNL     1       3.873   9.950   1.367  0.00  0.00    +0.145 C 
ATOM     28  O   UNL     1       2.719  11.090   3.055  0.00  0.00    -0.372 OA
BRANCH  27  29
ATOM     29  C   UNL     1       3.756   9.564  -0.085  0.00  0.00    +0.362 C 
ATOM     30  O   UNL     1       3.411  10.384  -0.903  0.00  0.00    -0.246 OA
ATOM     31  O   UNL     1       4.036   8.309  -0.471  0.00  0.00    -0.246 OA
ENDBRANCH  27  29
ENDBRANCH  19  22
ENDBRANCH   5  18
BRANCH   1  32
ATOM     32  C   UNL     1       2.644   3.609   2.496  0.00  0.00    +0.342 C 
ATOM     33  O   UNL     1       3.811   3.267   2.452  0.00  0.00    -0.245 OA
BRANCH  32  34
ATOM     34  O   UNL     1       1.940   3.458   3.636  0.00  0.00    -0.458 OA
BRANCH  34  36
ATOM     35  C   UNL     1       2.046   3.434   6.069  0.00  0.00    +0.052 C 
ATOM     36  C   UNL     1       2.638   2.881   4.771  0.00  0.00    +0.171 C 
ATOM     37  C   UNL     1       2.480   1.359   4.746  0.00  0.00    +0.052 C 
ENDBRANCH  34  36
ENDBRANCH  32  34
ENDBRANCH   1  32
TORSDOF 8
