REMARK  Name = ZINC13402183
REMARK  6 active torsions:
REMARK  status: ('A' for Active; 'I' for Inactive)
REMARK    1  A    between atoms: C_3  and  N_11
REMARK    2  A    between atoms: C_6  and  C_7
REMARK    3  A    between atoms: C_8  and  C_9
REMARK    4  A    between atoms: C_12  and  C_14
REMARK    5  A    between atoms: N_17  and  S_20
REMARK    6  A    between atoms: S_20  and  C_23
REMARK                            x       y       z     vdW  Elec       q    Type
REMARK                         _______ _______ _______ _____ _____    ______ ____
ROOT
ATOM      1  C   UNL     1       5.904  -2.042  -3.721  0.00  0.00    +0.078 C 
ATOM      2  C   UNL     1       6.407  -1.021  -2.697  0.00  0.00    +0.030 C 
ATOM      3  C   UNL     1       5.209  -0.302  -2.069  0.00  0.00    +0.110 C 
ATOM      4  N   UNL     1       4.290  -1.307  -1.518  0.00  0.00    -0.177 NA
ATOM      5  C   UNL     1       3.821  -2.390  -2.393  0.00  0.00    +0.110 C 
ATOM      6  C   UNL     1       5.030  -3.083  -3.019  0.00  0.00    +0.030 C 
ENDROOT
BRANCH   1   8
ATOM      7  N   UNL     1       6.879  -3.671  -5.306  0.00  0.00    -0.285 N 
ATOM      8  C   UNL     1       7.081  -2.727  -4.366  0.00  0.00    +0.220 C 
ATOM      9  O   UNL     1       8.210  -2.429  -4.039  0.00  0.00    -0.275 OA
ATOM     10  H   UNL     1       5.978  -3.964  -5.513  0.00  0.00    +0.155 HD
BRANCH   7  13
ATOM     11  C   UNL     1       8.996  -6.112  -7.048  0.00  0.00    +0.010 A 
ATOM     12  C   UNL     1       7.926  -5.559  -6.382  0.00  0.00    +0.024 A 
ATOM     13  C   UNL     1       7.966  -4.227  -5.981  0.00  0.00    +0.033 A 
ATOM     14  C   UNL     1       9.084  -3.446  -6.258  0.00  0.00    +0.024 A 
ATOM     15  C   UNL     1      10.161  -3.991  -6.919  0.00  0.00    +0.010 A 
ATOM     16  C   UNL     1      10.125  -5.332  -7.323  0.00  0.00    -0.025 A 
BRANCH  16  17
ATOM     17  C   UNL     1      11.270  -5.917  -8.034  0.00  0.00    +0.015 C 
ATOM     18  C   UNL     1      12.359  -5.162  -8.299  0.00  0.00    +0.096 C 
BRANCH  18  19
ATOM     19  C   UNL     1      13.463  -5.727  -8.985  0.00  0.00    +0.380 C 
ATOM     20  O   UNL     1      13.431  -6.891  -9.336  0.00  0.00    -0.241 OA
ATOM     21  O   UNL     1      14.551  -4.973  -9.249  0.00  0.00    -0.241 OA
ENDBRANCH  18  19
ENDBRANCH  16  17
ENDBRANCH   7  13
ENDBRANCH   1   8
BRANCH   4  22
ATOM     22  S   UNL     1       3.797  -1.225   0.061  0.00  0.00    +0.061 S 
ATOM     23  O   UNL     1       4.792  -0.488   0.759  0.00  0.00    -0.153 OA
ATOM     24  O   UNL     1       3.420  -2.542   0.438  0.00  0.00    -0.153 OA
BRANCH  22  25
ATOM     25  C   UNL     1       2.329  -0.250   0.099  0.00  0.00    +0.109 A 
ATOM     26  C   UNL     1       1.095  -0.856  -0.041  0.00  0.00    +0.032 A 
ATOM     27  C   UNL     1      -0.058  -0.095  -0.015  0.00  0.00    +0.051 A 
ATOM     28  C   UNL     1       0.020   1.280   0.153  0.00  0.00    +0.162 A 
ATOM     29  C   UNL     1       1.261   1.888   0.296  0.00  0.00    +0.164 A 
ATOM     30  C   UNL     1       2.415   1.119   0.267  0.00  0.00    +0.078 A 
ATOM     31  O   UNL     1       1.361   3.235   0.470  0.00  0.00    -0.485 OA
ATOM     32  C   UNL     1       0.213   4.015   0.120  0.00  0.00    +0.270 C 
ATOM     33  C   UNL     1      -1.029   3.338   0.715  0.00  0.00    +0.270 C 
ATOM     34  O   UNL     1      -1.123   2.017   0.169  0.00  0.00    -0.485 OA
ENDBRANCH  22  25
ENDBRANCH   4  22
TORSDOF 6
