REMARK  Name = ZINC15874382
REMARK  6 active torsions:
REMARK  status: ('A' for Active; 'I' for Inactive)
REMARK    1  A    between atoms: C_9  and  C_10
REMARK    2  A    between atoms: C_11  and  C_12
REMARK    3  A    between atoms: N_14  and  N_15
REMARK    4  A    between atoms: N_15  and  C_16
REMARK    5  A    between atoms: C_16  and  N_18
REMARK    6  A    between atoms: N_18  and  C_19
REMARK                            x       y       z     vdW  Elec       q    Type
REMARK                         _______ _______ _______ _____ _____    ______ ____
ROOT
ATOM      1  C   UNL     1      -3.296   2.838  -0.869  0.00  0.00    +0.253 C 
ATOM      2  O   UNL     1      -3.386   3.741  -0.056  0.00  0.00    -0.269 OA
ATOM      3  N   UNL     1      -4.288   2.633  -1.759  0.00  0.00    -0.232 N 
ATOM      4  H   UNL     1      -4.217   1.914  -2.407  0.00  0.00    +0.173 HD
ENDROOT
BRANCH   1   6
ATOM      5  C   UNL     1      -1.156   2.216   0.020  0.00  0.00    +0.034 C 
ATOM      6  C   UNL     1      -2.157   2.009  -0.879  0.00  0.00    +0.071 C 
BRANCH   5  15
ATOM      7  C   UNL     1       4.047   2.010  -0.026  0.00  0.00    +0.005 A 
ATOM      8  C   UNL     1       3.233   3.151  -0.012  0.00  0.00    +0.018 A 
ATOM      9  C   UNL     1       1.887   3.025   0.000  0.00  0.00    +0.093 A 
ATOM     10  N   UNL     1       1.306   1.794  -0.001  0.00  0.00    -0.298 N 
ATOM     11  C   UNL     1       2.072   0.662  -0.014  0.00  0.00    +0.140 A 
ATOM     12  C   UNL     1       3.473   0.773  -0.027  0.00  0.00    +0.047 A 
ATOM     13  N   UNL     1       1.265  -0.399  -0.012  0.00  0.00    -0.216 NA
ATOM     14  C   UNL     1       0.002  -0.004   0.002  0.00  0.00    +0.155 A 
ATOM     15  C   UNL     1      -0.017   1.387   0.010  0.00  0.00    +0.085 A 
ATOM     16 CL   UNL     1      -1.390  -1.042   0.010  0.00  0.00    -0.060 Cl
ENDBRANCH   5  15
ENDBRANCH   1   6
BRANCH   3  17
ATOM     17  N   UNL     1      -5.420   3.458  -1.749  0.00  0.00    -0.246 N 
ATOM     18  H   UNL     1      -5.491   4.176  -1.101  0.00  0.00    +0.172 HD
BRANCH  17  19
ATOM     19  C   UNL     1      -6.411   3.252  -2.639  0.00  0.00    +0.147 C 
ATOM     20  S   UNL     1      -7.795   4.260  -2.627  0.00  0.00    -0.017 S 
BRANCH  19  21
ATOM     21  N   UNL     1      -6.313   2.253  -3.539  0.00  0.00    -0.323 N 
ATOM     22  H   UNL     1      -5.529   1.683  -3.546  0.00  0.00    +0.148 HD
BRANCH  21  23
ATOM     23  C   UNL     1      -7.390   2.030  -4.506  0.00  0.00    +0.072 C 
ATOM     24  C   UNL     1      -8.472   1.154  -3.872  0.00  0.00    +0.022 C 
ATOM     25  C   UNL     1      -9.597   0.921  -4.882  0.00  0.00    +0.002 C 
ATOM     26  C   UNL     1      -9.034   0.220  -6.119  0.00  0.00    +0.000 C 
ATOM     27  C   UNL     1      -7.952   1.095  -6.754  0.00  0.00    +0.002 C 
ATOM     28  C   UNL     1      -6.827   1.329  -5.744  0.00  0.00    +0.022 C 
ENDBRANCH  21  23
ENDBRANCH  19  21
ENDBRANCH  17  19
ENDBRANCH   3  17
TORSDOF 6
