REMARK  Name = ZINC49122202
REMARK  6 active torsions:
REMARK  status: ('A' for Active; 'I' for Inactive)
REMARK    1  A    between atoms: C_1  and  C_2
REMARK    2  A    between atoms: C_2  and  C_3
REMARK    3  A    between atoms: C_9  and  N_11
REMARK    4  A    between atoms: C_12  and  C_16
REMARK    5  A    between atoms: C_18  and  N_23
REMARK    6  A    between atoms: C_20  and  N_22
REMARK                            x       y       z     vdW  Elec       q    Type
REMARK                         _______ _______ _______ _____ _____    ______ ____
ROOT
ATOM      1  N   UNL     1      -0.822  -2.279   1.274  0.00  0.00    -0.222 N 
ATOM      2  C   UNL     1      -1.450  -3.149   0.446  0.00  0.00    +0.182 A 
ATOM      3  N   UNL     1      -2.603  -3.450   1.005  0.00  0.00    -0.108 NA
ATOM      4  N   UNL     1      -2.737  -2.830   2.121  0.00  0.00    -0.023 NA
ATOM      5  N   UNL     1      -1.698  -2.105   2.360  0.00  0.00    -0.043 NA
ENDROOT
BRANCH   1  11
ATOM      6  C   UNL     1       0.371  -0.144   1.265  0.00  0.00    +0.013 C 
ATOM      7  C   UNL     1       1.743   0.504   1.064  0.00  0.00    +0.005 C 
ATOM      8  C   UNL     1       2.727  -0.057   2.093  0.00  0.00    +0.000 C 
ATOM      9  C   UNL     1       2.847  -1.571   1.911  0.00  0.00    +0.002 C 
ATOM     10  C   UNL     1       1.475  -2.219   2.111  0.00  0.00    +0.027 C 
ATOM     11  C   UNL     1       0.491  -1.659   1.083  0.00  0.00    +0.114 C 
BRANCH   6  13
ATOM     12  C   UNL     1      -0.828   1.909   0.497  0.00  0.00    +0.004 C 
ATOM     13  C   UNL     1      -0.613   0.417   0.236  0.00  0.00    +0.002 C 
ENDBRANCH   6  13
ENDBRANCH   1  11
BRANCH   2  14
ATOM     14  C   UNL     1      -0.937  -3.663  -0.845  0.00  0.00    +0.024 A 
ATOM     15  C   UNL     1      -1.825  -3.990  -1.869  0.00  0.00    +0.034 A 
ATOM     16  C   UNL     1      -1.341  -4.471  -3.077  0.00  0.00    +0.027 A 
ATOM     17  C   UNL     1       0.026  -4.627  -3.266  0.00  0.00    +0.045 A 
ATOM     18  C   UNL     1       0.912  -4.302  -2.248  0.00  0.00    +0.027 A 
ATOM     19  C   UNL     1       0.435  -3.815  -1.040  0.00  0.00    +0.034 A 
BRANCH  18  20
ATOM     20  N   UNL     1       2.287  -4.461  -2.442  0.00  0.00    -0.358 N 
ATOM     21  H   UNL     1       2.621  -4.798  -3.288  0.00  0.00    +0.142 HD
ATOM     22  H   UNL     1       2.906  -4.234  -1.731  0.00  0.00    +0.142 HD
ENDBRANCH  18  20
BRANCH  16  23
ATOM     23  N   UNL     1      -2.230  -4.799  -4.103  0.00  0.00    -0.358 N 
ATOM     24  H   UNL     1      -3.184  -4.691  -3.971  0.00  0.00    +0.142 HD
ATOM     25  H   UNL     1      -1.892  -5.136  -4.948  0.00  0.00    +0.142 HD
ENDBRANCH  16  23
ENDBRANCH   2  14
TORSDOF 5
