REMARK  Name = ZINC18110115
REMARK  9 active torsions:
REMARK  status: ('A' for Active; 'I' for Inactive)
REMARK    1  A    between atoms: C_1  and  C_2
REMARK    2  A    between atoms: C_5  and  S_9
REMARK    3  A    between atoms: C_7  and  C_8
REMARK    4  A    between atoms: S_9  and  N_12
REMARK    5  A    between atoms: N_12  and  C_13
REMARK    6  A    between atoms: C_16  and  C_19
REMARK    7  A    between atoms: N_21  and  C_22
REMARK    8  A    between atoms: C_22  and  C_24
REMARK    9  A    between atoms: C_22  and  C_25
REMARK                            x       y       z     vdW  Elec       q    Type
REMARK                         _______ _______ _______ _____ _____    ______ ____
ROOT
ATOM      1  C   UNL     1       2.400  -4.611   1.206  0.00  0.00    +0.048 A 
ATOM      2  C   UNL     1       2.168  -3.424   1.896  0.00  0.00    +0.025 A 
ATOM      3  C   UNL     1       2.882  -3.139   3.037  0.00  0.00    +0.015 A 
ATOM      4  C   UNL     1       3.842  -4.042   3.503  0.00  0.00    +0.037 A 
ATOM      5  C   UNL     1       4.073  -5.232   2.808  0.00  0.00    +0.015 A 
ATOM      6  C   UNL     1       3.351  -5.515   1.671  0.00  0.00    +0.025 A 
ENDROOT
BRANCH   4   7
ATOM      7  C   UNL     1       4.611  -3.739   4.725  0.00  0.00    +0.245 C 
ATOM      8  O   UNL     1       4.409  -2.703   5.329  0.00  0.00    -0.270 OA
ATOM      9  N   UNL     1       5.536  -4.611   5.173  0.00  0.00    -0.305 N 
ATOM     10  H   UNL     1       5.696  -5.437   4.692  0.00  0.00    +0.150 HD
BRANCH   9  11
ATOM     11  C   UNL     1       6.298  -4.310   6.387  0.00  0.00    +0.101 C 
ATOM     12  C   UNL     1       5.500  -4.753   7.614  0.00  0.00    +0.033 C 
BRANCH  11  13
ATOM     13  C   UNL     1       7.612  -5.047   6.350  0.00  0.00    -0.024 A 
ATOM     14  C   UNL     1       7.664  -6.341   5.868  0.00  0.00    +0.009 A 
ATOM     15  C   UNL     1       8.867  -7.021   5.834  0.00  0.00    +0.050 A 
ATOM     16  C   UNL     1      10.026  -6.405   6.283  0.00  0.00    +0.162 A 
ATOM     17  C   UNL     1       9.974  -5.103   6.766  0.00  0.00    +0.162 A 
ATOM     18  C   UNL     1       8.764  -4.425   6.793  0.00  0.00    +0.055 A 
ATOM     19  O   UNL     1      11.101  -4.478   7.204  0.00  0.00    -0.485 OA
ATOM     20  C   UNL     1      12.225  -5.312   7.503  0.00  0.00    +0.270 C 
ATOM     21  C   UNL     1      12.401  -6.312   6.353  0.00  0.00    +0.270 C 
ATOM     22  O   UNL     1      11.203  -7.089   6.247  0.00  0.00    -0.485 OA
ENDBRANCH  11  13
ENDBRANCH   9  11
ENDBRANCH   4   7
BRANCH   1  23
ATOM     23  N   UNL     1       1.676  -4.896   0.053  0.00  0.00    -0.216 N 
ATOM     24  H   UNL     1       2.098  -4.817  -0.816  0.00  0.00    +0.174 HD
BRANCH  23  25
ATOM     25  S   UNL     1       0.093  -5.370   0.166  0.00  0.00    +0.072 S 
ATOM     26  O   UNL     1      -0.356  -5.601  -1.162  0.00  0.00    -0.150 OA
ATOM     27  O   UNL     1      -0.546  -4.447   1.037  0.00  0.00    -0.150 OA
BRANCH  25  32
ATOM     28  C   UNL     1       0.023 -10.715   2.965  0.00  0.00    +0.044 C 
ATOM     29  C   UNL     1       0.041  -9.380   2.266  0.00  0.00    -0.047 A 
ATOM     30  C   UNL     1      -0.153  -8.218   2.990  0.00  0.00    +0.005 A 
ATOM     31  C   UNL     1      -0.137  -6.993   2.348  0.00  0.00    +0.029 A 
ATOM     32  C   UNL     1       0.074  -6.931   0.983  0.00  0.00    +0.109 A 
ATOM     33  C   UNL     1       0.269  -8.092   0.260  0.00  0.00    +0.032 A 
ATOM     34  C   UNL     1       0.257  -9.317   0.902  0.00  0.00    -0.046 A 
ATOM     35  C   UNL     1       0.474 -10.583   0.114  0.00  0.00    +0.044 C 
ENDBRANCH  25  32
ENDBRANCH  23  25
ENDBRANCH   1  23
TORSDOF 6
