REMARK  Name = ZINC32091766
REMARK  1 active torsions:
REMARK  status: ('A' for Active; 'I' for Inactive)
REMARK    1  A    between atoms: C_6  and  C_7
REMARK                            x       y       z     vdW  Elec       q    Type
REMARK                         _______ _______ _______ _____ _____    ______ ____
ROOT
ATOM      1  C   UNL     1      -1.293  -0.775   0.010  0.00  0.00    +0.068 C 
ATOM      2  C   UNL     1      -1.373  -1.667  -1.238  0.00  0.00    +0.109 C 
ATOM      3  C   UNL     1      -2.393  -2.753  -1.048  0.00  0.00    +0.219 C 
ATOM      4  O   UNL     1      -3.075  -3.076  -1.997  0.00  0.00    -0.275 OA
ATOM      5  N   UNL     1      -2.587  -3.385   0.124  0.00  0.00    -0.270 N 
ATOM      6  C   UNL     1      -1.951  -2.876   1.286  0.00  0.00    +0.138 A 
ATOM      7  C   UNL     1      -1.348  -1.652   1.212  0.00  0.00    +0.041 A 
ATOM      8  S   UNL     1      -0.706  -1.440   2.844  0.00  0.00    -0.055 S 
ATOM      9  C   UNL     1      -1.267  -2.891   3.494  0.00  0.00    +0.158 A 
ATOM     10  N   UNL     1      -1.887  -3.460   2.477  0.00  0.00    -0.210 NA
ATOM     11  N   UNL     1      -1.113  -3.372   4.784  0.00  0.00    -0.337 N 
ATOM     12  H   UNL     1      -3.150  -4.174   0.173  0.00  0.00    +0.156 HD
ATOM     13  H   UNL     1      -0.629  -2.850   5.442  0.00  0.00    +0.144 HD
ATOM     14  H   UNL     1      -1.490  -4.232   5.029  0.00  0.00    +0.144 HD
ENDROOT
BRANCH   1  20
ATOM     15  C   UNL     1      -0.017   1.378   0.010  0.00  0.00    +0.005 A 
ATOM     16  C   UNL     1       1.171   2.086   0.002  0.00  0.00    +0.015 A 
ATOM     17  C   UNL     1       2.378   1.411  -0.013  0.00  0.00    +0.018 A 
ATOM     18  C   UNL     1       2.396   0.027  -0.021  0.00  0.00    +0.015 A 
ATOM     19  C   UNL     1       1.208  -0.679  -0.013  0.00  0.00    +0.005 A 
ATOM     20  C   UNL     1       0.002  -0.004   0.002  0.00  0.00    -0.039 A 
ATOM     21 BR   UNL     1       4.003   2.378  -0.024  0.00  0.00    -0.050 Br
ENDBRANCH   1  20
TORSDOF 1
