REMARK  Name = ZINC39724243
REMARK  10 active torsions:
REMARK  status: ('A' for Active; 'I' for Inactive)
REMARK    1  A    between atoms: C_1  and  C_2
REMARK    2  A    between atoms: C_2  and  C_3
REMARK    3  A    between atoms: C_4  and  C_34
REMARK    4  A    between atoms: N_12  and  C_32
REMARK    5  A    between atoms: C_13  and  S_15
REMARK    6  A    between atoms: S_15  and  C_16
REMARK    7  A    between atoms: C_16  and  C_17
REMARK    8  A    between atoms: C_23  and  C_31
REMARK    9  A    between atoms: C_24  and  C_28
REMARK   10  A    between atoms: C_32  and  C_33
REMARK                            x       y       z     vdW  Elec       q    Type
REMARK                         _______ _______ _______ _____ _____    ______ ____
ROOT
ATOM      1  S   UNL     1      -4.545  -1.846   4.665  0.00  0.00    -0.083 S 
ENDROOT
BRANCH   1  10
ATOM      2  C   UNL     1      -1.412  -0.526   0.013  0.00  0.00    -0.046 C 
ATOM      3  C   UNL     1      -2.046  -0.862  -1.122  0.00  0.00    -0.015 C 
ATOM      4  S   UNL     1      -3.700  -1.344  -0.615  0.00  0.00    -0.102 S 
ATOM      5  C   UNL     1      -3.691  -0.480   1.002  0.00  0.00    +0.185 C 
ATOM      6  C   UNL     1      -2.160  -0.697   1.266  0.00  0.00    +0.137 C 
ATOM      7  C   UNL     1      -1.836   0.029   2.520  0.00  0.00    +0.231 C 
ATOM      8  O   UNL     1      -0.834   0.697   2.664  0.00  0.00    -0.274 OA
ATOM      9  N   UNL     1      -2.783  -0.129   3.501  0.00  0.00    -0.251 N 
ATOM     10  C   UNL     1      -3.845  -0.996   3.289  0.00  0.00    +0.160 C 
ATOM     11  N   UNL     1      -4.368  -1.182   2.079  0.00  0.00    -0.247 NA
ATOM     12  C   UNL     1      -1.490  -0.839  -2.522  0.00  0.00    +0.051 C 
BRANCH   2  14
ATOM     13  C   UNL     1      -0.019   1.526   0.010  0.00  0.00    +0.008 C 
ATOM     14  C   UNL     1       0.002  -0.004   0.002  0.00  0.00    +0.029 C 
ENDBRANCH   2  14
BRANCH   9  15
ATOM     15  C   UNL     1      -2.672   0.610   4.761  0.00  0.00    +0.112 C 
ATOM     16  C   UNL     1      -3.403   1.948   4.633  0.00  0.00    +0.025 C 
ENDBRANCH   9  15
ENDBRANCH   1  10
BRANCH   1  17
ATOM     17  C   UNL     1      -5.873  -2.844   3.935  0.00  0.00    +0.151 C 
BRANCH  17  18
ATOM     18  C   UNL     1      -6.563  -3.631   5.018  0.00  0.00    +0.121 A 
ATOM     19  N   UNL     1      -7.589  -4.452   4.683  0.00  0.00    -0.310 N 
ATOM     20  H   UNL     1      -7.860  -4.518   3.755  0.00  0.00    +0.170 HD
ATOM     21  C   UNL     1      -8.239  -5.178   5.614  0.00  0.00    +0.260 A 
ATOM     22  O   UNL     1      -9.158  -5.913   5.302  0.00  0.00    -0.267 OA
ATOM     23  C   UNL     1      -7.805  -5.059   7.025  0.00  0.00    +0.076 A 
ATOM     24  C   UNL     1      -8.310  -5.699   8.157  0.00  0.00    -0.015 A 
ATOM     25  C   UNL     1      -7.752  -5.441   9.389  0.00  0.00    +0.106 A 
ATOM     26  S   UNL     1      -6.467  -4.266   9.000  0.00  0.00    -0.062 S 
ATOM     27  C   UNL     1      -6.726  -4.172   7.246  0.00  0.00    +0.116 A 
ATOM     28  N   UNL     1      -6.152  -3.507   6.251  0.00  0.00    -0.226 NA
ATOM     29  C   UNL     1      -9.461  -6.665   8.033  0.00  0.00    +0.046 C 
BRANCH  25  30
ATOM     30  C   UNL     1      -8.110  -5.976  10.653  0.00  0.00    +0.393 C 
ATOM     31  O   UNL     1      -9.029  -6.781  10.739  0.00  0.00    -0.240 OA
ATOM     32  O   UNL     1      -7.499  -5.633  11.658  0.00  0.00    -0.240 OA
ENDBRANCH  25  30
ENDBRANCH  17  18
ENDBRANCH   1  17
TORSDOF 6
