REMARK  Name = ZINC00293762
REMARK  5 active torsions:
REMARK  status: ('A' for Active; 'I' for Inactive)
REMARK    1  A    between atoms: C_4  and  S_7
REMARK    2  A    between atoms: S_7  and  N_10
REMARK    3  A    between atoms: N_10  and  C_11
REMARK    4  A    between atoms: C_14  and  C_17
REMARK    5  A    between atoms: N_19  and  N_20
REMARK                            x       y       z     vdW  Elec       q    Type
REMARK                         _______ _______ _______ _____ _____    ______ ____
ROOT
ATOM      1  C   UNL     1       1.236  -0.689   0.010  0.00  0.00    +0.048 A 
ATOM      2  C   UNL     1       0.036   0.011   0.098  0.00  0.00    +0.025 A 
ATOM      3  C   UNL     1       0.040   1.387   0.129  0.00  0.00    +0.015 A 
ATOM      4  C   UNL     1       1.251   2.082   0.071  0.00  0.00    +0.038 A 
ATOM      5  C   UNL     1       2.455   1.377  -0.017  0.00  0.00    +0.015 A 
ATOM      6  C   UNL     1       2.445   0.001  -0.048  0.00  0.00    +0.025 A 
ENDROOT
BRANCH   4   7
ATOM      7  C   UNL     1       1.259   3.557   0.103  0.00  0.00    +0.257 C 
ATOM      8  O   UNL     1       0.211   4.169   0.180  0.00  0.00    -0.269 OA
ATOM      9  N   UNL     1       2.428   4.226   0.048  0.00  0.00    -0.250 N 
ATOM     10  H   UNL     1       3.264   3.737  -0.014  0.00  0.00    +0.169 HD
BRANCH   9  11
ATOM     11  N   UNL     1       2.435   5.591   0.077  0.00  0.00    -0.254 NA
ATOM     12  H   UNL     1       1.959   5.938   0.897  0.00  0.00    +0.140 HD
ATOM     13  H   UNL     1       3.377   5.949   0.028  0.00  0.00    +0.140 HD
ENDBRANCH   9  11
ENDBRANCH   4   7
BRANCH   1  14
ATOM     14  N   UNL     1       1.229  -2.079  -0.021  0.00  0.00    -0.216 N 
ATOM     15  H   UNL     1       0.683  -2.575   0.608  0.00  0.00    +0.174 HD
BRANCH  14  16
ATOM     16  S   UNL     1       2.152  -2.887  -1.133  0.00  0.00    +0.072 S 
ATOM     17  O   UNL     1       3.473  -2.377  -1.012  0.00  0.00    -0.150 OA
ATOM     18  O   UNL     1       1.852  -4.268  -0.984  0.00  0.00    -0.150 OA
BRANCH  16  22
ATOM     19  C   UNL     1       0.672  -1.676  -5.236  0.00  0.00    +0.000 A 
ATOM     20  C   UNL     1       1.748  -1.020  -4.668  0.00  0.00    +0.002 A 
ATOM     21  C   UNL     1       2.200  -1.390  -3.415  0.00  0.00    +0.029 A 
ATOM     22  C   UNL     1       1.576  -2.416  -2.730  0.00  0.00    +0.108 A 
ATOM     23  C   UNL     1       0.504  -3.076  -3.301  0.00  0.00    +0.029 A 
ATOM     24  C   UNL     1       0.048  -2.702  -4.551  0.00  0.00    +0.002 A 
ENDBRANCH  16  22
ENDBRANCH  14  16
ENDBRANCH   1  14
TORSDOF 5
