REMARK  Name = ZINC44658374
REMARK  6 active torsions:
REMARK  status: ('A' for Active; 'I' for Inactive)
REMARK    1  A    between atoms: C_1  and  C_2
REMARK    2  A    between atoms: C_9  and  C_11
REMARK    3  A    between atoms: C_11  and  S_12
REMARK    4  A    between atoms: S_12  and  C_13
REMARK    5  A    between atoms: C_17  and  C_26
REMARK    6  A    between atoms: N_18  and  C_19
REMARK                            x       y       z     vdW  Elec       q    Type
REMARK                         _______ _______ _______ _____ _____    ______ ____
ROOT
ATOM      1  C   UNL     1       2.706  -6.407   1.677  0.00  0.00    +0.241 C 
ATOM      2  N   UNL     1       1.836  -6.973   2.720  0.00  0.00    -0.237 N 
ATOM      3  N   UNL     1       1.032  -7.930   2.091  0.00  0.00    -0.169 NA
ATOM      4  C   UNL     1       1.302  -8.013   0.815  0.00  0.00    +0.151 C 
ATOM      5  N   UNL     1       2.318  -7.122   0.450  0.00  0.00    -0.254 N 
ATOM      6  H   UNL     1       1.823  -6.731   3.659  0.00  0.00    +0.171 HD
ENDROOT
BRANCH   4   7
ATOM      7  C   UNL     1       0.658  -8.885  -0.076  0.00  0.00    +0.022 C 
ATOM      8  C   UNL     1      -0.285  -9.865   0.237  0.00  0.00    +0.006 A 
ATOM      9  C   UNL     1      -0.863 -10.277   1.457  0.00  0.00    +0.010 A 
ATOM     10  C   UNL     1      -1.778 -11.280   1.464  0.00  0.00    +0.001 A 
ATOM     11  C   UNL     1      -2.167 -11.924   0.287  0.00  0.00    +0.002 A 
ATOM     12  C   UNL     1      -1.653 -11.580  -0.920  0.00  0.00    +0.026 A 
ATOM     13  C   UNL     1      -0.692 -10.539  -1.007  0.00  0.00    +0.043 A 
ATOM     14  N   UNL     1      -0.053 -10.026  -2.040  0.00  0.00    -0.380 N 
ATOM     15  C   UNL     1       0.835  -8.956  -1.576  0.00  0.00    +0.152 C 
ATOM     16  H   UNL     1      -0.157 -10.310  -2.962  0.00  0.00    +0.160 HD
ENDBRANCH   4   7
BRANCH   5  17
ATOM     17  C   UNL     1       2.859  -6.944  -0.827  0.00  0.00    +0.038 A 
ATOM     18  C   UNL     1       2.250  -6.077  -1.726  0.00  0.00    +0.025 A 
ATOM     19  C   UNL     1       2.786  -5.904  -2.987  0.00  0.00    +0.022 A 
ATOM     20  C   UNL     1       3.928  -6.592  -3.355  0.00  0.00    +0.041 A 
ATOM     21  C   UNL     1       4.537  -7.457  -2.462  0.00  0.00    +0.022 A 
ATOM     22  C   UNL     1       4.009  -7.629  -1.198  0.00  0.00    +0.025 A 
ATOM     23 CL   UNL     1       4.599  -6.372  -4.941  0.00  0.00    -0.084 Cl
ENDBRANCH   5  17
BRANCH   1  24
ATOM     24  S   UNL     1       2.405  -4.627   1.496  0.00  0.00    -0.108 S 
BRANCH  24  25
ATOM     25  C   UNL     1       0.630  -4.517   1.134  0.00  0.00    +0.168 C 
BRANCH  25  33
ATOM     26  C   UNL     1      -2.682   0.234  -0.977  0.00  0.00    +0.009 C 
ATOM     27  C   UNL     1      -2.146  -1.192  -0.839  0.00  0.00    +0.003 C 
ATOM     28  C   UNL     1      -3.309  -2.184  -0.906  0.00  0.00    +0.006 C 
ATOM     29  C   UNL     1      -2.771  -3.613  -0.801  0.00  0.00    +0.019 C 
ATOM     30  C   UNL     1      -2.062  -3.789   0.546  0.00  0.00    +0.108 C 
ATOM     31  N   UNL     1      -1.036  -2.746   0.681  0.00  0.00    -0.301 N 
ATOM     32  C   UNL     1      -1.429  -1.341   0.507  0.00  0.00    +0.111 C 
ATOM     33  C   UNL     1       0.242  -3.071   0.958  0.00  0.00    +0.226 C 
ATOM     34  O   UNL     1       1.080  -2.201   1.067  0.00  0.00    -0.275 OA
ENDBRANCH  25  33
ENDBRANCH  24  25
ENDBRANCH   1  24
TORSDOF 5
