REMARK  Name = ZINC21908147
REMARK  7 active torsions:
REMARK  status: ('A' for Active; 'I' for Inactive)
REMARK    1  A    between atoms: C_1  and  C_2
REMARK    2  A    between atoms: C_2  and  C_3
REMARK    3  A    between atoms: C_2  and  C_4
REMARK    4  A    between atoms: C_7  and  C_10
REMARK    5  A    between atoms: C_16  and  C_18
REMARK    6  A    between atoms: N_26  and  C_29
REMARK    7  A    between atoms: C_29  and  C_30
REMARK                            x       y       z     vdW  Elec       q    Type
REMARK                         _______ _______ _______ _____ _____    ______ ____
ROOT
ATOM      1  C   UNL     1       8.561  -1.587  -0.090  0.00  0.00    +0.134 A 
ATOM      2  N   UNL     1       7.506  -2.392  -0.084  0.00  0.00    -0.140 NA
ATOM      3  N   UNL     1       6.327  -1.945  -0.065  0.00  0.00    -0.125 NA
ATOM      4  C   UNL     1       6.071  -0.642  -0.061  0.00  0.00    +0.188 A 
ATOM      5  S   UNL     1       7.741   0.004  -0.074  0.00  0.00    -0.030 S 
ATOM      6  N   UNL     1       4.855   0.028  -0.046  0.00  0.00    -0.259 N 
ATOM      7  C   UNL     1       3.702  -0.669  -0.038  0.00  0.00    +0.250 C 
ATOM      8  O   UNL     1       3.726  -1.884  -0.045  0.00  0.00    -0.270 OA
ATOM      9  H   UNL     1       4.834   1.128  -0.040  0.00  0.00    +0.157 HD
ENDROOT
BRANCH   7  10
ATOM     10  C   UNL     1       2.406   0.045  -0.021  0.00  0.00    +0.038 A 
ATOM     11  C   UNL     1       2.381   1.440  -0.013  0.00  0.00    +0.014 A 
ATOM     12  C   UNL     1       1.173   2.116   0.002  0.00  0.00    +0.014 A 
ATOM     13  C   UNL     1      -0.017   1.406   0.010  0.00  0.00    +0.049 A 
ATOM     14  C   UNL     1       0.002  -0.004   0.002  0.00  0.00    +0.050 A 
ATOM     15  C   UNL     1       1.210  -0.679  -0.014  0.00  0.00    +0.027 A 
ATOM     16  C   UNL     1      -1.414  -0.428   0.014  0.00  0.00    +0.254 C 
ATOM     17  O   UNL     1      -1.810  -1.576   0.011  0.00  0.00    -0.270 OA
ATOM     18  N   UNL     1      -2.191   0.670   0.027  0.00  0.00    -0.227 N 
ATOM     19  C   UNL     1      -1.446   1.790   0.031  0.00  0.00    +0.254 C 
ATOM     20  O   UNL     1      -1.875   2.926   0.043  0.00  0.00    -0.270 OA
BRANCH  18  21
ATOM     21  C   UNL     1      -3.656   0.648   0.041  0.00  0.00    +0.191 C 
BRANCH  21  22
ATOM     22  C   UNL     1      -4.145   0.633   1.466  0.00  0.00    +0.123 A 
ATOM     23  C   UNL     1      -4.411   1.716   2.219  0.00  0.00    +0.046 A 
ATOM     24  C   UNL     1      -4.842   1.243   3.479  0.00  0.00    +0.041 A 
ATOM     25  C   UNL     1      -4.806  -0.101   3.425  0.00  0.00    +0.195 A 
ATOM     26  O   UNL     1      -4.383  -0.465   2.203  0.00  0.00    -0.466 OA
ENDBRANCH  21  22
ENDBRANCH  18  21
ENDBRANCH   7  10
BRANCH   1  30
ATOM     27  C   UNL     1      12.705  -2.521  -0.135  0.00  0.00    -0.045 A 
ATOM     28  C   UNL     1      11.769  -3.540  -0.130  0.00  0.00    +0.004 A 
ATOM     29  C   UNL     1      10.422  -3.244  -0.116  0.00  0.00    +0.011 A 
ATOM     30  C   UNL     1      10.003  -1.912  -0.106  0.00  0.00    +0.009 A 
ATOM     31  C   UNL     1      10.952  -0.889  -0.116  0.00  0.00    +0.011 A 
ATOM     32  C   UNL     1      12.297  -1.199  -0.125  0.00  0.00    +0.004 A 
BRANCH  27  34
ATOM     33  C   UNL     1      14.819  -2.254  -1.403  0.00  0.00    +0.012 C 
ATOM     34  C   UNL     1      14.175  -2.852  -0.150  0.00  0.00    +0.013 C 
ATOM     35  C   UNL     1      14.843  -2.266   1.095  0.00  0.00    +0.012 C 
ENDBRANCH  27  34
ENDBRANCH   1  30
TORSDOF 5
