REMARK  Name = ZINC13094874
REMARK  7 active torsions:
REMARK  status: ('A' for Active; 'I' for Inactive)
REMARK    1  A    between atoms: C_1  and  C_2
REMARK    2  A    between atoms: C_5  and  C_30
REMARK    3  A    between atoms: N_8  and  S_10
REMARK    4  A    between atoms: S_10  and  C_13
REMARK    5  A    between atoms: C_17  and  C_19
REMARK    6  A    between atoms: N_21  and  C_22
REMARK    7  A    between atoms: C_26  and  C_28
REMARK                            x       y       z     vdW  Elec       q    Type
REMARK                         _______ _______ _______ _____ _____    ______ ____
ROOT
ATOM      1  C   UNL     1      -1.639   2.351   1.797  0.00  0.00    +0.106 A 
ATOM      2  C   UNL     1      -1.357   3.571   2.386  0.00  0.00    +0.028 A 
ATOM      3  C   UNL     1      -1.837   3.864   3.650  0.00  0.00    +0.003 A 
ATOM      4  C   UNL     1      -2.602   2.940   4.332  0.00  0.00    +0.013 A 
ATOM      5  C   UNL     1      -2.890   1.707   3.744  0.00  0.00    +0.039 A 
ATOM      6  C   UNL     1      -2.407   1.421   2.465  0.00  0.00    +0.041 A 
ENDROOT
BRANCH   5   7
ATOM      7  C   UNL     1      -3.708   0.712   4.468  0.00  0.00    +0.248 C 
ATOM      8  O   UNL     1      -3.958  -0.360   3.954  0.00  0.00    -0.270 OA
ATOM      9  N   UNL     1      -4.178   0.994   5.700  0.00  0.00    -0.281 N 
ATOM     10  H   UNL     1      -3.916   1.817   6.142  0.00  0.00    +0.155 HD
BRANCH   9  11
ATOM     11  C   UNL     1      -5.043   0.101   6.340  0.00  0.00    +0.034 A 
ATOM     12  C   UNL     1      -5.000  -0.038   7.723  0.00  0.00    +0.023 A 
ATOM     13  C   UNL     1      -5.852  -0.919   8.361  0.00  0.00    +0.003 A 
ATOM     14  C   UNL     1      -6.752  -1.668   7.629  0.00  0.00    +0.015 A 
ATOM     15  C   UNL     1      -6.803  -1.536   6.240  0.00  0.00    +0.065 A 
ATOM     16  C   UNL     1      -5.946  -0.643   5.597  0.00  0.00    +0.038 A 
BRANCH  15  17
ATOM     17  C   UNL     1      -7.766  -2.336   5.455  0.00  0.00    +0.387 C 
ATOM     18  O   UNL     1      -7.809  -2.219   4.247  0.00  0.00    -0.241 OA
ATOM     19  O   UNL     1      -8.596  -3.194   6.079  0.00  0.00    -0.241 OA
ENDBRANCH  15  17
ENDBRANCH   9  11
ENDBRANCH   5   7
BRANCH   1  20
ATOM     20  S   UNL     1      -1.023   1.989   0.186  0.00  0.00    +0.061 S 
ATOM     21  O   UNL     1      -0.794   3.238  -0.451  0.00  0.00    -0.153 OA
ATOM     22  O   UNL     1      -1.881   0.999  -0.364  0.00  0.00    -0.153 OA
BRANCH  20  28
ATOM     23  C   UNL     1       3.806   2.484   1.674  0.00  0.00    +0.009 C 
ATOM     24  C   UNL     1       2.466   1.747   1.686  0.00  0.00    +0.002 C 
ATOM     25  C   UNL     1       2.713   0.237   1.735  0.00  0.00    +0.009 C 
ATOM     26  C   UNL     1       1.373  -0.500   1.780  0.00  0.00    +0.002 C 
ATOM     27  C   UNL     1       0.578  -0.182   0.510  0.00  0.00    +0.112 C 
ATOM     28  N   UNL     1       0.459   1.276   0.379  0.00  0.00    -0.176 NA
ATOM     29  C   UNL     1       1.682   2.090   0.415  0.00  0.00    +0.112 C 
ATOM     30  C   UNL     1       0.580  -0.045   3.006  0.00  0.00    +0.009 C 
ENDBRANCH  20  28
ENDBRANCH   1  20
TORSDOF 5
