REMARK  Name = ZINC13621509
REMARK  9 active torsions:
REMARK  status: ('A' for Active; 'I' for Inactive)
REMARK    1  A    between atoms: C_1  and  N_2
REMARK    2  A    between atoms: N_2  and  C_3
REMARK    3  A    between atoms: C_9  and  C_11
REMARK    4  A    between atoms: C_15  and  N_17
REMARK    5  A    between atoms: N_17  and  C_18
REMARK    6  A    between atoms: C_18  and  N_20
REMARK    7  A    between atoms: C_21  and  C_23
REMARK    8  A    between atoms: C_28  and  O_29
REMARK    9  A    between atoms: O_29  and  C_30
REMARK                            x       y       z     vdW  Elec       q    Type
REMARK                         _______ _______ _______ _____ _____    ______ ____
ROOT
ATOM      1  N   UNL     1       3.772   7.342   1.417  0.00  0.00    -0.297 N 
ATOM      2  H   UNL     1       3.523   7.564   2.328  0.00  0.00    +0.154 HD
ENDROOT
BRANCH   1   7
ATOM      3  C   UNL     1       6.003  10.040   0.263  0.00  0.00    +0.039 A 
ATOM      4  C   UNL     1       6.966   9.300  -0.426  0.00  0.00    +0.013 A 
ATOM      5  C   UNL     1       6.861   7.926  -0.496  0.00  0.00    +0.003 A 
ATOM      6  C   UNL     1       5.807   7.276   0.118  0.00  0.00    +0.023 A 
ATOM      7  C   UNL     1       4.840   8.004   0.802  0.00  0.00    +0.033 A 
ATOM      8  C   UNL     1       4.936   9.385   0.879  0.00  0.00    +0.036 A 
BRANCH   3  11
ATOM      9  C   UNL     1       8.532  11.287   0.144  0.00  0.00    +0.138 C 
ATOM     10  N   UNL     1       7.318  12.104   0.220  0.00  0.00    -0.271 N 
ATOM     11  C   UNL     1       6.114  11.512   0.341  0.00  0.00    +0.251 C 
ATOM     12  O   UNL     1       5.118  12.188   0.514  0.00  0.00    -0.270 OA
BRANCH  10  13
ATOM     13  C   UNL     1       7.409  13.499   0.168  0.00  0.00    +0.036 A 
ATOM     14  C   UNL     1       6.267  14.277   0.309  0.00  0.00    +0.023 A 
ATOM     15  C   UNL     1       6.361  15.654   0.262  0.00  0.00    +0.002 A 
ATOM     16  C   UNL     1       7.589  16.258   0.065  0.00  0.00    +0.000 A 
ATOM     17  C   UNL     1       8.727  15.486  -0.081  0.00  0.00    +0.002 A 
ATOM     18  C   UNL     1       8.641  14.109  -0.030  0.00  0.00    +0.023 A 
ENDBRANCH  10  13
ENDBRANCH   3  11
ENDBRANCH   1   7
BRANCH   1  19
ATOM     19  C   UNL     1       3.088   6.395   0.744  0.00  0.00    +0.141 C 
ATOM     20  S   UNL     1       3.435   6.098  -0.906  0.00  0.00    -0.018 S 
BRANCH  19  21
ATOM     21  N   UNL     1       2.131   5.681   1.371  0.00  0.00    -0.263 N 
ATOM     22  C   UNL     1       1.448   4.734   0.698  0.00  0.00    +0.253 C 
ATOM     23  O   UNL     1       1.695   4.523  -0.474  0.00  0.00    -0.270 OA
ATOM     24  H   UNL     1       1.935   5.849   2.305  0.00  0.00    +0.157 HD
BRANCH  22  25
ATOM     25  C   UNL     1       0.402   3.954   1.383  0.00  0.00    +0.080 A 
ATOM     26  C   UNL     1       0.115   4.193   2.730  0.00  0.00    +0.032 A 
ATOM     27  C   UNL     1      -0.866   3.460   3.364  0.00  0.00    +0.019 A 
ATOM     28  C   UNL     1      -1.572   2.489   2.671  0.00  0.00    +0.019 A 
ATOM     29  C   UNL     1      -1.294   2.240   1.342  0.00  0.00    +0.047 A 
ATOM     30  C   UNL     1      -0.312   2.968   0.688  0.00  0.00    +0.132 A 
ATOM     31 BR   UNL     1      -1.253   3.785   5.186  0.00  0.00    -0.050 Br
BRANCH  30  32
ATOM     32  O   UNL     1      -0.042   2.727  -0.620  0.00  0.00    -0.494 OA
ATOM     33  C   UNL     1      -0.810   1.708  -1.264  0.00  0.00    +0.277 C 
ENDBRANCH  30  32
ENDBRANCH  22  25
ENDBRANCH  19  21
ENDBRANCH   1  19
TORSDOF 7
