REMARK  Name = ZINC39665179
REMARK  8 active torsions:
REMARK  status: ('A' for Active; 'I' for Inactive)
REMARK    1  A    between atoms: C_1  and  C_2
REMARK    2  A    between atoms: C_2  and  C_4
REMARK    3  A    between atoms: C_2  and  O_28
REMARK    4  A    between atoms: C_4  and  N_5
REMARK    5  A    between atoms: C_6  and  C_8
REMARK    6  A    between atoms: C_19  and  C_21
REMARK    7  A    between atoms: C_21  and  C_27
REMARK    8  A    between atoms: O_28  and  C_29
REMARK                            x       y       z     vdW  Elec       q    Type
REMARK                         _______ _______ _______ _____ _____    ______ ____
ROOT
ATOM      1  C   UNL     1       1.928  -4.657   1.453  0.00  0.00    +0.100 C 
ATOM      2  C   UNL     1       2.844  -4.929   0.239  0.00  0.00    +0.121 C 
ATOM      3  N   UNL     1       4.142  -5.329   0.831  0.00  0.00    -0.300 N 
ATOM      4  C   UNL     1       3.773  -6.174   1.991  0.00  0.00    +0.115 C 
ATOM      5  C   UNL     1       2.539  -5.479   2.600  0.00  0.00    -0.004 C 
ATOM      6  C   UNL     1       2.963  -4.560   3.742  0.00  0.00    -0.010 C 
ATOM      7  C   UNL     1       3.515  -5.405   4.893  0.00  0.00    -0.082 C 
ATOM      8  N   UNL     1       2.485  -6.344   5.351  0.00  0.00    +0.379 N 
ATOM      9  C   UNL     1       2.149  -7.284   4.275  0.00  0.00    -0.082 C 
ATOM     10  C   UNL     1       1.540  -6.519   3.098  0.00  0.00    -0.010 C 
ATOM     11  C   UNL     1       5.379  -4.998   0.409  0.00  0.00    +0.222 C 
ATOM     12  O   UNL     1       5.519  -4.230  -0.518  0.00  0.00    -0.275 OA
ATOM     13  H   UNL     1       2.829  -6.857   6.149  0.00  0.00    -0.086 HD
ATOM     14  H   UNL     1       1.658  -5.830   5.617  0.00  0.00    -0.086 HD
ENDROOT
BRANCH  11  15
ATOM     15  C   UNL     1       6.589  -5.583   1.091  0.00  0.00    +0.044 C 
ATOM     16  C   UNL     1       6.689  -5.031   2.514  0.00  0.00    +0.016 C 
ATOM     17  C   UNL     1       6.821  -3.507   2.462  0.00  0.00    +0.001 C 
ATOM     18  C   UNL     1       8.080  -3.131   1.679  0.00  0.00    +0.000 C 
ATOM     19  C   UNL     1       7.979  -3.683   0.255  0.00  0.00    +0.001 C 
ATOM     20  C   UNL     1       7.848  -5.207   0.308  0.00  0.00    +0.016 C 
ATOM     21  C   UNL     1       6.457  -7.107   1.144  0.00  0.00    +0.021 C 
ENDBRANCH  11  15
BRANCH   1  23
ATOM     22  N   UNL     1       0.924  -2.663   2.517  0.00  0.00    -0.312 N 
ATOM     23  C   UNL     1       1.934  -3.190   1.798  0.00  0.00    +0.218 C 
ATOM     24  O   UNL     1       2.848  -2.484   1.427  0.00  0.00    -0.275 OA
ATOM     25  H   UNL     1       0.193  -3.227   2.814  0.00  0.00    +0.149 HD
BRANCH  22  26
ATOM     26  C   UNL     1       0.930  -1.236   2.852  0.00  0.00    +0.148 C 
BRANCH  26  28
ATOM     27  C   UNL     1      -0.313   0.591   4.018  0.00  0.00    +0.053 C 
ATOM     28  C   UNL     1      -0.320  -0.899   3.668  0.00  0.00    +0.187 C 
BRANCH  28  29
ATOM     29  O   UNL     1      -1.486  -1.203   2.901  0.00  0.00    -0.488 OA
BRANCH  29  30
ATOM     30  C   UNL     1      -2.575  -1.645   3.583  0.00  0.00    +0.121 A 
ATOM     31  C   UNL     1      -3.696  -2.085   2.893  0.00  0.00    +0.045 A 
ATOM     32  C   UNL     1      -4.802  -2.534   3.588  0.00  0.00    +0.004 A 
ATOM     33  C   UNL     1      -4.793  -2.544   4.971  0.00  0.00    +0.000 A 
ATOM     34  C   UNL     1      -3.677  -2.106   5.661  0.00  0.00    +0.004 A 
ATOM     35  C   UNL     1      -2.567  -1.662   4.970  0.00  0.00    +0.045 A 
ENDBRANCH  29  30
ENDBRANCH  28  29
ENDBRANCH  26  28
ENDBRANCH  22  26
ENDBRANCH   1  23
TORSDOF 6
