REMARK  Name = ZINC09368314
REMARK  5 active torsions:
REMARK  status: ('A' for Active; 'I' for Inactive)
REMARK    1  A    between atoms: C_6  and  C_11
REMARK    2  A    between atoms: C_17  and  S_19
REMARK    3  A    between atoms: S_19  and  C_20
REMARK    4  A    between atoms: C_20  and  C_21
REMARK    5  A    between atoms: N_23  and  C_24
REMARK                            x       y       z     vdW  Elec       q    Type
REMARK                         _______ _______ _______ _____ _____    ______ ____
ROOT
ATOM      1  C   UNL     1       2.757  -0.877  -6.476  0.00  0.00    +0.250 C 
ATOM      2  O   UNL     1       3.344  -1.283  -5.492  0.00  0.00    -0.270 OA
ATOM      3  N   UNL     1       1.657  -0.110  -6.336  0.00  0.00    -0.259 N 
ATOM      4  C   UNL     1       1.194   0.217  -5.065  0.00  0.00    +0.189 A 
ATOM      5  N   UNL     1       1.671  -0.112  -3.876  0.00  0.00    -0.125 NA
ATOM      6  N   UNL     1       1.125   0.274  -2.807  0.00  0.00    -0.133 NA
ATOM      7  C   UNL     1       0.038   1.032  -2.809  0.00  0.00    +0.160 A 
ATOM      8  S   UNL     1      -0.221   1.197  -4.573  0.00  0.00    -0.024 S 
ATOM      9  H   UNL     1       1.189   0.214  -7.122  0.00  0.00    +0.157 HD
ENDROOT
BRANCH   1  15
ATOM     10  C   UNL     1       5.717  -2.962 -11.805  0.00  0.00    +0.001 A 
ATOM     11  C   UNL     1       6.403  -3.436 -10.688  0.00  0.00    +0.001 A 
ATOM     12  C   UNL     1       5.983  -3.138  -9.429  0.00  0.00    +0.008 A 
ATOM     13  C   UNL     1       4.839  -2.339  -9.248  0.00  0.00    -0.017 A 
ATOM     14  C   UNL     1       4.378  -2.013  -7.963  0.00  0.00    +0.021 A 
ATOM     15  C   UNL     1       3.248  -1.224  -7.826  0.00  0.00    +0.038 A 
ATOM     16  C   UNL     1       2.561  -0.756  -8.961  0.00  0.00    +0.013 A 
ATOM     17  C   UNL     1       2.996  -1.057 -10.210  0.00  0.00    +0.009 A 
ATOM     18  C   UNL     1       4.141  -1.856 -10.384  0.00  0.00    -0.018 A 
ATOM     19  C   UNL     1       4.606  -2.186 -11.668  0.00  0.00    +0.008 A 
ENDBRANCH   1  15
BRANCH   7  20
ATOM     20  S   UNL     1      -0.891   1.685  -1.462  0.00  0.00    -0.088 S 
BRANCH  20  21
ATOM     21  C   UNL     1      -0.016   1.080   0.008  0.00  0.00    +0.172 C 
BRANCH  21  22
ATOM     22  C   UNL     1      -0.717   1.573   1.248  0.00  0.00    +0.227 C 
ATOM     23  O   UNL     1      -1.709   2.265   1.150  0.00  0.00    -0.275 OA
ATOM     24  N   UNL     1      -0.242   1.246   2.466  0.00  0.00    -0.285 N 
ATOM     25  H   UNL     1       0.511   0.639   2.546  0.00  0.00    +0.155 HD
BRANCH  24  26
ATOM     26  C   UNL     1      -0.833   1.782   3.615  0.00  0.00    +0.033 A 
ATOM     27  C   UNL     1      -0.052   2.086   4.723  0.00  0.00    +0.024 A 
ATOM     28  C   UNL     1      -0.638   2.620   5.854  0.00  0.00    +0.017 A 
ATOM     29  C   UNL     1      -2.004   2.841   5.888  0.00  0.00    +0.018 A 
ATOM     30  C   UNL     1      -2.785   2.534   4.788  0.00  0.00    +0.017 A 
ATOM     31  C   UNL     1      -2.204   2.006   3.652  0.00  0.00    +0.024 A 
ATOM     32 BR   UNL     1      -2.803   3.566   7.441  0.00  0.00    -0.050 Br
ENDBRANCH  24  26
ENDBRANCH  21  22
ENDBRANCH  20  21
ENDBRANCH   7  20
TORSDOF 5
