REMARK  Name = ZINC04095454
REMARK  4 active torsions:
REMARK  status: ('A' for Active; 'I' for Inactive)
REMARK    1  A    between atoms: C_4  and  C_8
REMARK    2  A    between atoms: C_10  and  C_20
REMARK    3  A    between atoms: C_15  and  N_19
REMARK    4  A    between atoms: C_16  and  C_17
REMARK                            x       y       z     vdW  Elec       q    Type
REMARK                         _______ _______ _______ _____ _____    ______ ____
ROOT
ATOM      1  C   UNL     1       3.713  -0.707  -0.038  0.00  0.00    +0.088 C 
ATOM      2  C   UNL     1       3.742  -1.620  -1.257  0.00  0.00    +0.159 C 
ATOM      3  C   UNL     1       5.000  -2.469  -1.203  0.00  0.00    +0.089 C 
ATOM      4  N   UNL     1       5.927  -2.384  -2.102  0.00  0.00    -0.296 NA
ATOM      5  S   UNL     1       5.120  -3.584   0.171  0.00  0.00    -0.058 S 
ATOM      6  C   UNL     1       4.463  -2.607   1.486  0.00  0.00    +0.079 C 
ATOM      7  C   UNL     1       3.873  -1.422   1.255  0.00  0.00    +0.066 C 
ATOM      8  H   UNL     1       5.830  -1.763  -2.840  0.00  0.00    +0.187 HD
ENDROOT
BRANCH   1  12
ATOM      9  C   UNL     1      -0.017   1.377   0.010  0.00  0.00    +0.003 A 
ATOM     10  C   UNL     1       1.114   1.997  -0.488  0.00  0.00    +0.020 A 
ATOM     11  C   UNL     1       2.322   1.322  -0.504  0.00  0.00    +0.046 A 
ATOM     12  C   UNL     1       2.398   0.028  -0.021  0.00  0.00    -0.001 A 
ATOM     13  C   UNL     1       1.266  -0.591   0.478  0.00  0.00    +0.046 A 
ATOM     14  C   UNL     1       0.058   0.085   0.493  0.00  0.00    +0.020 A 
ATOM     15 CL   UNL     1       1.360  -2.215   1.084  0.00  0.00    -0.083 Cl
ATOM     16 CL   UNL     1       3.742   2.099  -1.131  0.00  0.00    -0.083 Cl
ENDBRANCH   1  12
BRANCH   6  17
ATOM     17  N   UNL     1       4.555  -3.071   2.777  0.00  0.00    -0.352 N 
ATOM     18  H   UNL     1       4.977  -3.925   2.956  0.00  0.00    +0.143 HD
ATOM     19  H   UNL     1       4.199  -2.543   3.509  0.00  0.00    +0.143 HD
ENDBRANCH   6  17
BRANCH   7  20
ATOM     20  C   UNL     1       3.332  -0.761   2.405  0.00  0.00    +0.098 C 
ATOM     21  N   UNL     1       2.903  -0.237   3.317  0.00  0.00    -0.191 NA
ENDBRANCH   7  20
BRANCH   2  22
ATOM     22  C   UNL     1       2.555  -2.491  -1.250  0.00  0.00    +0.074 C 
ATOM     23  N   UNL     1       1.639  -3.163  -1.244  0.00  0.00    -0.196 NA
ENDBRANCH   2  22
TORSDOF 4
