REMARK  Name = ZINC65055564
REMARK  8 active torsions:
REMARK  status: ('A' for Active; 'I' for Inactive)
REMARK    1  A    between atoms: C_1  and  C_2
REMARK    2  A    between atoms: C_4  and  C_31
REMARK    3  A    between atoms: C_6  and  N_8
REMARK    4  A    between atoms: N_8  and  S_9
REMARK    5  A    between atoms: S_9  and  C_12
REMARK    6  A    between atoms: C_14  and  C_18
REMARK    7  A    between atoms: N_20  and  C_21
REMARK    8  A    between atoms: C_25  and  C_27
REMARK                            x       y       z     vdW  Elec       q    Type
REMARK                         _______ _______ _______ _____ _____    ______ ____
ROOT
ATOM      1  C   UNL     1       0.089  -3.243   5.087  0.00  0.00    +0.327 C 
ATOM      2  C   UNL     1       0.136  -2.648   6.484  0.00  0.00    +0.083 C 
ATOM      3  C   UNL     1       1.303  -3.108   6.989  0.00  0.00    +0.147 C 
ATOM      4  N   UNL     1       1.937  -3.884   6.082  0.00  0.00    -0.160 NA
ATOM      5  N   UNL     1       1.340  -4.016   5.007  0.00  0.00    -0.154 NA
ENDROOT
BRANCH   2   6
ATOM      6  C   UNL     1      -0.853  -1.778   7.133  0.00  0.00    +0.250 C 
ATOM      7  O   UNL     1      -0.664  -1.383   8.268  0.00  0.00    -0.270 OA
ATOM      8  N   UNL     1      -1.971  -1.417   6.472  0.00  0.00    -0.282 N 
ATOM      9  H   UNL     1      -2.093  -1.681   5.547  0.00  0.00    +0.155 HD
BRANCH   8  10
ATOM     10  C   UNL     1      -2.953  -0.661   7.119  0.00  0.00    +0.034 A 
ATOM     11  C   UNL     1      -2.588   0.303   8.051  0.00  0.00    +0.023 A 
ATOM     12  C   UNL     1      -3.561   1.047   8.688  0.00  0.00    +0.002 A 
ATOM     13  C   UNL     1      -4.897   0.834   8.400  0.00  0.00    +0.012 A 
ATOM     14  C   UNL     1      -5.263  -0.125   7.474  0.00  0.00    +0.057 A 
ATOM     15  C   UNL     1      -4.295  -0.869   6.828  0.00  0.00    +0.035 A 
BRANCH  14  16
ATOM     16  C   UNL     1      -6.720  -0.355   7.164  0.00  0.00    +0.417 C 
ATOM     17  F   UNL     1      -7.503   0.514   7.932  0.00  0.00    -0.166 F 
ATOM     18  F   UNL     1      -6.952  -0.113   5.805  0.00  0.00    -0.166 F 
ATOM     19  F   UNL     1      -7.058  -1.678   7.466  0.00  0.00    -0.166 F 
ENDBRANCH  14  16
ENDBRANCH   8  10
ENDBRANCH   2   6
BRANCH   1  20
ATOM     20  S   UNL     1       0.063  -1.933   3.833  0.00  0.00    +0.092 S 
ATOM     21  O   UNL     1       1.283  -1.206   3.859  0.00  0.00    -0.151 OA
ATOM     22  O   UNL     1      -1.186  -1.255   3.860  0.00  0.00    -0.151 OA
BRANCH  20  23
ATOM     23  N   UNL     1       0.078  -2.732   2.383  0.00  0.00    -0.100 NA
BRANCH  23  29
ATOM     24  C   UNL     1      -0.009   1.596   0.056  0.00  0.00    +0.044 C 
ATOM     25  C   UNL     1       0.021   0.089   0.029  0.00  0.00    -0.048 A 
ATOM     26  C   UNL     1       0.035  -0.580  -1.181  0.00  0.00    +0.006 A 
ATOM     27  C   UNL     1       0.062  -1.962  -1.210  0.00  0.00    -0.048 A 
ATOM     28  C   UNL     1       0.076  -2.679  -0.030  0.00  0.00    +0.030 A 
ATOM     29  C   UNL     1       0.063  -2.010   1.187  0.00  0.00    +0.074 A 
ATOM     30  C   UNL     1       0.041  -0.622   1.213  0.00  0.00    +0.030 A 
ATOM     31  C   UNL     1       0.075  -2.687  -2.532  0.00  0.00    +0.044 C 
ENDBRANCH  23  29
ENDBRANCH  20  23
ENDBRANCH   1  20
TORSDOF 6
