REMARK  Name = ZINC03631462
REMARK  13 active torsions:
REMARK  status: ('A' for Active; 'I' for Inactive)
REMARK    1  A    between atoms: C_1  and  C_2
REMARK    2  A    between atoms: C_2  and  O_3
REMARK    3  A    between atoms: O_3  and  C_4
REMARK    4  A    between atoms: C_4  and  C_6
REMARK    5  A    between atoms: C_7  and  C_35
REMARK    6  A    between atoms: C_11  and  C_13
REMARK    7  A    between atoms: C_15  and  O_21
REMARK    8  A    between atoms: C_16  and  O_20
REMARK    9  A    between atoms: O_21  and  C_22
REMARK   10  A    between atoms: C_25  and  C_31
REMARK   11  A    between atoms: C_27  and  C_30
REMARK   12  A    between atoms: C_31  and  O_33
REMARK   13  A    between atoms: O_33  and  C_34
REMARK                            x       y       z     vdW  Elec       q    Type
REMARK                         _______ _______ _______ _____ _____    ______ ____
ROOT
ATOM      1  C   UNL     1       1.295  -2.590   2.321  0.00  0.00    +0.065 C 
ATOM      2  C   UNL     1       1.387  -3.923   2.467  0.00  0.00    +0.016 C 
ATOM      3  N   UNL     1       1.980  -4.459   3.576  0.00  0.00    -0.321 N 
ATOM      4  C   UNL     1       2.825  -3.706   4.348  0.00  0.00    +0.016 C 
ATOM      5  C   UNL     1       2.798  -2.358   4.279  0.00  0.00    +0.025 C 
ATOM      6  C   UNL     1       1.834  -1.653   3.361  0.00  0.00    +0.092 C 
ATOM      7  C   UNL     1       3.671  -1.575   5.054  0.00  0.00    +0.176 C 
ATOM      8  O   UNL     1       3.615  -0.364   4.974  0.00  0.00    -0.291 OA
ATOM      9  C   UNL     1       4.672  -2.208   5.981  0.00  0.00    +0.171 C 
ATOM     10  C   UNL     1       5.054  -3.588   5.435  0.00  0.00    +0.013 C 
ATOM     11  C   UNL     1       3.779  -4.418   5.276  0.00  0.00    +0.055 C 
ATOM     12  C   UNL     1       5.743  -3.431   4.078  0.00  0.00    +0.009 C 
ATOM     13  C   UNL     1       0.832  -4.834   1.402  0.00  0.00    +0.061 C 
ATOM     14  H   UNL     1       1.801  -5.380   3.819  0.00  0.00    +0.152 HD
ENDROOT
BRANCH   6  15
ATOM     15  C   UNL     1       0.691  -1.108   4.176  0.00  0.00    -0.030 A 
ATOM     16  C   UNL     1       0.454   0.254   4.208  0.00  0.00    +0.054 A 
ATOM     17  C   UNL     1      -0.597   0.758   4.957  0.00  0.00    +0.163 A 
ATOM     18  C   UNL     1      -1.414  -0.110   5.676  0.00  0.00    +0.173 A 
ATOM     19  C   UNL     1      -1.172  -1.474   5.640  0.00  0.00    +0.063 A 
ATOM     20  C   UNL     1      -0.123  -1.970   4.886  0.00  0.00    +0.023 A 
ATOM     21 BR   UNL     1      -2.278  -2.657   6.615  0.00  0.00    -0.046 Br
BRANCH  18  22
ATOM     22  O   UNL     1      -2.446   0.380   6.414  0.00  0.00    -0.503 OA
ATOM     23  H   UNL     1      -3.280   0.446   5.928  0.00  0.00    +0.292 HD
ENDBRANCH  18  22
BRANCH  17  24
ATOM     24  O   UNL     1      -0.830   2.097   4.990  0.00  0.00    -0.491 OA
ATOM     25  C   UNL     1       0.049   2.928   4.228  0.00  0.00    +0.277 C 
ENDBRANCH  17  24
ENDBRANCH   6  15
BRANCH   1  26
ATOM     26  C   UNL     1       0.683  -2.061   1.160  0.00  0.00    +0.338 C 
ATOM     27  O   UNL     1       0.376  -2.800   0.243  0.00  0.00    -0.245 OA
BRANCH  26  28
ATOM     28  O   UNL     1       0.439  -0.737   1.071  0.00  0.00    -0.462 OA
BRANCH  28  30
ATOM     29  C   UNL     1      -0.377   1.244  -0.048  0.00  0.00    +0.048 C 
ATOM     30  C   UNL     1      -0.182  -0.271  -0.129  0.00  0.00    +0.229 C 
ENDBRANCH  28  30
ENDBRANCH  26  28
ENDBRANCH   1  26
BRANCH   9  31
ATOM     31  C   UNL     1       5.901  -1.339   6.066  0.00  0.00    +0.318 C 
ATOM     32  O   UNL     1       6.289  -0.745   5.088  0.00  0.00    -0.250 OA
BRANCH  31  33
ATOM     33  O   UNL     1       6.564  -1.226   7.227  0.00  0.00    -0.467 OA
ATOM     34  C   UNL     1       7.720  -0.386   7.235  0.00  0.00    +0.280 C 
ENDBRANCH  31  33
ENDBRANCH   9  31
TORSDOF 8
