REMARK  Name = ZINC13941996
REMARK  7 active torsions:
REMARK  status: ('A' for Active; 'I' for Inactive)
REMARK    1  A    between atoms: C_1  and  C_2
REMARK    2  A    between atoms: C_5  and  C_8
REMARK    3  A    between atoms: C_8  and  C_30
REMARK    4  A    between atoms: N_9  and  N_10
REMARK    5  A    between atoms: C_16  and  C_19
REMARK    6  A    between atoms: N_21  and  C_22
REMARK    7  A    between atoms: C_25  and  C_28
REMARK                            x       y       z     vdW  Elec       q    Type
REMARK                         _______ _______ _______ _____ _____    ______ ____
ROOT
ATOM      1  N   UNL     1       0.998  12.459  -2.473  0.00  0.00    -0.126 NA
ATOM      2  C   UNL     1       0.276  11.693  -1.681  0.00  0.00    +0.183 C 
ATOM      3  N   UNL     1      -0.461  12.238  -0.650  0.00  0.00    -0.264 N 
ATOM      4  C   UNL     1      -0.934  11.543   0.376  0.00  0.00    +0.220 C 
ATOM      5  O   UNL     1      -1.494  12.177   1.245  0.00  0.00    -0.275 OA
ATOM      6  C   UNL     1      -0.853  10.067   0.580  0.00  0.00    +0.120 C 
ATOM      7  C   UNL     1       0.328   9.447  -0.167  0.00  0.00    +0.149 C 
ATOM      8  S   UNL     1       0.227   9.940  -1.912  0.00  0.00    -0.075 S 
ATOM      9  H   UNL     1      -0.645  13.190  -0.677  0.00  0.00    +0.157 HD
ENDROOT
BRANCH   7  10
ATOM     10  C   UNL     1       0.263   7.946  -0.060  0.00  0.00    +0.231 C 
ATOM     11  O   UNL     1      -0.812   7.384  -0.053  0.00  0.00    -0.274 OA
ATOM     12  N   UNL     1       1.400   7.226   0.026  0.00  0.00    -0.285 N 
ATOM     13  H   UNL     1       2.255   7.678   0.098  0.00  0.00    +0.155 HD
BRANCH  12  14
ATOM     14  C   UNL     1       1.346   5.833   0.014  0.00  0.00    +0.033 A 
ATOM     15  C   UNL     1       0.372   5.183  -0.736  0.00  0.00    +0.024 A 
ATOM     16  C   UNL     1       0.316   3.808  -0.751  0.00  0.00    +0.017 A 
ATOM     17  C   UNL     1       1.239   3.064  -0.010  0.00  0.00    +0.063 A 
ATOM     18  C   UNL     1       2.214   3.721   0.748  0.00  0.00    +0.017 A 
ATOM     19  C   UNL     1       2.267   5.097   0.753  0.00  0.00    +0.024 A 
BRANCH  17  20
ATOM     20  C   UNL     1       1.182   1.591  -0.022  0.00  0.00    +0.387 C 
ATOM     21  O   UNL     1       0.332   1.022  -0.677  0.00  0.00    -0.241 OA
ATOM     22  O   UNL     1       2.073   0.876   0.692  0.00  0.00    -0.241 OA
ENDBRANCH  17  20
ENDBRANCH  12  14
ENDBRANCH   7  10
BRANCH   1  24
ATOM     23  C   UNL     1       1.738  14.494  -3.075  0.00  0.00    +0.068 C 
ATOM     24  N   UNL     1       1.022  13.735  -2.290  0.00  0.00    -0.152 NA
ATOM     25  C   UNL     1       2.536  13.879  -4.195  0.00  0.00    +0.068 C 
BRANCH  23  30
ATOM     26  C   UNL     1       1.844  20.184  -2.258  0.00  0.00    +0.044 C 
ATOM     27  C   UNL     1       1.816  18.692  -2.472  0.00  0.00    -0.050 A 
ATOM     28  C   UNL     1       1.056  17.891  -1.638  0.00  0.00    +0.004 A 
ATOM     29  C   UNL     1       1.026  16.526  -1.827  0.00  0.00    +0.010 A 
ATOM     30  C   UNL     1       1.765  15.951  -2.865  0.00  0.00    -0.002 A 
ATOM     31  C   UNL     1       2.535  16.766  -3.701  0.00  0.00    +0.010 A 
ATOM     32  C   UNL     1       2.550  18.131  -3.502  0.00  0.00    +0.004 A 
ENDBRANCH  23  30
ENDBRANCH   1  24
TORSDOF 5
