REMARK  Name = ZINC40217003
REMARK  4 active torsions:
REMARK  status: ('A' for Active; 'I' for Inactive)
REMARK    1  A    between atoms: C_3  and  N_11
REMARK    2  A    between atoms: C_5  and  S_7
REMARK    3  A    between atoms: S_7  and  N_10
REMARK    4  A    between atoms: C_12  and  C_14
REMARK                            x       y       z     vdW  Elec       q    Type
REMARK                         _______ _______ _______ _____ _____    ______ ____
ROOT
ATOM      1  C   UNL     1       1.115  -0.541  -0.583  0.00  0.00    +0.004 A 
ATOM      2  C   UNL     1       2.304   0.162  -0.603  0.00  0.00    +0.023 A 
ATOM      3  C   UNL     1       2.381   1.410   0.001  0.00  0.00    +0.035 A 
ATOM      4  C   UNL     1       1.262   1.947   0.623  0.00  0.00    +0.051 A 
ATOM      5  C   UNL     1       0.076   1.240   0.639  0.00  0.00    +0.107 A 
ATOM      6  C   UNL     1       0.002  -0.003   0.037  0.00  0.00    +0.028 A 
ENDROOT
BRANCH   3   7
ATOM      7  N   UNL     1       3.584   2.124  -0.017  0.00  0.00    -0.285 N 
ATOM      8  C   UNL     1       3.569   3.468  -0.116  0.00  0.00    +0.221 C 
ATOM      9  O   UNL     1       2.513   4.064  -0.107  0.00  0.00    -0.275 OA
ATOM     10  H   UNL     1       4.429   1.652   0.043  0.00  0.00    +0.155 HD
BRANCH   8  11
ATOM     11  C   UNL     1       4.863   4.229  -0.238  0.00  0.00    +0.079 C 
ATOM     12  C   UNL     1       4.608   5.634  -0.831  0.00  0.00    +0.016 C 
ATOM     13  C   UNL     1       5.085   6.622   0.278  0.00  0.00    -0.010 C 
ATOM     14  C   UNL     1       4.014   6.490   1.404  0.00  0.00    +0.004 C 
ATOM     15  C   UNL     1       4.250   5.085   2.005  0.00  0.00    +0.004 C 
ATOM     16  C   UNL     1       5.471   4.498   1.172  0.00  0.00    +0.001 C 
ATOM     17  C   UNL     1       6.282   5.814   0.891  0.00  0.00    +0.008 C 
ENDBRANCH   8  11
ENDBRANCH   3   7
BRANCH   5  18
ATOM     18  S   UNL     1      -1.345   1.921   1.427  0.00  0.00    +0.056 S 
ATOM     19  O   UNL     1      -2.179   0.825   1.778  0.00  0.00    -0.153 OA
ATOM     20  O   UNL     1      -0.868   2.854   2.388  0.00  0.00    -0.153 OA
BRANCH  18  21
ATOM     21  N   UNL     1      -2.167   2.795   0.286  0.00  0.00    -0.204 NA
ATOM     22  H   UNL     1      -1.828   2.849  -0.621  0.00  0.00    +0.144 HD
ATOM     23  H   UNL     1      -2.987   3.254   0.525  0.00  0.00    +0.144 HD
ENDBRANCH  18  21
ENDBRANCH   5  18
TORSDOF 4
