REMARK  Name = ZINC36882916
REMARK  2 active torsions:
REMARK  status: ('A' for Active; 'I' for Inactive)
REMARK    1  A    between atoms: C_3  and  N_18
REMARK    2  A    between atoms: C_4  and  C_8
REMARK                            x       y       z     vdW  Elec       q    Type
REMARK                         _______ _______ _______ _____ _____    ______ ____
ROOT
ATOM      1  C   UNL     1       3.859  -0.521  -0.051  0.00  0.00    +0.251 C 
ATOM      2  O   UNL     1       4.840   0.192   0.032  0.00  0.00    -0.270 OA
ATOM      3  N   UNL     1       4.005  -1.856  -0.171  0.00  0.00    -0.266 N 
ATOM      4  C   UNL     1       5.272  -2.428  -0.089  0.00  0.00    +0.125 A 
ATOM      5  C   UNL     1       5.405  -3.812  -0.106  0.00  0.00    +0.045 A 
ATOM      6  C   UNL     1       6.670  -4.368  -0.025  0.00  0.00    +0.020 A 
ATOM      7  C   UNL     1       7.763  -3.516   0.070  0.00  0.00    +0.036 A 
ATOM      8  C   UNL     1       7.557  -2.150   0.080  0.00  0.00    +0.128 A 
ATOM      9  N   UNL     1       6.339  -1.650  -0.003  0.00  0.00    -0.239 NA
ATOM     10 BR   UNL     1       9.515  -4.219   0.183  0.00  0.00    -0.049 Br
ATOM     11  H   UNL     1       3.227  -2.418  -0.313  0.00  0.00    +0.157 HD
ENDROOT
BRANCH   1  15
ATOM     12  C   UNL     1      -0.029   1.194   0.034  0.00  0.00    +0.040 A 
ATOM     13  C   UNL     1       1.078   2.017   0.006  0.00  0.00    +0.026 A 
ATOM     14  C   UNL     1       2.354   1.468  -0.021  0.00  0.00    +0.037 A 
ATOM     15  C   UNL     1       2.511   0.073  -0.021  0.00  0.00    +0.060 A 
ATOM     16  C   UNL     1       1.381  -0.749   0.007  0.00  0.00    +0.053 A 
ATOM     17  C   UNL     1       0.121  -0.185   0.034  0.00  0.00    +0.124 A 
ATOM     18  F   UNL     1      -0.970  -0.981   0.062  0.00  0.00    -0.205 F 
BRANCH  14  19
ATOM     19  N   UNL     1       3.470   2.296  -0.050  0.00  0.00    -0.357 N 
ATOM     20  H   UNL     1       3.359   3.256  -0.130  0.00  0.00    +0.142 HD
ATOM     21  H   UNL     1       4.359   1.914   0.011  0.00  0.00    +0.142 HD
ENDBRANCH  14  19
ENDBRANCH   1  15
TORSDOF 2
