REMARK  Name = ZINC53853446
REMARK  4 active torsions:
REMARK  status: ('A' for Active; 'I' for Inactive)
REMARK    1  A    between atoms: C_1  and  C_2
REMARK    2  A    between atoms: C_2  and  C_4
REMARK    3  A    between atoms: C_2  and  N_16
REMARK    4  A    between atoms: C_17  and  C_19
REMARK                            x       y       z     vdW  Elec       q    Type
REMARK                         _______ _______ _______ _____ _____    ______ ____
ROOT
ATOM      1  N   UNL     1       0.688  -0.476  -1.203  0.00  0.00    -0.304 N 
ATOM      2  C   UNL     1       2.031  -0.587  -1.215  0.00  0.00    +0.261 C 
ATOM      3  O   UNL     1       2.674  -0.294  -0.225  0.00  0.00    -0.269 OA
ATOM      4  H   UNL     1       0.175  -0.710  -1.993  0.00  0.00    +0.150 HD
ENDROOT
BRANCH   2   5
ATOM      5  C   UNL     1       2.719  -1.061  -2.425  0.00  0.00    +0.103 A 
ATOM      6  C   UNL     1       4.062  -1.219  -2.556  0.00  0.00    +0.040 A 
ATOM      7  C   UNL     1       4.315  -1.692  -3.866  0.00  0.00    +0.000 A 
ATOM      8  C   UNL     1       5.486  -2.028  -4.559  0.00  0.00    +0.011 A 
ATOM      9  C   UNL     1       5.409  -2.465  -5.849  0.00  0.00    +0.016 A 
ATOM     10  C   UNL     1       4.179  -2.580  -6.486  0.00  0.00    +0.020 A 
ATOM     11  C   UNL     1       3.014  -2.255  -5.826  0.00  0.00    +0.041 A 
ATOM     12  C   UNL     1       3.067  -1.808  -4.509  0.00  0.00    +0.048 A 
ATOM     13  N   UNL     1       2.103  -1.423  -3.607  0.00  0.00    -0.351 N 
ATOM     14  H   UNL     1       1.147  -1.405  -3.775  0.00  0.00    +0.166 HD
ATOM     15 BR   UNL     1       4.104  -3.188  -8.275  0.00  0.00    -0.050 Br
ENDBRANCH   2   5
BRANCH   1  17
ATOM     16  C   UNL     1      -0.019   1.526   0.010  0.00  0.00    +0.033 C 
ATOM     17  C   UNL     1       0.002  -0.004   0.002  0.00  0.00    +0.100 C 
BRANCH  17  18
ATOM     18  C   UNL     1      -1.412  -0.526   0.013  0.00  0.00    -0.025 A 
ATOM     19  C   UNL     1      -2.140  -0.568  -1.164  0.00  0.00    +0.007 A 
ATOM     20  C   UNL     1      -3.436  -1.044  -1.164  0.00  0.00    +0.028 A 
ATOM     21  C   UNL     1      -4.011  -1.482   0.019  0.00  0.00    +0.067 A 
ATOM     22  C   UNL     1      -3.276  -1.440   1.206  0.00  0.00    +0.067 A 
ATOM     23  C   UNL     1      -1.974  -0.965   1.195  0.00  0.00    +0.033 A 
ATOM     24  N   UNL     1      -4.104  -1.937   2.210  0.00  0.00    -0.306 N 
ATOM     25  H   UNL     1      -3.868  -2.030   3.146  0.00  0.00    +0.170 HD
ATOM     26  C   UNL     1      -5.288  -2.267   1.659  0.00  0.00    +0.325 A 
ATOM     27  O   UNL     1      -6.237  -2.732   2.262  0.00  0.00    -0.247 OA
ATOM     28  N   UNL     1      -5.262  -2.004   0.338  0.00  0.00    -0.306 N 
ATOM     29  H   UNL     1      -5.991  -2.152  -0.284  0.00  0.00    +0.170 HD
ENDBRANCH  17  18
ENDBRANCH   1  17
TORSDOF 3
