REMARK  Name = ZINC01380905
REMARK  7 active torsions:
REMARK  status: ('A' for Active; 'I' for Inactive)
REMARK    1  A    between atoms: C_4  and  C_7
REMARK    2  A    between atoms: C_7  and  N_8
REMARK    3  A    between atoms: C_9  and  C_11
REMARK    4  A    between atoms: C_19  and  C_32
REMARK    5  A    between atoms: N_25  and  C_26
REMARK    6  A    between atoms: C_26  and  C_27
REMARK    7  A    between atoms: N_34  and  C_35
REMARK                            x       y       z     vdW  Elec       q    Type
REMARK                         _______ _______ _______ _____ _____    ______ ____
ROOT
ATOM      1  C   UNL     1       2.014   5.558  -2.139  0.00  0.00    +0.199 C 
ATOM      2  C   UNL     1       2.974   5.779  -3.267  0.00  0.00    +0.127 C 
ATOM      3  C   UNL     1       2.607   6.344  -4.592  0.00  0.00    +0.009 C 
ATOM      4  C   UNL     1       3.789   6.592  -5.170  0.00  0.00    +0.004 C 
ATOM      5  C   UNL     1       4.878   6.207  -4.163  0.00  0.00    +0.155 C 
ATOM      6  O   UNL     1       4.182   6.497  -2.897  0.00  0.00    -0.358 OA
ATOM      7  C   UNL     1       4.909   4.645  -4.101  0.00  0.00    +0.123 C 
ATOM      8  C   UNL     1       3.522   4.326  -3.515  0.00  0.00    +0.128 C 
ATOM      9  C   UNL     1       3.541   3.786  -2.113  0.00  0.00    +0.224 C 
ATOM     10  O   UNL     1       4.264   2.900  -1.710  0.00  0.00    -0.275 OA
ATOM     11  N   UNL     1       2.617   4.445  -1.367  0.00  0.00    -0.282 N 
ENDROOT
BRANCH   1  13
ATOM     12  N   UNL     1      -0.213   6.111  -3.061  0.00  0.00    -0.310 N 
ATOM     13  C   UNL     1       0.659   5.163  -2.666  0.00  0.00    +0.237 C 
ATOM     14  O   UNL     1       0.352   3.991  -2.733  0.00  0.00    -0.274 OA
ATOM     15  H   UNL     1       0.032   7.048  -3.007  0.00  0.00    +0.149 HD
BRANCH  12  16
ATOM     16  C   UNL     1      -1.531   5.727  -3.573  0.00  0.00    +0.139 C 
BRANCH  16  20
ATOM     17  C   UNL     1      -3.730   9.235  -4.623  0.00  0.00    +0.000 A 
ATOM     18  C   UNL     1      -2.928   8.615  -5.563  0.00  0.00    +0.000 A 
ATOM     19  C   UNL     1      -2.216   7.480  -5.223  0.00  0.00    +0.005 A 
ATOM     20  C   UNL     1      -2.307   6.965  -3.943  0.00  0.00    -0.030 A 
ATOM     21  C   UNL     1      -3.113   7.582  -3.005  0.00  0.00    +0.005 A 
ATOM     22  C   UNL     1      -3.821   8.720  -3.344  0.00  0.00    +0.000 A 
ENDBRANCH  16  20
ENDBRANCH  12  16
ENDBRANCH   1  13
BRANCH   7  23
ATOM     23  C   UNL     1       5.061   4.054  -5.479  0.00  0.00    +0.224 C 
ATOM     24  O   UNL     1       4.196   3.333  -5.929  0.00  0.00    -0.275 OA
ATOM     25  N   UNL     1       6.160   4.327  -6.212  0.00  0.00    -0.283 N 
ATOM     26  H   UNL     1       6.813   4.966  -5.886  0.00  0.00    +0.155 HD
BRANCH  25  27
ATOM     27  C   UNL     1       6.357   3.688  -7.442  0.00  0.00    +0.069 A 
ATOM     28  C   UNL     1       5.766   2.457  -7.689  0.00  0.00    +0.026 A 
ATOM     29  C   UNL     1       5.958   1.831  -8.906  0.00  0.00    +0.002 A 
ATOM     30  C   UNL     1       6.747   2.425  -9.874  0.00  0.00    +0.003 A 
ATOM     31  C   UNL     1       7.343   3.649  -9.631  0.00  0.00    +0.040 A 
ATOM     32  C   UNL     1       7.150   4.283  -8.417  0.00  0.00    +0.144 A 
ATOM     33  F   UNL     1       7.732   5.479  -8.179  0.00  0.00    -0.204 F 
ENDBRANCH  25  27
ENDBRANCH   7  23
BRANCH  11  34
ATOM     34  C   UNL     1       2.268   4.106   0.014  0.00  0.00    +0.151 C 
BRANCH  34  35
ATOM     35  C   UNL     1       1.134   3.114   0.017  0.00  0.00    +0.007 A 
ATOM     36  C   UNL     1       1.185   1.760  -0.001  0.00  0.00    +0.013 A 
ATOM     37  C   UNL     1       0.002   1.044   0.006  0.00  0.00    +0.008 A 
ATOM     38  C   UNL     1      -1.174   1.719   0.024  0.00  0.00    +0.045 A 
ATOM     39  S   UNL     1      -0.625   3.417   0.044  0.00  0.00    -0.100 S 
ENDBRANCH  34  35
ENDBRANCH  11  34
TORSDOF 7
