REMARK  Name = ZINC15070972
REMARK  6 active torsions:
REMARK  status: ('A' for Active; 'I' for Inactive)
REMARK    1  A    between atoms: C_1  and  C_2
REMARK    2  A    between atoms: C_10  and  C_11
REMARK    3  A    between atoms: N_13  and  C_14
REMARK    4  A    between atoms: C_14  and  C_15
REMARK    5  A    between atoms: C_15  and  N_67
REMARK    6  A    between atoms: N_26  and  C_27
REMARK                            x       y       z     vdW  Elec       q    Type
REMARK                         _______ _______ _______ _____ _____    ______ ____
ROOT
ATOM      1  C   UNL     1      -0.403   4.292   2.861  0.00  0.00    +0.251 C 
ATOM      2  O   UNL     1      -0.872   3.737   3.837  0.00  0.00    -0.270 OA
ATOM      3  N   UNL     1      -0.159   3.587   1.738  0.00  0.00    -0.312 N 
ATOM      4  H   UNL     1       0.215   4.029   0.960  0.00  0.00    +0.149 HD
ENDROOT
BRANCH   1  14
ATOM      5  C   UNL     1      -0.863   6.120   5.240  0.00  0.00    +0.046 C 
ATOM      6  C   UNL     1      -0.284   6.601   3.935  0.00  0.00    -0.019 A 
ATOM      7  C   UNL     1       0.073   7.947   3.779  0.00  0.00    +0.051 A 
ATOM      8  C   UNL     1      -0.024   9.021   4.713  0.00  0.00    +0.131 A 
ATOM      9  N   UNL     1       0.371  10.230   4.349  0.00  0.00    -0.220 NA
ATOM     10  C   UNL     1       0.854  10.482   3.146  0.00  0.00    +0.224 A 
ATOM     11  N   UNL     1       0.969   9.532   2.237  0.00  0.00    -0.228 NA
ATOM     12  C   UNL     1       0.601   8.297   2.512  0.00  0.00    +0.114 A 
ATOM     13  S   UNL     1       0.580   6.763   1.622  0.00  0.00    -0.064 S 
ATOM     14  C   UNL     1      -0.104   5.728   2.905  0.00  0.00    +0.079 A 
ATOM     15  N   UNL     1      -0.522   8.801   5.981  0.00  0.00    -0.323 N 
ATOM     16  H   UNL     1      -0.725   7.899   6.273  0.00  0.00    +0.148 HD
BRANCH  15  17
ATOM     17  C   UNL     1      -0.746   9.931   6.886  0.00  0.00    +0.099 C 
ATOM     18  C   UNL     1      -0.691   9.465   8.358  0.00  0.00    +0.052 C 
ATOM     19  C   UNL     1      -2.098   9.789   8.908  0.00  0.00    +0.162 C 
ATOM     20  O   UNL     1      -2.952   9.815   7.743  0.00  0.00    -0.378 OA
ATOM     21  C   UNL     1      -2.180  10.482   6.720  0.00  0.00    +0.182 C 
ENDBRANCH  15  17
ENDBRANCH   1  14
BRANCH   3  22
ATOM     22  C   UNL     1      -0.458   2.154   1.693  0.00  0.00    +0.092 C 
BRANCH  22  23
ATOM     23  C   UNL     1       0.011   1.577   0.356  0.00  0.00    -0.050 C 
ATOM     24  C   UNL     1      -0.823   2.177  -0.778  0.00  0.00    -0.010 C 
ATOM     25  C   UNL     1      -2.299   1.834  -0.563  0.00  0.00    -0.001 C 
ATOM     26  C   UNL     1      -2.473   0.314  -0.552  0.00  0.00    -0.000 C 
ATOM     27  C   UNL     1      -1.639  -0.286   0.582  0.00  0.00    -0.001 C 
ATOM     28  C   UNL     1      -0.164   0.057   0.367  0.00  0.00    -0.010 C 
BRANCH  23  34
ATOM     29  C   UNL     1       1.903   1.396  -1.143  0.00  0.00    -0.078 C 
ATOM     30  C   UNL     1       3.334   1.881  -1.388  0.00  0.00    -0.019 C 
ATOM     31  C   UNL     1       4.237   1.381  -0.258  0.00  0.00    -0.004 C 
ATOM     32  C   UNL     1       3.692   1.885   1.082  0.00  0.00    -0.019 C 
ATOM     33  C   UNL     1       2.251   1.401   1.255  0.00  0.00    -0.078 C 
ATOM     34  N   UNL     1       1.429   1.936   0.149  0.00  0.00    +0.384 N 
ATOM     35  H   UNL     1       1.515   2.959   0.135  0.00  0.00    -0.081 HD
ENDBRANCH  23  34
ENDBRANCH  22  23
ENDBRANCH   3  22
TORSDOF 5
