REMARK  Name = ZINC43552709
REMARK  8 active torsions:
REMARK  status: ('A' for Active; 'I' for Inactive)
REMARK    1  A    between atoms: C_1  and  C_2
REMARK    2  A    between atoms: C_2  and  C_4
REMARK    3  A    between atoms: C_2  and  N_14
REMARK    4  A    between atoms: C_7  and  S_10
REMARK    5  A    between atoms: S_10  and  N_13
REMARK    6  A    between atoms: N_17  and  C_18
REMARK    7  A    between atoms: C_23  and  S_24
REMARK    8  A    between atoms: S_24  and  C_25
REMARK                            x       y       z     vdW  Elec       q    Type
REMARK                         _______ _______ _______ _____ _____    ______ ____
ROOT
ATOM      1  N   UNL     1      -1.366  -0.527   0.010  0.00  0.00    -0.293 N 
ATOM      2  C   UNL     1      -2.049  -0.649  -1.146  0.00  0.00    +0.304 C 
ATOM      3  O   UNL     1      -1.522  -0.343  -2.198  0.00  0.00    -0.252 OA
ATOM      4  N   UNL     1      -3.315  -1.109  -1.135  0.00  0.00    -0.268 N 
ATOM      5  H   UNL     1      -1.786  -0.771   0.849  0.00  0.00    +0.151 HD
ATOM      6  H   UNL     1      -3.713  -1.414  -0.305  0.00  0.00    +0.156 HD
ENDROOT
BRANCH   4   7
ATOM      7  C   UNL     1      -4.057  -1.148  -2.324  0.00  0.00    +0.048 A 
ATOM      8  C   UNL     1      -3.428  -1.425  -3.528  0.00  0.00    +0.024 A 
ATOM      9  C   UNL     1      -4.161  -1.462  -4.699  0.00  0.00    +0.002 A 
ATOM     10  C   UNL     1      -5.523  -1.223  -4.675  0.00  0.00    +0.001 A 
ATOM     11  C   UNL     1      -6.160  -0.946  -3.480  0.00  0.00    +0.017 A 
ATOM     12  C   UNL     1      -5.432  -0.913  -2.298  0.00  0.00    +0.034 A 
BRANCH  12  13
ATOM     13  S   UNL     1      -6.242  -0.568  -0.772  0.00  0.00    -0.054 S 
BRANCH  13  14
ATOM     14  C   UNL     1      -7.980  -0.340  -1.238  0.00  0.00    +0.404 C 
ATOM     15  F   UNL     1      -8.084   0.723  -2.142  0.00  0.00    -0.197 F 
ATOM     16  F   UNL     1      -8.459  -1.510  -1.837  0.00  0.00    -0.197 F 
ENDBRANCH  13  14
ENDBRANCH  12  13
ENDBRANCH   4   7
BRANCH   1  18
ATOM     17  C   UNL     1      -0.003   1.503   0.015  0.00  0.00    +0.033 C 
ATOM     18  C   UNL     1       0.011  -0.026  -0.002  0.00  0.00    +0.102 C 
BRANCH  18  19
ATOM     19  C   UNL     1       0.741  -0.536   1.214  0.00  0.00    -0.027 A 
ATOM     20  C   UNL     1       0.094  -0.595   2.434  0.00  0.00    +0.007 A 
ATOM     21  C   UNL     1       0.764  -1.062   3.550  0.00  0.00    +0.029 A 
ATOM     22  C   UNL     1       2.080  -1.471   3.445  0.00  0.00    +0.105 A 
ATOM     23  C   UNL     1       2.727  -1.413   2.224  0.00  0.00    +0.029 A 
ATOM     24  C   UNL     1       2.055  -0.950   1.108  0.00  0.00    +0.007 A 
BRANCH  22  25
ATOM     25  S   UNL     1       2.934  -2.066   4.867  0.00  0.00    +0.056 S 
ATOM     26  O   UNL     1       4.320  -1.874   4.618  0.00  0.00    -0.153 OA
ATOM     27  O   UNL     1       2.278  -1.508   5.997  0.00  0.00    -0.153 OA
BRANCH  25  28
ATOM     28  N   UNL     1       2.688  -3.702   4.936  0.00  0.00    -0.204 NA
ATOM     29  H   UNL     1       3.363  -4.278   5.330  0.00  0.00    +0.144 HD
ATOM     30  H   UNL     1       1.870  -4.085   4.585  0.00  0.00    +0.144 HD
ENDBRANCH  25  28
ENDBRANCH  22  25
ENDBRANCH  18  19
ENDBRANCH   1  18
TORSDOF 7
