REMARK  Name = ZINC22893335
REMARK  6 active torsions:
REMARK  status: ('A' for Active; 'I' for Inactive)
REMARK    1  A    between atoms: C_4  and  C_7
REMARK    2  A    between atoms: N_9  and  C_10
REMARK    3  A    between atoms: C_13  and  C_16
REMARK    4  A    between atoms: N_18  and  C_19
REMARK    5  A    between atoms: C_23  and  S_25
REMARK    6  A    between atoms: S_25  and  N_28
REMARK                            x       y       z     vdW  Elec       q    Type
REMARK                         _______ _______ _______ _____ _____    ______ ____
ROOT
ATOM      1  C   UNL     1       3.836  -4.026  -3.990  0.00  0.00    +0.248 C 
ATOM      2  O   UNL     1       4.606  -3.280  -4.563  0.00  0.00    -0.270 OA
ATOM      3  N   UNL     1       3.503  -3.792  -2.705  0.00  0.00    -0.281 N 
ATOM      4  H   UNL     1       2.874  -4.511  -2.160  0.00  0.00    +0.155 HD
ENDROOT
BRANCH   1   8
ATOM      5  C   UNL     1       2.197  -7.368  -6.033  0.00  0.00    +0.034 A 
ATOM      6  C   UNL     1       3.078  -6.515  -6.692  0.00  0.00    +0.024 A 
ATOM      7  C   UNL     1       3.610  -5.431  -6.032  0.00  0.00    +0.015 A 
ATOM      8  C   UNL     1       3.266  -5.187  -4.700  0.00  0.00    +0.037 A 
ATOM      9  C   UNL     1       2.385  -6.049  -4.040  0.00  0.00    +0.015 A 
ATOM     10  C   UNL     1       1.852  -7.129  -4.707  0.00  0.00    +0.024 A 
BRANCH   5  13
ATOM     11  C   UNL     1       2.408  -9.142  -7.598  0.00  0.00    +0.248 C 
ATOM     12  O   UNL     1       3.522  -8.746  -7.881  0.00  0.00    -0.270 OA
ATOM     13  N   UNL     1       1.659  -8.465  -6.704  0.00  0.00    -0.282 N 
ATOM     14  H   UNL     1       0.624  -8.779  -6.504  0.00  0.00    +0.155 HD
BRANCH  11  18
ATOM     15  C   UNL     1       0.874 -12.656  -9.424  0.00  0.00    +0.000 A 
ATOM     16  C   UNL     1       2.142 -12.209  -9.748  0.00  0.00    +0.001 A 
ATOM     17  C   UNL     1       2.646 -11.068  -9.159  0.00  0.00    +0.013 A 
ATOM     18  C   UNL     1       1.874 -10.365  -8.233  0.00  0.00    +0.037 A 
ATOM     19  C   UNL     1       0.597 -10.825  -7.906  0.00  0.00    +0.013 A 
ATOM     20  C   UNL     1       0.103 -11.964  -8.507  0.00  0.00    +0.001 A 
ENDBRANCH  11  18
ENDBRANCH   5  13
ENDBRANCH   1   8
BRANCH   3  21
ATOM     21  C   UNL     1       3.957  -2.635  -2.064  0.00  0.00    +0.036 A 
ATOM     22  C   UNL     1       4.115  -1.457  -2.784  0.00  0.00    +0.023 A 
ATOM     23  C   UNL     1       4.564  -0.317  -2.148  0.00  0.00    +0.004 A 
ATOM     24  C   UNL     1       4.856  -0.346  -0.796  0.00  0.00    +0.028 A 
ATOM     25  C   UNL     1       4.700  -1.516  -0.077  0.00  0.00    +0.107 A 
ATOM     26  C   UNL     1       4.256  -2.662  -0.708  0.00  0.00    +0.051 A 
BRANCH  25  27
ATOM     27  S   UNL     1       5.074  -1.548   1.644  0.00  0.00    +0.061 S 
ATOM     28  O   UNL     1       5.995  -0.492   1.879  0.00  0.00    -0.153 OA
ATOM     29  O   UNL     1       5.365  -2.900   1.972  0.00  0.00    -0.153 OA
BRANCH  27  30
ATOM     30  N   UNL     1       3.685  -1.154   2.455  0.00  0.00    -0.177 NA
ATOM     31  C   UNL     1       2.737  -2.198   2.868  0.00  0.00    +0.109 C 
ATOM     32  C   UNL     1       1.346  -1.840   2.335  0.00  0.00    +0.017 C 
ATOM     33  C   UNL     1       0.972  -0.431   2.801  0.00  0.00    +0.003 C 
ATOM     34  C   UNL     1       1.978   0.577   2.242  0.00  0.00    +0.017 C 
ATOM     35  C   UNL     1       3.376   0.247   2.774  0.00  0.00    +0.109 C 
ENDBRANCH  27  30
ENDBRANCH  25  27
ENDBRANCH   3  21
TORSDOF 6
