REMARK  Name = ZINC56736381
REMARK  5 active torsions:
REMARK  status: ('A' for Active; 'I' for Inactive)
REMARK    1  A    between atoms: C_1  and  C_2
REMARK    2  A    between atoms: C_2  and  C_3
REMARK    3  A    between atoms: C_2  and  C_4
REMARK    4  A    between atoms: C_2  and  C_5
REMARK    5  A    between atoms: C_17  and  C_20
REMARK                            x       y       z     vdW  Elec       q    Type
REMARK                         _______ _______ _______ _____ _____    ______ ____
ROOT
ATOM      1  C   UNL     1       0.711  -0.494  -1.234  0.00  0.00    +0.109 A 
ATOM      2  N   UNL     1       1.945  -0.281  -1.643  0.00  0.00    -0.144 NA
ATOM      3  N   UNL     1       2.329  -0.794  -2.732  0.00  0.00    -0.126 NA
ATOM      4  C   UNL     1       1.530  -1.538  -3.472  0.00  0.00    +0.189 A 
ATOM      5  S   UNL     1       0.110  -1.527  -2.564  0.00  0.00    -0.035 S 
ATOM      6  N   UNL     1       1.792  -2.169  -4.683  0.00  0.00    -0.247 N 
ATOM      7  C   UNL     1       3.010  -2.059  -5.252  0.00  0.00    +0.308 C 
ATOM      8  O   UNL     1       3.850  -1.334  -4.753  0.00  0.00    -0.252 OA
ATOM      9  N   UNL     1       3.296  -2.751  -6.372  0.00  0.00    -0.285 N 
ATOM     10  C   UNL     1       2.257  -3.536  -7.053  0.00  0.00    +0.109 C 
ATOM     11  C   UNL     1       2.202  -3.110  -8.523  0.00  0.00    +0.020 C 
ATOM     12  C   UNL     1       3.596  -3.243  -9.141  0.00  0.00    +0.016 C 
ATOM     13  C   UNL     1       4.571  -2.319  -8.407  0.00  0.00    +0.093 C 
ATOM     14  C   UNL     1       4.651  -2.732  -6.939  0.00  0.00    +0.122 C 
ATOM     15  H   UNL     1       1.099  -2.689  -5.119  0.00  0.00    +0.158 HD
ENDROOT
BRANCH  13  16
ATOM     16  C   UNL     1       5.936  -2.426  -9.037  0.00  0.00    +0.223 C 
ATOM     17  O   UNL     1       6.112  -3.167  -9.981  0.00  0.00    -0.275 OA
ATOM     18  N   UNL     1       6.961  -1.698  -8.552  0.00  0.00    -0.264 N 
ATOM     19  C   UNL     1       8.220  -1.796  -9.133  0.00  0.00    +0.164 A 
ATOM     20  N   UNL     1       8.592  -2.535 -10.156  0.00  0.00    -0.233 NA
ATOM     21  C   UNL     1       9.838  -2.517 -10.593  0.00  0.00    +0.120 A 
ATOM     22  C   UNL     1      10.707  -1.706  -9.941  0.00  0.00    +0.068 A 
ATOM     23  S   UNL     1       9.635  -0.993  -8.704  0.00  0.00    -0.061 S 
ATOM     24  H   UNL     1       6.820  -1.105  -7.797  0.00  0.00    +0.157 HD
ENDBRANCH  13  16
BRANCH   1  26
ATOM     25  C   UNL     1      -0.020   1.520   0.014  0.00  0.00    +0.018 C 
ATOM     26  C   UNL     1       0.006  -0.010   0.007  0.00  0.00    +0.013 C 
ATOM     27  C   UNL     1       0.750  -0.513   1.245  0.00  0.00    +0.018 C 
ATOM     28  C   UNL     1      -1.427  -0.544   0.021  0.00  0.00    +0.018 C 
ENDBRANCH   1  26
TORSDOF 2
