REMARK  Name = ZINC09442708
REMARK  7 active torsions:
REMARK  status: ('A' for Active; 'I' for Inactive)
REMARK    1  A    between atoms: C_1  and  O_2
REMARK    2  A    between atoms: O_2  and  C_3
REMARK    3  A    between atoms: C_6  and  C_9
REMARK    4  A    between atoms: C_12  and  C_25
REMARK    5  A    between atoms: C_15  and  C_17
REMARK    6  A    between atoms: C_17  and  S_18
REMARK    7  A    between atoms: S_18  and  C_19
REMARK                            x       y       z     vdW  Elec       q    Type
REMARK                         _______ _______ _______ _____ _____    ______ ____
ROOT
ATOM      1  C   UNL     1       4.146  -0.682  -0.040  0.00  0.00    +0.137 C 
ATOM      2  C   UNL     1       2.621  -0.452  -0.024  0.00  0.00    +0.087 C 
ATOM      3  C   UNL     1       2.480   1.053  -0.015  0.00  0.00    +0.069 C 
ATOM      4  N   UNL     1       3.649   1.595  -0.029  0.00  0.00    -0.181 NA
ATOM      5  N   UNL     1       4.700   0.681  -0.038  0.00  0.00    -0.184 N 
ATOM      6  C   UNL     1       6.011   0.994  -0.049  0.00  0.00    +0.246 C 
ATOM      7  O   UNL     1       6.845   0.113  -0.062  0.00  0.00    -0.273 OA
ENDROOT
BRANCH   3   8
ATOM      8  C   UNL     1       1.202   1.787   0.000  0.00  0.00    -0.002 A 
ATOM      9  C   UNL     1      -0.013   1.076   0.008  0.00  0.00    +0.010 A 
ATOM     10  C   UNL     1      -1.202   1.730   0.017  0.00  0.00    +0.009 A 
ATOM     11  C   UNL     1      -1.232   3.136   0.030  0.00  0.00    -0.018 A 
ATOM     12  C   UNL     1      -2.451   3.834   0.045  0.00  0.00    +0.008 A 
ATOM     13  C   UNL     1      -2.449   5.196   0.053  0.00  0.00    +0.001 A 
ATOM     14  C   UNL     1      -1.254   5.912   0.046  0.00  0.00    +0.001 A 
ATOM     15  C   UNL     1      -0.053   5.271   0.031  0.00  0.00    +0.008 A 
ATOM     16  C   UNL     1      -0.015   3.865   0.022  0.00  0.00    -0.017 A 
ATOM     17  C   UNL     1       1.205   3.173   0.008  0.00  0.00    +0.018 A 
ENDBRANCH   3   8
BRANCH   1  21
ATOM     18  C   UNL     1       5.315  -2.777  -3.576  0.00  0.00    +0.120 A 
ATOM     19  C   UNL     1       5.174  -3.462  -2.377  0.00  0.00    +0.046 A 
ATOM     20  C   UNL     1       4.796  -2.782  -1.236  0.00  0.00    +0.009 A 
ATOM     21  C   UNL     1       4.558  -1.421  -1.287  0.00  0.00    -0.024 A 
ATOM     22  C   UNL     1       4.692  -0.738  -2.481  0.00  0.00    +0.009 A 
ATOM     23  C   UNL     1       5.076  -1.412  -3.625  0.00  0.00    +0.046 A 
BRANCH  18  25
ATOM     24  C   UNL     1       5.813  -2.675  -5.899  0.00  0.00    +0.277 C 
ATOM     25  O   UNL     1       5.687  -3.443  -4.701  0.00  0.00    -0.495 OA
ENDBRANCH  18  25
ENDBRANCH   1  21
BRANCH   6  26
ATOM     26  C   UNL     1       6.441   2.438  -0.046  0.00  0.00    +0.174 C 
BRANCH  26  27
ATOM     27  S   UNL     1       8.253   2.530  -0.063  0.00  0.00    -0.088 S 
BRANCH  27  28
ATOM     28  C   UNL     1       8.592   4.259  -0.057  0.00  0.00    +0.160 A 
ATOM     29  N   UNL     1       7.752   5.276  -0.043  0.00  0.00    -0.133 NA
ATOM     30  N   UNL     1       8.236   6.563  -0.041  0.00  0.00    -0.125 NA
ATOM     31  C   UNL     1       9.537   6.775  -0.053  0.00  0.00    +0.180 A 
ATOM     32  S   UNL     1      10.166   5.104  -0.061  0.00  0.00    -0.025 S 
ATOM     33  N   UNL     1      10.233   7.978  -0.053  0.00  0.00    -0.336 N 
ATOM     34  H   UNL     1       9.749   8.819  -0.043  0.00  0.00    +0.144 HD
ATOM     35  H   UNL     1      11.203   7.977  -0.063  0.00  0.00    +0.144 HD
ENDBRANCH  27  28
ENDBRANCH  26  27
ENDBRANCH   6  26
TORSDOF 6
