REMARK  Name = ZINC20720968
REMARK  5 active torsions:
REMARK  status: ('A' for Active; 'I' for Inactive)
REMARK    1  A    between atoms: C_1  and  O_2
REMARK    2  A    between atoms: O_2  and  C_3
REMARK    3  A    between atoms: C_3  and  C_5
REMARK    4  A    between atoms: C_10  and  N_11
REMARK    5  A    between atoms: C_23  and  C_25
REMARK                            x       y       z     vdW  Elec       q    Type
REMARK                         _______ _______ _______ _____ _____    ______ ____
ROOT
ATOM      1  N   UNL     1      -3.630  -1.785   0.166  0.00  0.00    -0.269 N 
ATOM      2  C   UNL     1      -4.796  -2.421   0.396  0.00  0.00    +0.307 C 
ATOM      3  O   UNL     1      -4.806  -3.618   0.606  0.00  0.00    -0.252 OA
ATOM      4  N   UNL     1      -5.953  -1.728   0.392  0.00  0.00    -0.272 N 
ATOM      5  C   UNL     1      -5.954  -0.265   0.249  0.00  0.00    +0.116 C 
ATOM      6  C   UNL     1      -6.654   0.111  -1.064  0.00  0.00    +0.074 C 
ATOM      7  C   UNL     1      -7.918  -0.698  -1.188  0.00  0.00    +0.040 A 
ATOM      8  C   UNL     1      -8.187  -1.822  -0.489  0.00  0.00    +0.062 A 
ATOM      9  N   UNL     1      -9.389  -2.265  -0.862  0.00  0.00    -0.348 N 
ATOM     10  C   UNL     1      -9.882  -1.458  -1.765  0.00  0.00    +0.171 A 
ATOM     11  N   UNL     1      -8.991  -0.466  -1.994  0.00  0.00    -0.349 N 
ATOM     12  H   UNL     1      -9.097   0.272  -2.615  0.00  0.00    +0.166 HD
ATOM     13  C   UNL     1      -7.247  -2.420   0.525  0.00  0.00    +0.156 C 
ATOM     14  H   UNL     1      -3.614  -0.821   0.067  0.00  0.00    +0.156 HD
ATOM     15  H   UNL     1      -9.828  -3.059  -0.518  0.00  0.00    +0.167 HD
ENDROOT
BRANCH  13  16
ATOM     16  C   UNL     1      -7.799  -2.214   1.912  0.00  0.00    -0.021 A 
ATOM     17  C   UNL     1      -8.111  -0.941   2.350  0.00  0.00    +0.007 A 
ATOM     18  C   UNL     1      -8.617  -0.752   3.622  0.00  0.00    +0.015 A 
ATOM     19  C   UNL     1      -8.811  -1.837   4.457  0.00  0.00    +0.018 A 
ATOM     20  C   UNL     1      -8.499  -3.111   4.019  0.00  0.00    +0.015 A 
ATOM     21  C   UNL     1      -7.998  -3.300   2.745  0.00  0.00    +0.007 A 
ATOM     22 BR   UNL     1      -9.503  -1.579   6.198  0.00  0.00    -0.050 Br
ENDBRANCH  13  16
BRANCH   1  28
ATOM     23  C   UNL     1      -1.426  -2.092  -0.794  0.00  0.00    +0.080 A 
ATOM     24  C   UNL     1      -0.242  -2.830  -0.875  0.00  0.00    +0.017 A 
ATOM     25  C   UNL     1      -0.087  -3.967  -0.112  0.00  0.00    +0.001 A 
ATOM     26  C   UNL     1      -1.100  -4.384   0.737  0.00  0.00    +0.002 A 
ATOM     27  C   UNL     1      -2.275  -3.666   0.828  0.00  0.00    +0.024 A 
ATOM     28  C   UNL     1      -2.447  -2.514   0.071  0.00  0.00    +0.049 A 
BRANCH  23  29
ATOM     29  C   UNL     1      -1.599  -0.876  -1.607  0.00  0.00    +0.341 C 
ATOM     30  O   UNL     1      -2.666  -0.293  -1.609  0.00  0.00    -0.245 OA
BRANCH  29  32
ATOM     31  C   UNL     1      -0.814   0.774  -3.112  0.00  0.00    +0.280 C 
ATOM     32  O   UNL     1      -0.575  -0.410  -2.349  0.00  0.00    -0.464 OA
ENDBRANCH  29  32
ENDBRANCH  23  29
ENDBRANCH   1  28
TORSDOF 4
