REMARK  Name = ZINC34684007
REMARK  9 active torsions:
REMARK  status: ('A' for Active; 'I' for Inactive)
REMARK    1  A    between atoms: C_1  and  C_2
REMARK    2  A    between atoms: C_5  and  S_8
REMARK    3  A    between atoms: S_8  and  N_11
REMARK    4  A    between atoms: N_11  and  C_12
REMARK    5  A    between atoms: N_11  and  C_20
REMARK    6  A    between atoms: C_15  and  C_19
REMARK    7  A    between atoms: N_23  and  C_26
REMARK    8  A    between atoms: C_26  and  C_27
REMARK    9  A    between atoms: C_32  and  O_33
REMARK                            x       y       z     vdW  Elec       q    Type
REMARK                         _______ _______ _______ _____ _____    ______ ____
ROOT
ATOM      1  N   UNL     1       1.651  -4.999  -0.034  0.00  0.00    -0.200 N 
ENDROOT
BRANCH   1   2
ATOM      2  C   UNL     1       2.303  -5.121   1.195  0.00  0.00    +0.054 A 
ATOM      3  C   UNL     1       3.454  -4.386   1.448  0.00  0.00    +0.025 A 
ATOM      4  C   UNL     1       4.098  -4.507   2.664  0.00  0.00    +0.008 A 
ATOM      5  C   UNL     1       3.598  -5.361   3.630  0.00  0.00    -0.015 A 
ATOM      6  C   UNL     1       2.451  -6.096   3.382  0.00  0.00    +0.128 A 
ATOM      7  C   UNL     1       1.799  -5.974   2.168  0.00  0.00    +0.063 A 
ATOM      8  F   UNL     1       1.965  -6.929   4.329  0.00  0.00    -0.205 F 
ATOM      9  C   UNL     1       4.303  -5.491   4.955  0.00  0.00    +0.047 C 
ENDBRANCH   1   2
BRANCH   1  10
ATOM     10  C   UNL     1       1.998  -5.896  -1.140  0.00  0.00    +0.095 C 
ATOM     11  C   UNL     1       3.493  -5.771  -1.450  0.00  0.00    +0.006 C 
ATOM     12  C   UNL     1       3.864  -6.766  -2.551  0.00  0.00    -0.077 C 
ATOM     13  N   UNL     1       3.569  -8.132  -2.101  0.00  0.00    +0.383 N 
ATOM     14  C   UNL     1       2.127  -8.279  -1.871  0.00  0.00    -0.077 C 
ATOM     15  C   UNL     1       1.688  -7.342  -0.744  0.00  0.00    +0.006 C 
ATOM     16  H   UNL     1       4.066  -8.318  -1.243  0.00  0.00    -0.081 HD
BRANCH  13  17
ATOM     17  C   UNL     1       3.999  -9.089  -3.130  0.00  0.00    -0.039 C 
BRANCH  17  18
ATOM     18  C   UNL     1       3.809 -10.494  -2.619  0.00  0.00    -0.022 A 
ATOM     19  C   UNL     1       4.886 -11.198  -2.116  0.00  0.00    +0.005 A 
ATOM     20  C   UNL     1       4.713 -12.487  -1.648  0.00  0.00    +0.000 A 
ATOM     21  C   UNL     1       3.462 -13.075  -1.682  0.00  0.00    +0.004 A 
ATOM     22  C   UNL     1       2.382 -12.376  -2.184  0.00  0.00    +0.045 A 
ATOM     23  C   UNL     1       2.552 -11.080  -2.650  0.00  0.00    +0.118 A 
BRANCH  23  24
ATOM     24  O   UNL     1       1.490 -10.387  -3.139  0.00  0.00    -0.507 OA
ATOM     25  H   UNL     1       1.349 -10.503  -4.089  0.00  0.00    +0.292 HD
ENDBRANCH  23  24
ENDBRANCH  17  18
ENDBRANCH  13  17
ENDBRANCH   1  10
BRANCH   1  26
ATOM     26  S   UNL     1       0.485  -3.842  -0.242  0.00  0.00    +0.075 S 
ATOM     27  O   UNL     1      -0.086  -3.606   1.038  0.00  0.00    -0.150 OA
ATOM     28  O   UNL     1      -0.293  -4.245  -1.360  0.00  0.00    -0.150 OA
BRANCH  26  33
ATOM     29  C   UNL     1       3.291   1.254  -1.841  0.00  0.00    +0.044 C 
ATOM     30  C   UNL     1       2.591  -0.018  -1.442  0.00  0.00    -0.050 A 
ATOM     31  C   UNL     1       2.170  -0.910  -2.411  0.00  0.00    +0.005 A 
ATOM     32  C   UNL     1       1.528  -2.077  -2.045  0.00  0.00    +0.029 A 
ATOM     33  C   UNL     1       1.305  -2.354  -0.709  0.00  0.00    +0.109 A 
ATOM     34  C   UNL     1       1.726  -1.463   0.261  0.00  0.00    +0.029 A 
ATOM     35  C   UNL     1       2.373  -0.298  -0.105  0.00  0.00    +0.005 A 
ENDBRANCH  26  33
ENDBRANCH   1  26
TORSDOF 7
