REMARK  Name = ZINC16610526
REMARK  14 active torsions:
REMARK  status: ('A' for Active; 'I' for Inactive)
REMARK    1  A    between atoms: C_1  and  C_2
REMARK    2  A    between atoms: C_2  and  N_3
REMARK    3  A    between atoms: C_4  and  C_36
REMARK    4  A    between atoms: C_5  and  C_29
REMARK    5  A    between atoms: C_6  and  C_11
REMARK    6  A    between atoms: C_14  and  N_17
REMARK    7  A    between atoms: N_20  and  C_21
REMARK    8  A    between atoms: C_26  and  O_27
REMARK    9  A    between atoms: O_27  and  C_28
REMARK   10  A    between atoms: C_29  and  O_31
REMARK   11  A    between atoms: O_31  and  C_32
REMARK   12  A    between atoms: C_32  and  C_33
REMARK   13  A    between atoms: C_33  and  C_34
REMARK   14  A    between atoms: C_33  and  C_35
REMARK                            x       y       z     vdW  Elec       q    Type
REMARK                         _______ _______ _______ _____ _____    ______ ____
ROOT
ATOM      1  C   UNL     1       3.700  -4.901  -0.169  0.00  0.00    -0.022 A 
ATOM      2  C   UNL     1       4.771  -4.421   0.561  0.00  0.00    +0.007 A 
ATOM      3  C   UNL     1       4.979  -3.060   0.672  0.00  0.00    +0.024 A 
ATOM      4  C   UNL     1       4.110  -2.174   0.050  0.00  0.00    +0.035 A 
ATOM      5  C   UNL     1       3.032  -2.659  -0.678  0.00  0.00    +0.024 A 
ATOM      6  C   UNL     1       2.833  -4.021  -0.791  0.00  0.00    +0.007 A 
ENDROOT
BRANCH   1  10
ATOM      7  N   UNL     1       1.912  -7.652  -2.186  0.00  0.00    -0.286 N 
ATOM      8  C   UNL     1       3.227  -7.451  -2.487  0.00  0.00    +0.021 C 
ATOM      9  C   UNL     1       4.057  -6.841  -1.613  0.00  0.00    +0.078 C 
ATOM     10  C   UNL     1       3.477  -6.387  -0.289  0.00  0.00    +0.141 C 
ATOM     11  N   UNL     1       2.046  -6.651  -0.062  0.00  0.00    -0.315 N 
ATOM     12  C   UNL     1       1.347  -7.272  -1.033  0.00  0.00    +0.138 C 
ATOM     13  S   UNL     1      -0.317  -7.585  -0.783  0.00  0.00    -0.018 S 
ATOM     14  C   UNL     1       3.764  -7.919  -3.815  0.00  0.00    +0.061 C 
ATOM     15  H   UNL     1       1.617  -6.383   0.765  0.00  0.00    +0.149 HD
BRANCH   7  17
ATOM     16  C   UNL     1       1.230  -9.837  -3.048  0.00  0.00    +0.025 C 
ATOM     17  C   UNL     1       1.069  -8.321  -3.180  0.00  0.00    +0.109 C 
ENDBRANCH   7  17
BRANCH   9  18
ATOM     18  C   UNL     1       5.420  -6.633  -1.925  0.00  0.00    +0.339 C 
ATOM     19  O   UNL     1       6.173  -6.176  -1.085  0.00  0.00    -0.245 OA
BRANCH  18  20
ATOM     20  O   UNL     1       5.887  -6.940  -3.153  0.00  0.00    -0.461 OA
BRANCH  20  21
ATOM     21  C   UNL     1       7.293  -6.800  -3.367  0.00  0.00    +0.235 C 
BRANCH  21  22
ATOM     22  C   UNL     1       7.614  -7.071  -4.838  0.00  0.00    +0.020 C 
ATOM     23  C   UNL     1       9.095  -6.789  -5.097  0.00  0.00    +0.010 C 
ATOM     24  C   UNL     1       7.309  -8.534  -5.166  0.00  0.00    +0.010 C 
ENDBRANCH  21  22
ENDBRANCH  20  21
ENDBRANCH  18  20
ENDBRANCH   9  18
ENDBRANCH   1  10
BRANCH   4  25
ATOM     25  N   UNL     1       4.317  -0.794   0.161  0.00  0.00    -0.269 N 
ATOM     26  C   UNL     1       5.571  -0.305   0.239  0.00  0.00    +0.308 C 
ATOM     27  O   UNL     1       6.523  -1.051   0.119  0.00  0.00    -0.252 OA
ATOM     28  N   UNL     1       5.768   1.011   0.451  0.00  0.00    -0.266 N 
ATOM     29  H   UNL     1       3.559  -0.190   0.182  0.00  0.00    +0.156 HD
ATOM     30  H   UNL     1       5.013   1.593   0.628  0.00  0.00    +0.156 HD
BRANCH  28  31
ATOM     31  C   UNL     1       7.066   1.540   0.415  0.00  0.00    +0.077 A 
ATOM     32  C   UNL     1       8.074   0.863  -0.256  0.00  0.00    +0.027 A 
ATOM     33  C   UNL     1       9.354   1.383  -0.286  0.00  0.00    +0.002 A 
ATOM     34  C   UNL     1       9.631   2.583   0.343  0.00  0.00    +0.004 A 
ATOM     35  C   UNL     1       8.631   3.263   1.014  0.00  0.00    +0.047 A 
ATOM     36  C   UNL     1       7.347   2.746   1.053  0.00  0.00    +0.141 A 
BRANCH  36  37
ATOM     37  O   UNL     1       6.362   3.414   1.712  0.00  0.00    -0.493 OA
ATOM     38  C   UNL     1       6.723   4.644   2.342  0.00  0.00    +0.277 C 
ENDBRANCH  36  37
ENDBRANCH  28  31
ENDBRANCH   4  25
TORSDOF 9
