REMARK  Name = ZINC03669589
REMARK  8 active torsions:
REMARK  status: ('A' for Active; 'I' for Inactive)
REMARK    1  A    between atoms: C_1  and  C_2
REMARK    2  A    between atoms: C_2  and  C_39
REMARK    3  A    between atoms: C_6  and  C_26
REMARK    4  A    between atoms: C_8  and  C_24
REMARK    5  A    between atoms: C_30  and  O_34
REMARK    6  A    between atoms: C_31  and  O_32
REMARK    7  A    between atoms: O_32  and  C_33
REMARK    8  A    between atoms: O_34  and  C_35
REMARK                            x       y       z     vdW  Elec       q    Type
REMARK                         _______ _______ _______ _____ _____    ______ ____
ROOT
ATOM      1  C   UNL     1       2.005  -5.368  -6.178  0.00  0.00    +0.011 C 
ATOM      2  C   UNL     1       1.399  -4.126  -6.836  0.00  0.00    -0.023 C 
ATOM      3  C   UNL     1       0.895  -3.168  -5.756  0.00  0.00    +0.058 C 
ATOM      4  C   UNL     1      -0.180  -3.846  -4.937  0.00  0.00    +0.026 C 
ATOM      5  C   UNL     1      -0.982  -4.769  -5.504  0.00  0.00    +0.025 C 
ATOM      6  C   UNL     1      -2.058  -5.419  -4.658  0.00  0.00    +0.101 C 
ATOM      7  C   UNL     1      -2.154  -4.973  -3.216  0.00  0.00    +0.082 C 
ATOM      8  C   UNL     1      -1.252  -4.009  -2.770  0.00  0.00    +0.147 C 
ATOM      9  N   UNL     1      -0.301  -3.482  -3.617  0.00  0.00    -0.250 N 
ATOM     10  C   UNL     1       0.572  -2.540  -3.131  0.00  0.00    +0.089 A 
ATOM     11  C   UNL     1       0.522  -2.095  -1.813  0.00  0.00    +0.047 A 
ATOM     12  C   UNL     1       1.516  -1.085  -1.432  0.00  0.00    -0.025 A 
ATOM     13  C   UNL     1       2.372  -0.685  -2.396  0.00  0.00    -0.005 A 
ATOM     14  S   UNL     1       1.918  -1.623  -3.832  0.00  0.00    -0.077 S 
ATOM     15  C   UNL     1       3.459   0.339  -2.293  0.00  0.00    +0.043 C 
ATOM     16  C   UNL     1       4.305   0.057  -1.044  0.00  0.00    +0.005 C 
ATOM     17  C   UNL     1       3.689   0.808   0.132  0.00  0.00    +0.001 C 
ATOM     18  C   UNL     1       2.171   0.875  -0.028  0.00  0.00    +0.005 C 
ATOM     19  C   UNL     1       1.570  -0.525  -0.014  0.00  0.00    +0.037 C 
ATOM     20  C   UNL     1      -0.530  -2.707  -0.973  0.00  0.00    +0.128 C 
ATOM     21  N   UNL     1      -1.335  -3.608  -1.494  0.00  0.00    -0.215 NA
ATOM     22  N   UNL     1      -0.666  -2.336   0.344  0.00  0.00    -0.343 N 
ATOM     23  C   UNL     1      -0.851  -5.146  -6.848  0.00  0.00    +0.162 C 
ATOM     24  O   UNL     1      -1.609  -5.972  -7.316  0.00  0.00    -0.292 OA
ATOM     25  C   UNL     1       0.216  -4.537  -7.719  0.00  0.00    +0.086 C 
ATOM     26  C   UNL     1       2.460  -3.430  -7.691  0.00  0.00    +0.011 C 
ATOM     27  H   UNL     1      -1.517  -2.455   0.796  0.00  0.00    +0.144 HD
ATOM     28  H   UNL     1       0.087  -1.955   0.822  0.00  0.00    +0.144 HD
ENDROOT
BRANCH   6  29
ATOM     29  C   UNL     1      -1.824  -6.908  -4.670  0.00  0.00    +0.011 A 
ATOM     30  C   UNL     1      -2.833  -7.763  -5.073  0.00  0.00    +0.008 A 
ATOM     31  C   UNL     1      -2.620  -9.129  -5.090  0.00  0.00    +0.004 A 
ATOM     32  C   UNL     1      -1.400  -9.646  -4.694  0.00  0.00    +0.049 A 
ATOM     33  C   UNL     1      -0.387  -8.795  -4.284  0.00  0.00    +0.162 A 
ATOM     34  C   UNL     1      -0.600  -7.420  -4.272  0.00  0.00    +0.166 A 
BRANCH  34  35
ATOM     35  O   UNL     1       0.392  -6.580  -3.871  0.00  0.00    -0.491 OA
ATOM     36  C   UNL     1       0.543  -6.381  -2.464  0.00  0.00    +0.277 C 
ENDBRANCH  34  35
BRANCH  33  37
ATOM     37  O   UNL     1       0.814  -9.302  -3.895  0.00  0.00    -0.491 OA
ATOM     38  C   UNL     1       0.961 -10.723  -3.933  0.00  0.00    +0.277 C 
ENDBRANCH  33  37
ENDBRANCH   6  29
BRANCH   7  39
ATOM     39  C   UNL     1      -3.140  -5.524  -2.336  0.00  0.00    +0.099 C 
ATOM     40  N   UNL     1      -3.923  -5.961  -1.638  0.00  0.00    -0.191 NA
ENDBRANCH   7  39
TORSDOF 4
