REMARK  Name = ZINC10755350
REMARK  9 active torsions:
REMARK  status: ('A' for Active; 'I' for Inactive)
REMARK    1  A    between atoms: C_1  and  C_2
REMARK    2  A    between atoms: C_2  and  C_32
REMARK    3  A    between atoms: C_5  and  C_30
REMARK    4  A    between atoms: C_6  and  N_12
REMARK    5  A    between atoms: C_9  and  C_10
REMARK    6  A    between atoms: C_9  and  C_11
REMARK    7  A    between atoms: C_13  and  C_15
REMARK    8  A    between atoms: N_20  and  S_22
REMARK    9  A    between atoms: S_22  and  C_25
REMARK                            x       y       z     vdW  Elec       q    Type
REMARK                         _______ _______ _______ _____ _____    ______ ____
ROOT
ATOM      1  N   UNL     1       2.225   1.300  -1.023  0.00  0.00    -0.279 N 
ATOM      2  C   UNL     1       1.401   1.608  -0.003  0.00  0.00    +0.222 C 
ATOM      3  O   UNL     1       1.796   2.306   0.907  0.00  0.00    -0.275 OA
ATOM      4  H   UNL     1       1.909   0.742  -1.751  0.00  0.00    +0.155 HD
ENDROOT
BRANCH   1  10
ATOM      5  C   UNL     1       7.494   4.489  -3.075  0.00  0.00    -0.010 C 
ATOM      6  C   UNL     1       7.993   3.202  -2.417  0.00  0.00    -0.069 C 
ATOM      7  C   UNL     1       7.001   2.070  -2.693  0.00  0.00    +0.024 C 
ATOM      8  C   UNL     1       5.807   2.196  -1.759  0.00  0.00    -0.021 A 
ATOM      9  C   UNL     1       4.516   1.573  -1.985  0.00  0.00    +0.084 A 
ATOM     10  C   UNL     1       3.527   1.781  -1.033  0.00  0.00    +0.090 A 
ATOM     11  S   UNL     1       4.314   2.784   0.141  0.00  0.00    -0.078 S 
ATOM     12  C   UNL     1       5.904   2.922  -0.624  0.00  0.00    -0.015 A 
ATOM     13  C   UNL     1       7.109   3.664  -0.136  0.00  0.00    -0.041 C 
ATOM     14  C   UNL     1       6.814   5.161  -0.048  0.00  0.00    -0.005 C 
ATOM     15  C   UNL     1       7.428   3.159   1.288  0.00  0.00    -0.005 C 
ATOM     16  C   UNL     1       9.326   2.823  -3.099  0.00  0.00    -0.010 C 
ATOM     17  N   UNL     1       8.305   3.370  -0.975  0.00  0.00    +0.389 N 
ATOM     18  H   UNL     1       8.970   4.147  -0.876  0.00  0.00    -0.084 HD
ATOM     19  H   UNL     1       8.737   2.504  -0.633  0.00  0.00    -0.084 HD
BRANCH   9  20
ATOM     20  C   UNL     1       4.265   0.770  -3.144  0.00  0.00    +0.102 C 
ATOM     21  N   UNL     1       4.066   0.133  -4.063  0.00  0.00    -0.191 NA
ENDBRANCH   9  20
ENDBRANCH   1  10
BRANCH   2  22
ATOM     22  C   UNL     1      -0.013   1.086   0.008  0.00  0.00    +0.091 C 
ATOM     23  C   UNL     1      -0.754   1.593  -1.231  0.00  0.00    +0.015 C 
ATOM     24  C   UNL     1      -2.180   1.036  -1.237  0.00  0.00    +0.018 C 
ATOM     25  C   UNL     1      -2.923   1.530   0.008  0.00  0.00    +0.109 C 
ATOM     26  N   UNL     1      -2.141   1.172   1.199  0.00  0.00    -0.175 NA
ATOM     27  C   UNL     1      -0.731   1.581   1.267  0.00  0.00    +0.122 C 
BRANCH  26  28
ATOM     28  S   UNL     1      -2.835   0.324   2.441  0.00  0.00    +0.067 S 
ATOM     29  O   UNL     1      -3.936  -0.382   1.885  0.00  0.00    -0.152 OA
ATOM     30  O   UNL     1      -1.776  -0.332   3.126  0.00  0.00    -0.152 OA
BRANCH  28  31
ATOM     31  C   UNL     1      -3.507   1.503   3.564  0.00  0.00    +0.143 A 
ATOM     32  C   UNL     1      -4.746   2.053   3.584  0.00  0.00    +0.036 A 
ATOM     33  C   UNL     1      -5.058   2.968   4.573  0.00  0.00    +0.010 A 
ATOM     34  C   UNL     1      -4.115   3.288   5.493  0.00  0.00    +0.047 A 
ATOM     35  S   UNL     1      -2.737   2.277   4.977  0.00  0.00    -0.077 S 
ENDBRANCH  28  31
ENDBRANCH  26  28
ENDBRANCH   2  22
TORSDOF 5
