REMARK  Name = ZINC02502482
REMARK  8 active torsions:
REMARK  status: ('A' for Active; 'I' for Inactive)
REMARK    1  A    between atoms: C_1  and  O_2
REMARK    2  A    between atoms: O_2  and  C_3
REMARK    3  A    between atoms: C_5  and  C_17
REMARK    4  A    between atoms: C_8  and  O_9
REMARK    5  A    between atoms: O_9  and  C_10
REMARK    6  A    between atoms: C_10  and  C_11
REMARK    7  A    between atoms: C_26  and  N_30
REMARK    8  A    between atoms: C_27  and  C_28
REMARK                            x       y       z     vdW  Elec       q    Type
REMARK                         _______ _______ _______ _____ _____    ______ ____
ROOT
ATOM      1  C   UNL     1      -2.557   4.152   0.048  0.00  0.00    +0.098 C 
ATOM      2  C   UNL     1      -2.657   5.021  -1.178  0.00  0.00    +0.011 A 
ATOM      3  C   UNL     1      -2.949   4.441  -2.401  0.00  0.00    +0.057 A 
ATOM      4  C   UNL     1      -3.045   5.223  -3.538  0.00  0.00    +0.167 A 
ATOM      5  C   UNL     1      -2.848   6.600  -3.452  0.00  0.00    +0.170 A 
ATOM      6  C   UNL     1      -2.556   7.178  -2.229  0.00  0.00    +0.096 A 
ATOM      7  C   UNL     1      -2.460   6.389  -1.089  0.00  0.00    +0.138 A 
ATOM      8  O   UNL     1      -2.172   6.975   0.101  0.00  0.00    -0.441 OA
ATOM      9  C   UNL     1      -2.447   6.332   1.248  0.00  0.00    +0.199 C 
ATOM     10  C   UNL     1      -2.642   4.993   1.290  0.00  0.00    +0.098 C 
ATOM     11  O   UNL     1      -2.995   7.140  -4.697  0.00  0.00    -0.452 OA
ATOM     12  C   UNL     1      -3.686   6.142  -5.471  0.00  0.00    +0.466 C 
ATOM     13  O   UNL     1      -3.316   4.902  -4.838  0.00  0.00    -0.453 OA
ENDROOT
BRANCH   1  16
ATOM     14  C   UNL     1      -0.016   1.356   0.009  0.00  0.00    +0.162 A 
ATOM     15  C   UNL     1      -1.225   2.034   0.019  0.00  0.00    +0.054 A 
ATOM     16  C   UNL     1      -1.242   3.416   0.032  0.00  0.00    -0.031 A 
ATOM     17  C   UNL     1      -0.055   4.125   0.024  0.00  0.00    +0.008 A 
ATOM     18  C   UNL     1       1.154   3.455   0.009  0.00  0.00    +0.050 A 
ATOM     19  C   UNL     1       1.178   2.069   0.002  0.00  0.00    +0.162 A 
BRANCH  14  21
ATOM     20  C   UNL     1      -1.262  -0.670   0.011  0.00  0.00    +0.277 C 
ATOM     21  O   UNL     1       0.002  -0.004   0.002  0.00  0.00    -0.491 OA
ENDBRANCH  14  21
BRANCH  19  22
ATOM     22  O   UNL     1       2.367   1.409  -0.012  0.00  0.00    -0.484 OA
BRANCH  22  23
ATOM     23  C   UNL     1       3.552   2.206  -0.019  0.00  0.00    +0.264 C 
BRANCH  23  24
ATOM     24  C   UNL     1       4.762   1.308  -0.034  0.00  0.00    -0.010 A 
ATOM     25  C   UNL     1       5.331   0.894   1.156  0.00  0.00    +0.007 A 
ATOM     26  C   UNL     1       6.438   0.066   1.142  0.00  0.00    +0.000 A 
ATOM     27  C   UNL     1       6.982  -0.341  -0.062  0.00  0.00    +0.000 A 
ATOM     28  C   UNL     1       6.416   0.077  -1.253  0.00  0.00    +0.000 A 
ATOM     29  C   UNL     1       5.306   0.901  -1.238  0.00  0.00    +0.007 A 
ENDBRANCH  23  24
ENDBRANCH  22  23
ENDBRANCH  19  22
ENDBRANCH   1  16
BRANCH   9  30
ATOM     30  N   UNL     1      -2.534   7.055   2.411  0.00  0.00    -0.328 N 
ATOM     31  H   UNL     1      -2.398   8.015   2.397  0.00  0.00    +0.145 HD
ATOM     32  H   UNL     1      -2.733   6.606   3.248  0.00  0.00    +0.145 HD
ENDBRANCH   9  30
BRANCH  10  33
ATOM     33  C   UNL     1      -2.934   4.365   2.544  0.00  0.00    +0.101 C 
ATOM     34  N   UNL     1      -3.165   3.868   3.538  0.00  0.00    -0.191 NA
ENDBRANCH  10  33
TORSDOF 7
