REMARK  Name = ZINC38806059
REMARK  11 active torsions:
REMARK  status: ('A' for Active; 'I' for Inactive)
REMARK    1  A    between atoms: C_1  and  C_2
REMARK    2  A    between atoms: C_2  and  C_33
REMARK    3  A    between atoms: C_5  and  C_29
REMARK    4  A    between atoms: C_6  and  N_13
REMARK    5  A    between atoms: C_9  and  C_11
REMARK    6  A    between atoms: C_9  and  C_12
REMARK    7  A    between atoms: C_14  and  C_16
REMARK    8  A    between atoms: C_19  and  C_22
REMARK    9  A    between atoms: C_22  and  C_23
REMARK   10  A    between atoms: C_29  and  O_31
REMARK   11  A    between atoms: O_31  and  C_32
REMARK                            x       y       z     vdW  Elec       q    Type
REMARK                         _______ _______ _______ _____ _____    ______ ____
ROOT
ATOM      1  C   UNL     1      -0.019   1.536   0.011  0.00  0.00    -0.010 C 
ATOM      2  C   UNL     1       0.002  -0.004   0.002  0.00  0.00    -0.069 C 
ATOM      3  C   UNL     1       0.693  -0.456  -1.290  0.00  0.00    +0.024 C 
ATOM      4  C   UNL     1       0.777  -1.974  -1.244  0.00  0.00    -0.024 A 
ATOM      5  C   UNL     1       0.749  -2.881  -2.370  0.00  0.00    +0.091 A 
ATOM      6  C   UNL     1       0.835  -4.239  -2.086  0.00  0.00    +0.086 A 
ATOM      7  S   UNL     1       0.949  -4.303  -0.411  0.00  0.00    -0.079 S 
ATOM      8  C   UNL     1       0.895  -2.576  -0.037  0.00  0.00    -0.016 A 
ATOM      9  C   UNL     1       0.970  -1.895   1.288  0.00  0.00    -0.041 C 
ATOM     10  N   UNL     1       0.711  -0.460   1.190  0.00  0.00    +0.389 N 
ATOM     11  C   UNL     1      -0.026  -2.549   2.256  0.00  0.00    -0.005 C 
ATOM     12  C   UNL     1       2.387  -2.103   1.858  0.00  0.00    -0.005 C 
ATOM     13  C   UNL     1      -1.448  -0.493   0.002  0.00  0.00    -0.010 C 
ATOM     14  H   UNL     1       1.603   0.035   1.244  0.00  0.00    -0.084 HD
ATOM     15  H   UNL     1       0.184  -0.167   2.015  0.00  0.00    -0.084 HD
ENDROOT
BRANCH   6  16
ATOM     16  N   UNL     1       0.829  -5.296  -2.980  0.00  0.00    -0.275 N 
ATOM     17  C   UNL     1       0.921  -6.562  -2.528  0.00  0.00    +0.249 C 
ATOM     18  O   UNL     1       1.010  -6.777  -1.335  0.00  0.00    -0.270 OA
ATOM     19  H   UNL     1       0.757  -5.125  -3.933  0.00  0.00    +0.156 HD
BRANCH  17  20
ATOM     20  C   UNL     1       0.914  -7.690  -3.483  0.00  0.00    +0.037 A 
ATOM     21  C   UNL     1       0.818  -7.447  -4.854  0.00  0.00    +0.013 A 
ATOM     22  C   UNL     1       0.812  -8.505  -5.740  0.00  0.00    +0.005 A 
ATOM     23  C   UNL     1       0.902  -9.804  -5.272  0.00  0.00    -0.043 A 
ATOM     24  C   UNL     1       0.997 -10.052  -3.915  0.00  0.00    +0.005 A 
ATOM     25  C   UNL     1       1.010  -9.003  -3.018  0.00  0.00    +0.013 A 
BRANCH  23  26
ATOM     26  C   UNL     1       0.895 -10.954  -6.246  0.00  0.00    +0.070 C 
BRANCH  26  27
ATOM     27  C   UNL     1       2.309 -11.272  -6.659  0.00  0.00    -0.043 A 
ATOM     28  C   UNL     1       2.867 -10.642  -7.755  0.00  0.00    +0.004 A 
ATOM     29  C   UNL     1       4.164 -10.933  -8.134  0.00  0.00    +0.000 A 
ATOM     30  C   UNL     1       4.903 -11.854  -7.415  0.00  0.00    +0.000 A 
ATOM     31  C   UNL     1       4.346 -12.483  -6.318  0.00  0.00    +0.000 A 
ATOM     32  C   UNL     1       3.050 -12.189  -5.937  0.00  0.00    +0.004 A 
ENDBRANCH  26  27
ENDBRANCH  23  26
ENDBRANCH  17  20
ENDBRANCH   6  16
BRANCH   5  33
ATOM     33  C   UNL     1       0.639  -2.403  -3.749  0.00  0.00    +0.342 C 
ATOM     34  O   UNL     1       1.643  -2.154  -4.389  0.00  0.00    -0.245 OA
BRANCH  33  35
ATOM     35  O   UNL     1      -0.577  -2.239  -4.311  0.00  0.00    -0.464 OA
ATOM     36  C   UNL     1      -0.610  -1.770  -5.660  0.00  0.00    +0.280 C 
ENDBRANCH  33  35
ENDBRANCH   5  33
TORSDOF 6
