REMARK  Name = ZINC44944179
REMARK  6 active torsions:
REMARK  status: ('A' for Active; 'I' for Inactive)
REMARK    1  A    between atoms: C_4  and  C_7
REMARK    2  A    between atoms: C_7  and  O_8
REMARK    3  A    between atoms: O_8  and  C_9
REMARK    4  A    between atoms: C_15  and  N_17
REMARK    5  A    between atoms: C_18  and  C_20
REMARK    6  A    between atoms: C_26  and  C_28
REMARK                            x       y       z     vdW  Elec       q    Type
REMARK                         _______ _______ _______ _____ _____    ______ ____
ROOT
ATOM      1  C   UNL     1       6.722   2.386   3.747  0.00  0.00    +0.091 C 
ATOM      2  C   UNL     1       5.559   3.115   3.071  0.00  0.00    +0.040 C 
ATOM      3  C   UNL     1       5.694   4.596   3.265  0.00  0.00    -0.030 C 
ATOM      4  C   UNL     1       6.455   5.144   4.158  0.00  0.00    -0.030 C 
ATOM      5  C   UNL     1       7.317   4.374   5.115  0.00  0.00    +0.040 C 
ATOM      6  C   UNL     1       6.864   2.914   5.180  0.00  0.00    +0.091 C 
ENDROOT
BRANCH   6   7
ATOM      7  C   UNL     1       5.535   2.832   5.885  0.00  0.00    +0.220 C 
ATOM      8  O   UNL     1       4.601   3.502   5.498  0.00  0.00    -0.275 OA
ATOM      9  N   UNL     1       5.383   2.013   6.944  0.00  0.00    -0.298 N 
ATOM     10  C   UNL     1       6.537   1.295   7.505  0.00  0.00    +0.126 C 
ATOM     11  C   UNL     1       6.639   1.625   9.000  0.00  0.00    +0.125 C 
ATOM     12  N   UNL     1       5.318   1.434   9.615  0.00  0.00    -0.314 N 
ATOM     13  C   UNL     1       4.165   2.152   9.053  0.00  0.00    +0.125 C 
ATOM     14  C   UNL     1       4.063   1.826   7.563  0.00  0.00    +0.126 C 
ATOM     15  C   UNL     1       5.162   0.590  10.708  0.00  0.00    +0.099 A 
ATOM     16  C   UNL     1       6.282   0.010  11.297  0.00  0.00    +0.042 A 
ATOM     17  C   UNL     1       6.112  -0.828  12.383  0.00  0.00    +0.005 A 
ATOM     18  C   UNL     1       4.824  -1.060  12.847  0.00  0.00    +0.018 A 
ATOM     19  C   UNL     1       3.758  -0.452  12.214  0.00  0.00    +0.084 A 
ATOM     20  N   UNL     1       3.950   0.348  11.182  0.00  0.00    -0.350 N 
ATOM     21  H   UNL     1       3.184   0.765  10.758  0.00  0.00    +0.166 HD
ENDBRANCH   6   7
BRANCH   1  23
ATOM     22  N   UNL     1       6.271   0.227   2.627  0.00  0.00    -0.310 N 
ATOM     23  C   UNL     1       6.442   0.905   3.779  0.00  0.00    +0.217 C 
ATOM     24  O   UNL     1       6.371   0.324   4.841  0.00  0.00    -0.275 OA
ATOM     25  H   UNL     1       6.328   0.692   1.777  0.00  0.00    +0.149 HD
BRANCH  22  31
ATOM     26  C   UNL     1       5.255  -1.618   1.384  0.00  0.00    +0.139 C 
ATOM     27  C   UNL     1       4.971  -3.121   1.416  0.00  0.00    +0.033 C 
ATOM     28  C   UNL     1       6.292  -3.888   1.500  0.00  0.00    +0.003 C 
ATOM     29  C   UNL     1       7.037  -3.482   2.774  0.00  0.00    +0.002 C 
ATOM     30  C   UNL     1       7.321  -1.979   2.742  0.00  0.00    +0.025 C 
ATOM     31  C   UNL     1       6.000  -1.212   2.657  0.00  0.00    +0.102 C 
BRANCH  26  32
ATOM     32  O   UNL     1       4.021  -0.902   1.305  0.00  0.00    -0.370 OA
BRANCH  32  33
ATOM     33  C   UNL     1       3.579  -0.650  -0.030  0.00  0.00    +0.195 C 
BRANCH  33  37
ATOM     34  C   UNL     1      -0.114   1.495   0.069  0.00  0.00    +0.000 A 
ATOM     35  C   UNL     1       1.085   2.183   0.051  0.00  0.00    +0.000 A 
ATOM     36  C   UNL     1       2.280   1.489   0.019  0.00  0.00    +0.006 A 
ATOM     37  C   UNL     1       2.276   0.107   0.005  0.00  0.00    -0.022 A 
ATOM     38  C   UNL     1       1.078  -0.582   0.025  0.00  0.00    +0.006 A 
ATOM     39  C   UNL     1      -0.117   0.112   0.055  0.00  0.00    +0.000 A 
ENDBRANCH  33  37
ENDBRANCH  32  33
ENDBRANCH  26  32
ENDBRANCH  22  31
ENDBRANCH   1  23
TORSDOF 6
