REMARK  Name = ZINC34900202
REMARK  8 active torsions:
REMARK  status: ('A' for Active; 'I' for Inactive)
REMARK    1  A    between atoms: C_1  and  C_2
REMARK    2  A    between atoms: C_2  and  C_3
REMARK    3  A    between atoms: C_3  and  C_5
REMARK    4  A    between atoms: C_3  and  C_11
REMARK    5  A    between atoms: C_17  and  C_20
REMARK    6  A    between atoms: N_22  and  C_23
REMARK    7  A    between atoms: C_29  and  N_31
REMARK    8  A    between atoms: C_32  and  C_34
REMARK                            x       y       z     vdW  Elec       q    Type
REMARK                         _______ _______ _______ _____ _____    ______ ____
ROOT
ATOM      1  C   UNL     1      -1.695  -6.049   2.749  0.00  0.00    +0.218 C 
ATOM      2  O   UNL     1      -1.085  -6.705   1.932  0.00  0.00    -0.275 OA
ATOM      3  N   UNL     1      -2.271  -6.655   3.807  0.00  0.00    -0.310 N 
ATOM      4  H   UNL     1      -2.759  -6.130   4.460  0.00  0.00    +0.149 HD
ENDROOT
BRANCH   1  11
ATOM      5  C   UNL     1      -1.538  -2.033   0.127  0.00  0.00    +0.223 C 
ATOM      6  O   UNL     1      -2.025  -2.678  -0.776  0.00  0.00    -0.275 OA
ATOM      7  N   UNL     1      -1.083  -2.657   1.232  0.00  0.00    -0.300 N 
ATOM      8  C   UNL     1      -0.590  -1.884   2.380  0.00  0.00    +0.108 C 
ATOM      9  C   UNL     1      -1.335  -2.340   3.638  0.00  0.00    +0.020 C 
ATOM     10  C   UNL     1      -1.188  -3.856   3.792  0.00  0.00    +0.016 C 
ATOM     11  C   UNL     1      -1.811  -4.556   2.581  0.00  0.00    +0.092 C 
ATOM     12  C   UNL     1      -1.077  -4.124   1.313  0.00  0.00    +0.120 C 
BRANCH   5  13
ATOM     13  C   UNL     1      -1.439  -0.533   0.016  0.00  0.00    +0.105 C 
BRANCH  13  14
ATOM     14  C   UNL     1      -2.652   0.098   0.649  0.00  0.00    -0.036 A 
ATOM     15  C   UNL     1      -3.915  -0.195   0.169  0.00  0.00    +0.004 A 
ATOM     16  C   UNL     1      -5.027   0.384   0.750  0.00  0.00    +0.000 A 
ATOM     17  C   UNL     1      -4.877   1.256   1.812  0.00  0.00    +0.000 A 
ATOM     18  C   UNL     1      -3.615   1.549   2.293  0.00  0.00    +0.000 A 
ATOM     19  C   UNL     1      -2.502   0.967   1.715  0.00  0.00    +0.004 A 
ENDBRANCH  13  14
BRANCH  13  21
ATOM     20  C   UNL     1      -1.127   1.372  -1.571  0.00  0.00    +0.005 C 
ATOM     21  C   UNL     1      -1.369  -0.135  -1.460  0.00  0.00    +0.014 C 
ENDBRANCH  13  21
ENDBRANCH   5  13
ENDBRANCH   1  11
BRANCH   3  22
ATOM     22  C   UNL     1      -2.158  -8.106   3.970  0.00  0.00    +0.093 C 
ATOM     23  C   UNL     1      -3.259  -8.797   3.162  0.00  0.00    +0.024 C 
ATOM     24  C   UNL     1      -3.142 -10.313   3.332  0.00  0.00    +0.002 C 
ATOM     25  C   UNL     1      -3.293 -10.673   4.811  0.00  0.00    +0.002 C 
ATOM     26  C   UNL     1      -2.192  -9.982   5.619  0.00  0.00    +0.024 C 
ATOM     27  C   UNL     1      -2.309  -8.467   5.449  0.00  0.00    +0.093 C 
BRANCH  27  28
ATOM     28  N   UNL     1      -1.256  -7.805   6.223  0.00  0.00    -0.307 N 
ATOM     29  C   UNL     1      -1.444  -7.543   7.531  0.00  0.00    +0.244 C 
ATOM     30  O   UNL     1      -2.488  -7.855   8.069  0.00  0.00    -0.270 OA
ATOM     31  H   UNL     1      -0.422  -7.556   5.793  0.00  0.00    +0.149 HD
BRANCH  29  32
ATOM     32  C   UNL     1      -0.382  -6.876   8.311  0.00  0.00    +0.037 A 
ATOM     33  C   UNL     1       0.817  -6.512   7.694  0.00  0.00    +0.016 A 
ATOM     34  C   UNL     1       1.805  -5.890   8.427  0.00  0.00    +0.039 A 
ATOM     35  C   UNL     1       1.611  -5.627   9.774  0.00  0.00    +0.123 A 
ATOM     36  C   UNL     1       0.423  -5.987  10.392  0.00  0.00    +0.039 A 
ATOM     37  C   UNL     1      -0.574  -6.603   9.667  0.00  0.00    +0.016 A 
ATOM     38  F   UNL     1       2.583  -5.018  10.488  0.00  0.00    -0.205 F 
ENDBRANCH  29  32
ENDBRANCH  27  28
ENDBRANCH   3  22
TORSDOF 7
