REMARK  Name = ZINC39665888
REMARK  9 active torsions:
REMARK  status: ('A' for Active; 'I' for Inactive)
REMARK    1  A    between atoms: C_1  and  C_2
REMARK    2  A    between atoms: C_5  and  C_8
REMARK    3  A    between atoms: C_12  and  C_21
REMARK    4  A    between atoms: N_23  and  C_24
REMARK    5  A    between atoms: C_24  and  C_25
REMARK    6  A    between atoms: C_25  and  C_27
REMARK    7  A    between atoms: C_25  and  O_28
REMARK    8  A    between atoms: O_28  and  C_29
REMARK    9  A    between atoms: C_32  and  C_35
REMARK                            x       y       z     vdW  Elec       q    Type
REMARK                         _______ _______ _______ _____ _____    ______ ____
ROOT
ATOM      1  C   UNL     1       0.176  -3.857   0.092  0.00  0.00    +0.247 C 
ATOM      2  O   UNL     1       0.084  -4.406  -0.988  0.00  0.00    -0.270 OA
ATOM      3  N   UNL     1       0.276  -4.594   1.216  0.00  0.00    -0.296 N 
ATOM      4  C   UNL     1       0.266  -4.117   2.619  0.00  0.00    +0.121 C 
ATOM      5  C   UNL     1      -0.565  -5.171   3.385  0.00  0.00    +0.100 C 
ATOM      6  C   UNL     1      -0.458  -6.448   2.534  0.00  0.00    -0.004 C 
ATOM      7  C   UNL     1       0.413  -6.066   1.329  0.00  0.00    +0.115 C 
ATOM      8  C   UNL     1      -1.841  -6.884   2.059  0.00  0.00    -0.010 C 
ATOM      9  C   UNL     1      -1.716  -8.186   1.263  0.00  0.00    -0.082 C 
ATOM     10  N   UNL     1      -1.118  -9.224   2.111  0.00  0.00    +0.379 N 
ATOM     11  C   UNL     1       0.248  -8.838   2.487  0.00  0.00    -0.082 C 
ATOM     12  C   UNL     1       0.205  -7.564   3.335  0.00  0.00    -0.010 C 
ATOM     13  H   UNL     1      -1.675  -9.338   2.945  0.00  0.00    -0.086 HD
ATOM     14  H   UNL     1      -1.092 -10.097   1.605  0.00  0.00    -0.086 HD
ENDROOT
BRANCH   1  19
ATOM     15  C   UNL     1       0.184   1.889   0.410  0.00  0.00    +0.044 C 
ATOM     16  C   UNL     1       0.182   0.384   0.327  0.00  0.00    -0.050 A 
ATOM     17  C   UNL     1      -0.379  -0.244  -0.771  0.00  0.00    +0.004 A 
ATOM     18  C   UNL     1      -0.384  -1.621  -0.854  0.00  0.00    +0.013 A 
ATOM     19  C   UNL     1       0.178  -2.381   0.174  0.00  0.00    +0.037 A 
ATOM     20  C   UNL     1       0.742  -1.741   1.279  0.00  0.00    +0.013 A 
ATOM     21  C   UNL     1       0.745  -0.363   1.346  0.00  0.00    +0.004 A 
ENDBRANCH   1  19
BRANCH   5  22
ATOM     22  C   UNL     1       0.015  -5.402   4.756  0.00  0.00    +0.218 C 
ATOM     23  O   UNL     1       1.191  -5.184   4.962  0.00  0.00    -0.275 OA
ATOM     24  N   UNL     1      -0.771  -5.852   5.754  0.00  0.00    -0.312 N 
ATOM     25  H   UNL     1      -1.711  -6.027   5.589  0.00  0.00    +0.149 HD
BRANCH  24  26
ATOM     26  C   UNL     1      -0.207  -6.076   7.087  0.00  0.00    +0.148 C 
BRANCH  26  27
ATOM     27  C   UNL     1      -1.304  -6.582   8.026  0.00  0.00    +0.187 C 
ATOM     28  C   UNL     1      -0.714  -6.817   9.419  0.00  0.00    +0.053 C 
BRANCH  27  29
ATOM     29  O   UNL     1      -2.347  -5.609   8.108  0.00  0.00    -0.488 OA
BRANCH  29  30
ATOM     30  C   UNL     1      -3.613  -6.075   8.273  0.00  0.00    +0.121 A 
ATOM     31  C   UNL     1      -4.688  -5.199   8.219  0.00  0.00    +0.046 A 
ATOM     32  C   UNL     1      -5.974  -5.675   8.386  0.00  0.00    +0.007 A 
ATOM     33  C   UNL     1      -6.191  -7.022   8.607  0.00  0.00    -0.050 A 
ATOM     34  C   UNL     1      -5.121  -7.897   8.661  0.00  0.00    +0.007 A 
ATOM     35  C   UNL     1      -3.834  -7.427   8.488  0.00  0.00    +0.046 A 
ATOM     36  C   UNL     1      -7.595  -7.538   8.789  0.00  0.00    +0.044 C 
ENDBRANCH  29  30
ENDBRANCH  27  29
ENDBRANCH  26  27
ENDBRANCH  24  26
ENDBRANCH   5  22
TORSDOF 6
