REMARK  Name = ZINC53104086
REMARK  5 active torsions:
REMARK  status: ('A' for Active; 'I' for Inactive)
REMARK    1  A    between atoms: C_1  and  C_2
REMARK    2  A    between atoms: C_7  and  C_9
REMARK    3  A    between atoms: C_7  and  N_11
REMARK    4  A    between atoms: C_9  and  O_10
REMARK    5  A    between atoms: C_12  and  C_14
REMARK                            x       y       z     vdW  Elec       q    Type
REMARK                         _______ _______ _______ _____ _____    ______ ____
ROOT
ATOM      1  N   UNL     1      -0.612  -2.545   1.218  0.00  0.00    -0.302 N 
ATOM      2  C   UNL     1      -1.480  -2.162   2.175  0.00  0.00    +0.261 C 
ATOM      3  O   UNL     1      -1.150  -1.328   2.998  0.00  0.00    -0.269 OA
ATOM      4  H   UNL     1      -0.898  -3.153   0.519  0.00  0.00    +0.150 HD
ENDROOT
BRANCH   1  10
ATOM      5  C   UNL     1       0.082   1.366  -0.421  0.00  0.00    +0.007 C 
ATOM      6  C   UNL     1       0.093  -0.155  -0.259  0.00  0.00    -0.012 C 
ATOM      7  C   UNL     1       0.879  -0.786  -1.410  0.00  0.00    +0.003 C 
ATOM      8  C   UNL     1       0.889  -2.307  -1.247  0.00  0.00    +0.002 C 
ATOM      9  C   UNL     1       1.550  -2.673   0.083  0.00  0.00    +0.028 C 
ATOM     10  C   UNL     1       0.764  -2.043   1.234  0.00  0.00    +0.058 C 
ATOM     11  C   UNL     1       0.754  -0.521   1.071  0.00  0.00    +0.031 C 
BRANCH  10  12
ATOM     12  C   UNL     1       1.425  -2.409   2.564  0.00  0.00    +0.181 C 
BRANCH  12  13
ATOM     13  O   UNL     1       1.323  -3.819   2.775  0.00  0.00    -0.393 OA
ATOM     14  H   UNL     1       1.722  -4.123   3.602  0.00  0.00    +0.209 HD
ENDBRANCH  12  13
ENDBRANCH  10  12
ENDBRANCH   1  10
BRANCH   2  15
ATOM     15  C   UNL     1      -2.823  -2.749   2.225  0.00  0.00    +0.103 A 
ATOM     16  C   UNL     1      -3.811  -2.449   3.139  0.00  0.00    +0.047 A 
ATOM     17  C   UNL     1      -4.921  -3.237   2.819  0.00  0.00    +0.036 A 
ATOM     18  C   UNL     1      -4.599  -3.988   1.738  0.00  0.00    +0.098 A 
ATOM     19  N   UNL     1      -3.329  -3.697   1.364  0.00  0.00    -0.356 N 
ATOM     20  H   UNL     1      -2.855  -4.092   0.616  0.00  0.00    +0.165 HD
ATOM     21 BR   UNL     1      -6.577  -3.251   3.732  0.00  0.00    -0.049 Br
ENDBRANCH   2  15
TORSDOF 4
