REMARK  Name = ZINC13352952
REMARK  9 active torsions:
REMARK  status: ('A' for Active; 'I' for Inactive)
REMARK    1  A    between atoms: C_1  and  C_2
REMARK    2  A    between atoms: C_2  and  C_3
REMARK    3  A    between atoms: C_2  and  C_4
REMARK    4  A    between atoms: C_4  and  N_5
REMARK    5  A    between atoms: C_6  and  C_8
REMARK    6  A    between atoms: C_14  and  C_16
REMARK    7  A    between atoms: C_19  and  N_22
REMARK    8  A    between atoms: N_22  and  S_23
REMARK    9  A    between atoms: S_23  and  C_26
REMARK                            x       y       z     vdW  Elec       q    Type
REMARK                         _______ _______ _______ _____ _____    ______ ____
ROOT
ATOM      1  C   UNL     1      -0.048   4.116  -0.141  0.00  0.00    +0.037 A 
ATOM      2  C   UNL     1       1.131   3.441  -0.467  0.00  0.00    +0.015 A 
ATOM      3  C   UNL     1       1.168   2.066  -0.427  0.00  0.00    +0.025 A 
ATOM      4  C   UNL     1       0.032   1.347  -0.062  0.00  0.00    +0.048 A 
ATOM      5  C   UNL     1      -1.145   2.018   0.259  0.00  0.00    +0.025 A 
ATOM      6  C   UNL     1      -1.187   3.393   0.225  0.00  0.00    +0.015 A 
ENDROOT
BRANCH   1  13
ATOM      7  C   UNL     1      -2.625   7.353  -2.893  0.00  0.00    +0.078 C 
ATOM      8  C   UNL     1      -1.352   8.038  -2.391  0.00  0.00    +0.032 C 
ATOM      9  C   UNL     1      -1.131   7.681  -0.918  0.00  0.00    +0.109 C 
ATOM     10  N   UNL     1      -1.122   6.218  -0.782  0.00  0.00    -0.297 N 
ATOM     11  C   UNL     1      -2.255   5.452  -1.319  0.00  0.00    +0.109 C 
ATOM     12  C   UNL     1      -2.466   5.835  -2.783  0.00  0.00    +0.032 C 
ATOM     13  C   UNL     1      -0.091   5.590  -0.182  0.00  0.00    +0.247 C 
ATOM     14  O   UNL     1       0.803   6.239   0.325  0.00  0.00    -0.270 OA
BRANCH   7  16
ATOM     15  N   UNL     1      -3.935   7.240  -4.988  0.00  0.00    -0.315 N 
ATOM     16  C   UNL     1      -2.864   7.729  -4.332  0.00  0.00    +0.216 C 
ATOM     17  O   UNL     1      -2.092   8.472  -4.901  0.00  0.00    -0.276 OA
ATOM     18  H   UNL     1      -4.552   6.645  -4.533  0.00  0.00    +0.149 HD
BRANCH  15  19
ATOM     19  C   UNL     1      -4.167   7.606  -6.387  0.00  0.00    +0.107 C 
BRANCH  19  21
ATOM     20  C   UNL     1      -5.751   7.399  -8.309  0.00  0.00    +0.009 C 
ATOM     21  C   UNL     1      -5.440   6.921  -6.889  0.00  0.00    -0.000 C 
ATOM     22  C   UNL     1      -5.234   5.404  -6.896  0.00  0.00    +0.009 C 
ENDBRANCH  19  21
ENDBRANCH  15  19
ENDBRANCH   7  16
ENDBRANCH   1  13
BRANCH   4  23
ATOM     23  N   UNL     1       0.073  -0.042  -0.022  0.00  0.00    -0.216 N 
ATOM     24  H   UNL     1       0.475  -0.536  -0.753  0.00  0.00    +0.174 HD
BRANCH  23  25
ATOM     25  S   UNL     1      -0.566  -0.852   1.273  0.00  0.00    +0.072 S 
ATOM     26  O   UNL     1      -1.888  -0.362   1.448  0.00  0.00    -0.150 OA
ATOM     27  O   UNL     1      -0.285  -2.230   1.068  0.00  0.00    -0.150 OA
BRANCH  25  28
ATOM     28  C   UNL     1       0.347  -0.359   2.697  0.00  0.00    +0.109 A 
ATOM     29  C   UNL     1       1.532  -0.996   3.017  0.00  0.00    +0.029 A 
ATOM     30  C   UNL     1       2.242  -0.602   4.132  0.00  0.00    +0.006 A 
ATOM     31  C   UNL     1       1.771   0.422   4.944  0.00  0.00    -0.044 A 
ATOM     32  C   UNL     1       0.590   1.055   4.627  0.00  0.00    -0.042 A 
ATOM     33  C   UNL     1      -0.121   0.660   3.501  0.00  0.00    +0.032 A 
ATOM     34  C   UNL     1       0.024   2.179   5.455  0.00  0.00    +0.035 C 
ATOM     35  C   UNL     1       0.664   2.198   6.842  0.00  0.00    +0.005 C 
ATOM     36  C   UNL     1       2.187   2.171   6.673  0.00  0.00    +0.005 C 
ATOM     37  C   UNL     1       2.590   0.792   6.153  0.00  0.00    +0.035 C 
ENDBRANCH  25  28
ENDBRANCH  23  25
ENDBRANCH   4  23
TORSDOF 7
