REMARK  Name = ZINC39974291
REMARK  13 active torsions:
REMARK  status: ('A' for Active; 'I' for Inactive)
REMARK    1  A    between atoms: C_1  and  C_2
REMARK    2  A    between atoms: C_4  and  C_34
REMARK    3  A    between atoms: C_5  and  N_9
REMARK    4  A    between atoms: C_6  and  C_8
REMARK    5  A    between atoms: N_9  and  S_10
REMARK    6  A    between atoms: S_10  and  C_13
REMARK    7  A    between atoms: C_16  and  N_19
REMARK    8  A    between atoms: N_19  and  C_20
REMARK    9  A    between atoms: C_20  and  N_22
REMARK   10  A    between atoms: N_22  and  C_23
REMARK   11  A    between atoms: C_26  and  C_33
REMARK   12  A    between atoms: C_29  and  C_31
REMARK   13  A    between atoms: C_29  and  C_32
REMARK                            x       y       z     vdW  Elec       q    Type
REMARK                         _______ _______ _______ _____ _____    ______ ____
ROOT
ATOM      1  C   UNL     1      -1.735  -4.551   2.179  0.00  0.00    +0.109 A 
ATOM      2  C   UNL     1      -1.986  -3.240   2.541  0.00  0.00    +0.030 A 
ATOM      3  C   UNL     1      -3.216  -2.889   3.061  0.00  0.00    +0.025 A 
ATOM      4  C   UNL     1      -4.202  -3.855   3.220  0.00  0.00    +0.033 A 
ATOM      5  C   UNL     1      -3.946  -5.170   2.855  0.00  0.00    +0.025 A 
ATOM      6  C   UNL     1      -2.716  -5.513   2.331  0.00  0.00    +0.030 A 
ENDROOT
BRANCH   1   7
ATOM      7  S   UNL     1      -0.163  -4.994   1.516  0.00  0.00    +0.072 S 
ATOM      8  O   UNL     1      -0.043  -6.402   1.663  0.00  0.00    -0.150 OA
ATOM      9  O   UNL     1       0.781  -4.087   2.068  0.00  0.00    -0.150 OA
BRANCH   7  10
ATOM     10  N   UNL     1      -0.215  -4.691  -0.111  0.00  0.00    -0.216 N 
ATOM     11  H   UNL     1      -0.173  -5.425  -0.743  0.00  0.00    +0.174 HD
BRANCH  10  16
ATOM     12  C   UNL     1      -0.639   0.643  -1.990  0.00  0.00    +0.044 C 
ATOM     13  C   UNL     1      -0.526  -0.774  -1.491  0.00  0.00    -0.050 A 
ATOM     14  C   UNL     1       0.660  -1.218  -0.935  0.00  0.00    +0.008 A 
ATOM     15  C   UNL     1       0.766  -2.516  -0.476  0.00  0.00    -0.028 A 
ATOM     16  C   UNL     1      -0.320  -3.377  -0.574  0.00  0.00    +0.054 A 
ATOM     17  C   UNL     1      -1.510  -2.928  -1.133  0.00  0.00    -0.028 A 
ATOM     18  C   UNL     1      -1.611  -1.627  -1.584  0.00  0.00    +0.008 A 
ATOM     19  C   UNL     1      -2.691  -3.858  -1.241  0.00  0.00    +0.046 C 
ATOM     20  C   UNL     1       2.059  -2.999   0.129  0.00  0.00    +0.046 C 
ENDBRANCH  10  16
ENDBRANCH   7  10
ENDBRANCH   1   7
BRANCH   4  21
ATOM     21  N   UNL     1      -5.449  -3.503   3.747  0.00  0.00    -0.297 N 
ATOM     22  H   UNL     1      -5.881  -4.079   4.397  0.00  0.00    +0.154 HD
BRANCH  21  23
ATOM     23  C   UNL     1      -6.051  -2.364   3.350  0.00  0.00    +0.135 C 
ATOM     24  S   UNL     1      -5.361  -1.422   2.099  0.00  0.00    -0.019 S 
BRANCH  23  25
ATOM     25  N   UNL     1      -7.197  -1.968   3.938  0.00  0.00    -0.323 N 
ATOM     26  H   UNL     1      -7.588  -2.502   4.647  0.00  0.00    +0.148 HD
BRANCH  25  27
ATOM     27  C   UNL     1      -7.852  -0.730   3.507  0.00  0.00    +0.073 C 
ATOM     28  C   UNL     1      -8.744  -1.019   2.299  0.00  0.00    +0.025 C 
ATOM     29  C   UNL     1      -9.428   0.273   1.849  0.00  0.00    -0.012 C 
ATOM     30  C   UNL     1     -10.281   0.824   2.993  0.00  0.00    +0.009 C 
ATOM     31  C   UNL     1      -9.389   1.113   4.201  0.00  0.00    -0.033 C 
ATOM     32  C   UNL     1      -8.705  -0.179   4.651  0.00  0.00    +0.028 C 
ATOM     33  C   UNL     1     -10.242   1.664   5.345  0.00  0.00    +0.011 C 
ATOM     34  C   UNL     1      -8.326   2.144   3.815  0.00  0.00    +0.011 C 
ATOM     35  C   UNL     1     -10.320  -0.016   0.640  0.00  0.00    +0.007 C 
ENDBRANCH  25  27
ENDBRANCH  23  25
ENDBRANCH  21  23
ENDBRANCH   4  21
TORSDOF 7
