REMARK  Name = ZINC40291963
REMARK  7 active torsions:
REMARK  status: ('A' for Active; 'I' for Inactive)
REMARK    1  A    between atoms: C_1  and  C_2
REMARK    2  A    between atoms: C_3  and  C_22
REMARK    3  A    between atoms: C_6  and  O_12
REMARK    4  A    between atoms: C_7  and  C_8
REMARK    5  A    between atoms: N_9  and  O_10
REMARK    6  A    between atoms: O_12  and  C_13
REMARK    7  A    between atoms: C_18  and  C_21
REMARK                            x       y       z     vdW  Elec       q    Type
REMARK                         _______ _______ _______ _____ _____    ______ ____
ROOT
ATOM      1  C   UNL     1      -0.018   1.503   0.010  0.00  0.00    +0.046 C 
ATOM      2  C   UNL     1       0.002  -0.004   0.002  0.00  0.00    -0.012 A 
ATOM      3  C   UNL     1       0.006  -0.712  -1.188  0.00  0.00    +0.064 A 
ATOM      4  N   UNL     1       0.024  -2.031  -1.174  0.00  0.00    -0.151 NA
ATOM      5  N   UNL     1       0.038  -2.710  -0.086  0.00  0.00    -0.111 NA
ATOM      6  C   UNL     1       0.036  -2.134   1.106  0.00  0.00    +0.246 A 
ATOM      7  C   UNL     1       0.023  -0.733   1.197  0.00  0.00    +0.085 A 
ATOM      8  C   UNL     1      -0.010   0.025  -2.502  0.00  0.00    +0.068 C 
ENDROOT
BRANCH   7   9
ATOM      9  C   UNL     1       0.027  -0.050   2.510  0.00  0.00    +0.168 C 
ATOM     10  N   UNL     1      -1.098   0.234   3.098  0.00  0.00    -0.071 NA
ATOM     11  N   UNL     1       1.227   0.285   3.113  0.00  0.00    -0.340 N 
ATOM     12  H   UNL     1       2.066   0.073   2.675  0.00  0.00    +0.144 HD
ATOM     13  H   UNL     1       1.229   0.733   3.974  0.00  0.00    +0.144 HD
BRANCH  10  14
ATOM     14  O   UNL     1      -1.095   0.887   4.354  0.00  0.00    -0.408 OA
ATOM     15  H   UNL     1      -1.978   1.057   4.712  0.00  0.00    +0.328 HD
ENDBRANCH  10  14
ENDBRANCH   7   9
BRANCH   6  16
ATOM     16  O   UNL     1       0.051  -2.891   2.230  0.00  0.00    -0.472 OA
BRANCH  16  17
ATOM     17  C   UNL     1       0.069  -4.309   2.057  0.00  0.00    +0.175 C 
ATOM     18  C   UNL     1      -1.367  -4.835   2.002  0.00  0.00    +0.044 C 
ATOM     19  C   UNL     1      -2.086  -4.489   3.307  0.00  0.00    +0.004 C 
ATOM     20  C   UNL     1      -1.351  -5.137   4.482  0.00  0.00    +0.003 C 
ATOM     21  C   UNL     1       0.085  -4.612   4.537  0.00  0.00    -0.011 C 
ATOM     22  C   UNL     1       0.805  -4.957   3.232  0.00  0.00    +0.048 C 
ATOM     23  C   UNL     1       0.821  -5.260   5.712  0.00  0.00    +0.007 C 
ENDBRANCH  16  17
ENDBRANCH   6  16
TORSDOF 4
