REMARK  Name = ZINC35397563
REMARK  5 active torsions:
REMARK  status: ('A' for Active; 'I' for Inactive)
REMARK    1  A    between atoms: C_6  and  S_7
REMARK    2  A    between atoms: S_7  and  N_10
REMARK    3  A    between atoms: N_10  and  C_11
REMARK    4  A    between atoms: C_13  and  C_29
REMARK    5  A    between atoms: C_20  and  N_23
REMARK                            x       y       z     vdW  Elec       q    Type
REMARK                         _______ _______ _______ _____ _____    ______ ____
ROOT
ATOM      1  C   UNL     1      -3.045  -1.985  -1.906  0.00  0.00    +0.091 A 
ATOM      2  C   UNL     1      -3.165  -3.364  -2.008  0.00  0.00    +0.046 A 
ATOM      3  C   UNL     1      -4.437  -3.905  -2.240  0.00  0.00    +0.103 A 
ATOM      4  C   UNL     1      -5.534  -3.032  -2.358  0.00  0.00    +0.113 A 
ATOM      5  N   UNL     1      -5.364  -1.724  -2.253  0.00  0.00    -0.347 N 
ATOM      6  C   UNL     1      -4.179  -1.191  -2.030  0.00  0.00    +0.110 A 
ATOM      7  N   UNL     1      -6.798  -3.545  -2.587  0.00  0.00    -0.316 N 
ATOM      8  C   UNL     1      -7.252  -3.837  -3.954  0.00  0.00    +0.105 C 
ATOM      9  C   UNL     1      -8.584  -3.121  -4.196  0.00  0.00    +0.004 C 
ATOM     10  C   UNL     1      -9.579  -3.521  -3.104  0.00  0.00    -0.066 C 
ATOM     11  C   UNL     1      -9.041  -3.091  -1.738  0.00  0.00    +0.004 C 
ATOM     12  C   UNL     1      -7.712  -3.812  -1.468  0.00  0.00    +0.105 C 
ATOM     13  H   UNL     1      -6.135  -1.141  -2.338  0.00  0.00    +0.167 HD
ENDROOT
BRANCH  10  14
ATOM     14  N   UNL     1     -10.868  -2.861  -3.352  0.00  0.00    +0.382 N 
ATOM     15  C   UNL     1     -11.819  -3.239  -2.300  0.00  0.00    -0.078 C 
ATOM     16  C   UNL     1     -13.138  -2.491  -2.507  0.00  0.00    -0.019 C 
ATOM     17  C   UNL     1     -13.717  -2.859  -3.877  0.00  0.00    -0.004 C 
ATOM     18  C   UNL     1     -12.687  -2.530  -4.960  0.00  0.00    -0.019 C 
ATOM     19  C   UNL     1     -11.384  -3.276  -4.662  0.00  0.00    -0.078 C 
ATOM     20  H   UNL     1     -10.740  -1.860  -3.343  0.00  0.00    -0.081 HD
ENDBRANCH  10  14
BRANCH   3  21
ATOM     21  C   UNL     1      -4.622  -5.359  -2.357  0.00  0.00    +0.390 C 
ATOM     22  O   UNL     1      -3.650  -6.101  -2.359  0.00  0.00    -0.240 OA
ATOM     23  O   UNL     1      -5.749  -5.827  -2.453  0.00  0.00    -0.240 OA
ENDBRANCH   3  21
BRANCH   1  24
ATOM     24  N   UNL     1      -1.794  -1.399  -1.676  0.00  0.00    -0.096 NA
BRANCH  24  25
ATOM     25  S   UNL     1      -1.660   0.246  -1.549  0.00  0.00    +0.092 S 
ATOM     26  O   UNL     1      -2.359   0.621  -0.369  0.00  0.00    -0.148 OA
ATOM     27  O   UNL     1      -1.981   0.780  -2.826  0.00  0.00    -0.148 OA
BRANCH  25  33
ATOM     28  C   UNL     1       0.888   0.830  -2.332  0.00  0.00    +0.032 A 
ATOM     29  C   UNL     1       2.222   1.116  -2.111  0.00  0.00    +0.043 A 
ATOM     30  C   UNL     1       2.710   1.183  -0.818  0.00  0.00    +0.159 A 
ATOM     31  C   UNL     1       1.859   0.963   0.255  0.00  0.00    +0.160 A 
ATOM     32  C   UNL     1       0.524   0.677   0.030  0.00  0.00    +0.070 A 
ATOM     33  C   UNL     1       0.040   0.611  -1.263  0.00  0.00    +0.113 A 
ATOM     34  F   UNL     1       2.333   1.028   1.518  0.00  0.00    -0.202 F 
ATOM     35  F   UNL     1       4.014   1.462  -0.601  0.00  0.00    -0.202 F 
ENDBRANCH  25  33
ENDBRANCH  24  25
ENDBRANCH   1  24
TORSDOF 5
