REMARK  Name = ZINC61827665
REMARK  8 active torsions:
REMARK  status: ('A' for Active; 'I' for Inactive)
REMARK    1  A    between atoms: C_1  and  C_2
REMARK    2  A    between atoms: C_7  and  N_10
REMARK    3  A    between atoms: C_14  and  C_16
REMARK    4  A    between atoms: C_16  and  C_17
REMARK    5  A    between atoms: C_17  and  C_18
REMARK    6  A    between atoms: C_17  and  C_19
REMARK    7  A    between atoms: C_17  and  C_20
REMARK    8  A    between atoms: C_20  and  C_21
REMARK                            x       y       z     vdW  Elec       q    Type
REMARK                         _______ _______ _______ _____ _____    ______ ____
ROOT
ATOM      1  N   UNL     1       1.471  -2.526   2.420  0.00  0.00    -0.296 N 
ATOM      2  C   UNL     1       2.056  -3.740   2.406  0.00  0.00    +0.306 C 
ATOM      3  O   UNL     1       1.996  -4.432   1.409  0.00  0.00    -0.252 OA
ATOM      4  N   UNL     1       2.708  -4.187   3.498  0.00  0.00    -0.240 N 
ATOM      5  C   UNL     1       3.293  -5.401   3.484  0.00  0.00    +0.221 C 
ATOM      6  O   UNL     1       3.233  -6.091   2.489  0.00  0.00    -0.275 OA
ATOM      7  H   UNL     1       1.520  -1.974   3.216  0.00  0.00    +0.151 HD
ATOM      8  H   UNL     1       2.756  -3.634   4.294  0.00  0.00    +0.159 HD
ENDROOT
BRANCH   1  14
ATOM      9  C   UNL     1      -0.019   1.526   0.010  0.00  0.00    +0.007 C 
ATOM     10  C   UNL     1       0.002  -0.004   0.002  0.00  0.00    -0.012 C 
ATOM     11  C   UNL     1      -1.433  -0.534   0.013  0.00  0.00    +0.003 C 
ATOM     12  C   UNL     1      -1.413  -2.063   0.004  0.00  0.00    +0.002 C 
ATOM     13  C   UNL     1      -0.673  -2.570   1.244  0.00  0.00    +0.022 C 
ATOM     14  C   UNL     1       0.763  -2.041   1.233  0.00  0.00    +0.075 C 
ATOM     15  C   UNL     1       0.742  -0.511   1.242  0.00  0.00    +0.025 C 
ENDBRANCH   1  14
BRANCH   5  16
ATOM     16  C   UNL     1       4.022  -5.900   4.705  0.00  0.00    +0.103 C 
BRANCH  16  17
ATOM     17  C   UNL     1       4.589  -7.293   4.426  0.00  0.00    -0.016 C 
ATOM     18  C   UNL     1       3.445  -8.251   4.088  0.00  0.00    +0.012 C 
ATOM     19  C   UNL     1       5.560  -7.222   3.246  0.00  0.00    +0.012 C 
BRANCH  17  20
ATOM     20  C   UNL     1       5.329  -7.800   5.666  0.00  0.00    +0.132 C 
BRANCH  20  21
ATOM     21  C   UNL     1       5.887  -9.173   5.391  0.00  0.00    +0.357 C 
ATOM     22  O   UNL     1       5.710  -9.697   4.305  0.00  0.00    -0.246 OA
ATOM     23  O   UNL     1       6.517  -9.759   6.255  0.00  0.00    -0.246 OA
ENDBRANCH  20  21
ENDBRANCH  17  20
ENDBRANCH  16  17
ENDBRANCH   5  16
TORSDOF 5
