REMARK  Name = ZINC42420884
REMARK  5 active torsions:
REMARK  status: ('A' for Active; 'I' for Inactive)
REMARK    1  A    between atoms: C_1  and  N_2
REMARK    2  A    between atoms: C_3  and  C_5
REMARK    3  A    between atoms: N_11  and  C_12
REMARK    4  A    between atoms: C_15  and  C_19
REMARK    5  A    between atoms: C_17  and  N_18
REMARK                            x       y       z     vdW  Elec       q    Type
REMARK                         _______ _______ _______ _____ _____    ______ ____
ROOT
ATOM      1  C   UNL     1       1.503  -1.751  -3.314  0.00  0.00    +0.051 A 
ATOM      2  C   UNL     1       2.759  -1.167  -3.370  0.00  0.00    +0.025 A 
ATOM      3  C   UNL     1       3.064  -0.280  -4.386  0.00  0.00    +0.014 A 
ATOM      4  C   UNL     1       2.120   0.027  -5.348  0.00  0.00    +0.057 A 
ATOM      5  C   UNL     1       0.865  -0.551  -5.300  0.00  0.00    +0.037 A 
ATOM      6  C   UNL     1       0.552  -1.445  -4.288  0.00  0.00    +0.046 A 
ENDROOT
BRANCH   1  12
ATOM      7  C   UNL     1       0.606  -2.171  -1.026  0.00  0.00    +0.159 C 
ATOM      8  C   UNL     1       1.457  -2.680   0.141  0.00  0.00    +0.032 C 
ATOM      9  C   UNL     1       1.589  -4.202   0.046  0.00  0.00    +0.004 C 
ATOM     10  C   UNL     1       2.290  -4.574  -1.262  0.00  0.00    +0.019 C 
ATOM     11  C   UNL     1       1.448  -4.087  -2.445  0.00  0.00    +0.106 C 
ATOM     12  N   UNL     1       1.191  -2.649  -2.286  0.00  0.00    -0.317 N 
BRANCH   7  15
ATOM     13  C   UNL     1      -0.505   1.457  -0.521  0.00  0.00    +0.128 C 
ATOM     14  N   UNL     1      -0.486  -0.008  -0.529  0.00  0.00    -0.317 N 
ATOM     15  C   UNL     1       0.585  -0.664  -1.018  0.00  0.00    +0.233 C 
ATOM     16  O   UNL     1       1.532  -0.043  -1.451  0.00  0.00    -0.274 OA
ATOM     17  H   UNL     1      -1.243  -0.505  -0.183  0.00  0.00    +0.148 HD
ENDBRANCH   7  15
ENDBRANCH   1  12
BRANCH   4  18
ATOM     18  C   UNL     1       2.460   0.994  -6.453  0.00  0.00    +0.417 C 
ATOM     19  F   UNL     1       3.775   1.443  -6.292  0.00  0.00    -0.166 F 
ATOM     20  F   UNL     1       2.334   0.353  -7.690  0.00  0.00    -0.166 F 
ATOM     21  F   UNL     1       1.585   2.085  -6.402  0.00  0.00    -0.166 F 
ENDBRANCH   4  18
BRANCH   6  22
ATOM     22  N   UNL     1      -0.717  -2.036  -4.240  0.00  0.00    -0.357 N 
ATOM     23  H   UNL     1      -0.936  -2.658  -3.529  0.00  0.00    +0.142 HD
ATOM     24  H   UNL     1      -1.377  -1.822  -4.917  0.00  0.00    +0.142 HD
ENDBRANCH   6  22
TORSDOF 4
