REMARK  Name = ZINC39656934
REMARK  6 active torsions:
REMARK  status: ('A' for Active; 'I' for Inactive)
REMARK    1  A    between atoms: C_1  and  C_2
REMARK    2  A    between atoms: C_2  and  C_4
REMARK    3  A    between atoms: C_2  and  N_11
REMARK    4  A    between atoms: C_12  and  C_14
REMARK    5  A    between atoms: C_25  and  C_27
REMARK    6  A    between atoms: C_27  and  C_28
REMARK                            x       y       z     vdW  Elec       q    Type
REMARK                         _______ _______ _______ _____ _____    ______ ____
ROOT
ATOM      1  C   UNL     1      -3.465  -1.164  -1.134  0.00  0.00    +0.100 C 
ATOM      2  C   UNL     1      -3.486  -2.652  -0.717  0.00  0.00    +0.121 C 
ATOM      3  N   UNL     1      -4.545  -3.261  -1.556  0.00  0.00    -0.300 N 
ATOM      4  C   UNL     1      -4.384  -2.614  -2.880  0.00  0.00    +0.115 C 
ATOM      5  C   UNL     1      -4.054  -1.143  -2.554  0.00  0.00    -0.004 C 
ATOM      6  C   UNL     1      -3.027  -0.602  -3.545  0.00  0.00    -0.010 C 
ATOM      7  C   UNL     1      -3.655  -0.536  -4.939  0.00  0.00    -0.082 C 
ATOM      8  N   UNL     1      -4.838   0.334  -4.905  0.00  0.00    +0.379 N 
ATOM      9  C   UNL     1      -5.858  -0.244  -4.021  0.00  0.00    -0.082 C 
ATOM     10  C   UNL     1      -5.323  -0.297  -2.587  0.00  0.00    -0.010 C 
ATOM     11  C   UNL     1      -5.451  -4.192  -1.196  0.00  0.00    +0.220 C 
ATOM     12  O   UNL     1      -6.261  -4.594  -2.005  0.00  0.00    -0.275 OA
ATOM     13  H   UNL     1      -4.574   1.245  -4.561  0.00  0.00    -0.086 HD
ATOM     14  H   UNL     1      -5.214   0.424  -5.837  0.00  0.00    -0.086 HD
ENDROOT
BRANCH   1  16
ATOM     15  N   UNL     1      -1.812   0.661  -0.903  0.00  0.00    -0.308 N 
ATOM     16  C   UNL     1      -2.051  -0.643  -1.145  0.00  0.00    +0.219 C 
ATOM     17  O   UNL     1      -1.128  -1.397  -1.371  0.00  0.00    -0.275 OA
ATOM     18  H   UNL     1      -2.550   1.264  -0.722  0.00  0.00    +0.149 HD
BRANCH  15  20
ATOM     19  C   UNL     1      -0.031   1.511  -2.348  0.00  0.00    +0.033 C 
ATOM     20  C   UNL     1      -0.438   1.169  -0.913  0.00  0.00    +0.100 C 
BRANCH  20  21
ATOM     21  C   UNL     1      -0.352   2.406  -0.058  0.00  0.00    -0.027 A 
ATOM     22  C   UNL     1      -1.375   3.336  -0.083  0.00  0.00    +0.006 A 
ATOM     23  C   UNL     1      -1.298   4.471   0.701  0.00  0.00    +0.015 A 
ATOM     24  C   UNL     1      -0.196   4.677   1.512  0.00  0.00    +0.018 A 
ATOM     25  C   UNL     1       0.827   3.747   1.538  0.00  0.00    +0.015 A 
ATOM     26  C   UNL     1       0.746   2.609   0.756  0.00  0.00    +0.006 A 
ATOM     27 BR   UNL     1      -0.089   6.230   2.586  0.00  0.00    -0.050 Br
ENDBRANCH  20  21
ENDBRANCH  15  20
ENDBRANCH   1  16
BRANCH  11  28
ATOM     28  C   UNL     1      -5.457  -4.733   0.210  0.00  0.00    +0.131 C 
BRANCH  28  29
ATOM     29  C   UNL     1      -6.559  -5.752   0.351  0.00  0.00    -0.039 A 
ATOM     30  C   UNL     1      -7.824  -5.353   0.740  0.00  0.00    +0.005 A 
ATOM     31  C   UNL     1      -8.834  -6.287   0.869  0.00  0.00    +0.020 A 
ATOM     32  C   UNL     1      -8.579  -7.622   0.610  0.00  0.00    +0.041 A 
ATOM     33  C   UNL     1      -7.313  -8.021   0.221  0.00  0.00    +0.020 A 
ATOM     34  C   UNL     1      -6.304  -7.085   0.086  0.00  0.00    +0.005 A 
ATOM     35 CL   UNL     1      -9.847  -8.796   0.773  0.00  0.00    -0.084 Cl
ENDBRANCH  28  29
ENDBRANCH  11  28
TORSDOF 5
