REMARK  Name = ZINC33306582
REMARK  9 active torsions:
REMARK  status: ('A' for Active; 'I' for Inactive)
REMARK    1  A    between atoms: C_1  and  C_2
REMARK    2  A    between atoms: C_2  and  C_3
REMARK    3  A    between atoms: N_5  and  C_6
REMARK    4  A    between atoms: C_7  and  C_29
REMARK    5  A    between atoms: C_10  and  C_11
REMARK    6  A    between atoms: C_12  and  C_13
REMARK    7  A    between atoms: C_16  and  S_18
REMARK    8  A    between atoms: S_18  and  N_21
REMARK    9  A    between atoms: N_21  and  C_22
REMARK                            x       y       z     vdW  Elec       q    Type
REMARK                         _______ _______ _______ _____ _____    ______ ____
ROOT
ATOM      1  C   UNL     1      -4.929   1.680  -2.438  0.00  0.00    +0.014 A 
ATOM      2  C   UNL     1      -4.543   0.811  -3.447  0.00  0.00    +0.017 A 
ATOM      3  C   UNL     1      -3.201   0.567  -3.620  0.00  0.00    +0.037 A 
ATOM      4  C   UNL     1      -2.304   1.171  -2.797  0.00  0.00    +0.148 A 
ATOM      5  S   UNL     1      -3.356   2.141  -1.731  0.00  0.00    -0.069 S 
ENDROOT
BRANCH   4   6
ATOM      6  S   UNL     1      -0.547   1.036  -2.790  0.00  0.00    +0.098 S 
ATOM      7  O   UNL     1      -0.227  -0.141  -3.520  0.00  0.00    -0.148 OA
ATOM      8  O   UNL     1      -0.130   1.235  -1.446  0.00  0.00    -0.148 OA
BRANCH   6   9
ATOM      9  N   UNL     1       0.046   2.311  -3.664  0.00  0.00    -0.097 NA
BRANCH   9  10
ATOM     10  C   UNL     1      -0.212   2.399  -5.034  0.00  0.00    +0.075 A 
ATOM     11  C   UNL     1      -0.648   3.598  -5.584  0.00  0.00    +0.027 A 
ATOM     12  C   UNL     1      -0.902   3.682  -6.939  0.00  0.00    +0.003 A 
ATOM     13  C   UNL     1      -0.722   2.575  -7.748  0.00  0.00    +0.015 A 
ATOM     14  C   UNL     1      -0.287   1.380  -7.204  0.00  0.00    +0.020 A 
ATOM     15  C   UNL     1      -0.027   1.290  -5.849  0.00  0.00    +0.042 A 
ATOM     16 BR   UNL     1      -0.041  -0.131  -8.315  0.00  0.00    -0.050 Br
ENDBRANCH   9  10
ENDBRANCH   6   9
ENDBRANCH   4   6
BRANCH   1  18
ATOM     17  C   UNL     1      -6.441   2.974  -1.028  0.00  0.00    +0.052 C 
ATOM     18  C   UNL     1      -6.274   2.108  -2.054  0.00  0.00    +0.019 C 
BRANCH  17  23
ATOM     19  C   UNL     1      -8.106   4.277   0.378  0.00  0.00    +0.103 A 
ATOM     20  C   UNL     1      -9.505   4.409   0.401  0.00  0.00    +0.102 A 
ATOM     21  N   UNL     1     -10.004   3.663  -0.545  0.00  0.00    -0.081 NA
ATOM     22  O   UNL     1      -8.942   3.020  -1.225  0.00  0.00    -0.353 OA
ATOM     23  C   UNL     1      -7.785   3.402  -0.644  0.00  0.00    +0.182 A 
ATOM     24  C   UNL     1     -10.293   5.266   1.356  0.00  0.00    +0.071 C 
BRANCH  19  27
ATOM     25  C   UNL     1      -7.311   6.240   1.469  0.00  0.00    +0.217 C 
ATOM     26  O   UNL     1      -8.258   6.855   1.027  0.00  0.00    -0.275 OA
ATOM     27  N   UNL     1      -7.199   4.917   1.236  0.00  0.00    -0.281 N 
ATOM     28  H   UNL     1      -6.397   4.340   1.718  0.00  0.00    +0.155 HD
BRANCH  25  30
ATOM     29  C   UNL     1      -6.624   8.435   2.394  0.00  0.00    +0.013 C 
ATOM     30  C   UNL     1      -6.260   6.954   2.280  0.00  0.00    +0.093 C 
ENDBRANCH  25  30
ENDBRANCH  19  27
ENDBRANCH  17  23
ENDBRANCH   1  18
TORSDOF 7
