REMARK  Name = ZINC67254966
REMARK  7 active torsions:
REMARK  status: ('A' for Active; 'I' for Inactive)
REMARK    1  A    between atoms: C_1  and  N_2
REMARK    2  A    between atoms: C_3  and  C_5
REMARK    3  A    between atoms: C_8  and  N_11
REMARK    4  A    between atoms: N_14  and  C_15
REMARK    5  A    between atoms: C_15  and  C_16
REMARK    6  A    between atoms: C_16  and  C_19
REMARK    7  A    between atoms: C_23  and  C_25
REMARK                            x       y       z     vdW  Elec       q    Type
REMARK                         _______ _______ _______ _____ _____    ______ ____
ROOT
ATOM      1  N   UNL     1      -1.067  -6.341  -0.023  0.00  0.00    -0.269 N 
ATOM      2  C   UNL     1      -2.222  -7.027   0.081  0.00  0.00    +0.304 C 
ATOM      3  O   UNL     1      -3.283  -6.434   0.089  0.00  0.00    -0.253 OA
ATOM      4  N   UNL     1      -2.200  -8.372   0.177  0.00  0.00    -0.298 N 
ATOM      5  H   UNL     1      -0.225  -6.816  -0.096  0.00  0.00    +0.156 HD
ATOM      6  H   UNL     1      -1.354  -8.845   0.170  0.00  0.00    +0.150 HD
ENDROOT
BRANCH   1  10
ATOM      7  C   UNL     1      -1.114  -2.176  -0.035  0.00  0.00    +0.037 A 
ATOM      8  C   UNL     1      -2.152  -2.889  -0.640  0.00  0.00    +0.015 A 
ATOM      9  C   UNL     1      -2.133  -4.266  -0.634  0.00  0.00    +0.024 A 
ATOM     10  C   UNL     1      -1.083  -4.947  -0.027  0.00  0.00    +0.035 A 
ATOM     11  C   UNL     1      -0.048  -4.239   0.577  0.00  0.00    +0.024 A 
ATOM     12  C   UNL     1      -0.057  -2.862   0.570  0.00  0.00    +0.015 A 
BRANCH   7  15
ATOM     13  C   UNL     1      -2.166   1.426  -0.627  0.00  0.00    +0.128 C 
ATOM     14  N   UNL     1      -2.150  -0.039  -0.623  0.00  0.00    -0.314 N 
ATOM     15  C   UNL     1      -1.130  -0.700  -0.039  0.00  0.00    +0.244 C 
ATOM     16  O   UNL     1      -0.224  -0.080   0.483  0.00  0.00    -0.270 OA
ATOM     17  H   UNL     1      -2.873  -0.533  -1.039  0.00  0.00    +0.149 HD
ENDBRANCH   7  15
ENDBRANCH   1  10
BRANCH   4  18
ATOM     18  C   UNL     1      -3.456  -9.118   0.290  0.00  0.00    +0.117 C 
BRANCH  18  19
ATOM     19  C   UNL     1      -3.150 -10.601   0.508  0.00  0.00    +0.011 C 
ATOM     20  C   UNL     1      -3.929 -11.614  -0.333  0.00  0.00    +0.014 C 
ATOM     21  C   UNL     1      -2.450 -11.352  -0.627  0.00  0.00    +0.014 C 
BRANCH  19  22
ATOM     22  C   UNL     1      -2.799 -10.992   1.921  0.00  0.00    -0.039 A 
ATOM     23  C   UNL     1      -1.530 -11.457   2.215  0.00  0.00    +0.004 A 
ATOM     24  C   UNL     1      -1.209 -11.815   3.510  0.00  0.00    +0.001 A 
ATOM     25  C   UNL     1      -2.155 -11.708   4.513  0.00  0.00    +0.012 A 
ATOM     26  C   UNL     1      -3.423 -11.242   4.219  0.00  0.00    +0.055 A 
ATOM     27  C   UNL     1      -3.743 -10.879   2.924  0.00  0.00    +0.016 A 
BRANCH  26  28
ATOM     28  C   UNL     1      -4.455 -11.125   5.311  0.00  0.00    +0.417 C 
ATOM     29  F   UNL     1      -3.898 -11.543   6.525  0.00  0.00    -0.166 F 
ATOM     30  F   UNL     1      -4.868  -9.793   5.422  0.00  0.00    -0.166 F 
ATOM     31  F   UNL     1      -5.556 -11.930   5.000  0.00  0.00    -0.166 F 
ENDBRANCH  26  28
ENDBRANCH  19  22
ENDBRANCH  18  19
ENDBRANCH   4  18
TORSDOF 6
