REMARK  Name = ZINC02962919
REMARK  9 active torsions:
REMARK  status: ('A' for Active; 'I' for Inactive)
REMARK    1  A    between atoms: C_1  and  C_2
REMARK    2  A    between atoms: C_5  and  N_8
REMARK    3  A    between atoms: C_16  and  O_36
REMARK    4  A    between atoms: C_21  and  C_35
REMARK    5  A    between atoms: C_22  and  C_24
REMARK    6  A    between atoms: N_26  and  C_27
REMARK    7  A    between atoms: C_30  and  C_34
REMARK    8  A    between atoms: C_32  and  C_33
REMARK    9  A    between atoms: O_36  and  C_37
REMARK                            x       y       z     vdW  Elec       q    Type
REMARK                         _______ _______ _______ _____ _____    ______ ____
ROOT
ATOM      1  N   UNL     1      -0.599   2.740   0.317  0.00  0.00    -0.243 N 
ATOM      2  C   UNL     1      -1.313   1.641   0.031  0.00  0.00    +0.141 C 
ATOM      3  S   UNL     1      -0.514   0.128  -0.016  0.00  0.00    -0.018 S 
ATOM      4  N   UNL     1      -2.633   1.683  -0.216  0.00  0.00    -0.318 N 
ATOM      5  C   UNL     1      -3.326   2.981  -0.263  0.00  0.00    +0.123 C 
ATOM      6  C   UNL     1      -3.038   3.597  -1.613  0.00  0.00    +0.019 A 
ATOM      7  C   UNL     1      -3.864   3.289  -2.679  0.00  0.00    +0.054 A 
ATOM      8  C   UNL     1      -3.612   3.824  -3.933  0.00  0.00    +0.121 A 
ATOM      9  C   UNL     1      -2.530   4.672  -4.115  0.00  0.00    +0.049 A 
ATOM     10  C   UNL     1      -1.709   4.983  -3.051  0.00  0.00    +0.049 A 
ATOM     11  C   UNL     1      -1.962   4.449  -1.791  0.00  0.00    +0.129 A 
ATOM     12  O   UNL     1      -1.136   4.786  -0.766  0.00  0.00    -0.467 OA
ATOM     13  C   UNL     1      -1.222   4.054   0.453  0.00  0.00    +0.194 C 
ATOM     14  C   UNL     1      -2.703   3.879   0.819  0.00  0.00    +0.163 C 
ATOM     15  C   UNL     1      -0.520   4.836   1.565  0.00  0.00    +0.079 C 
ATOM     16  H   UNL     1      -3.196   0.753  -0.382  0.00  0.00    +0.148 HD
ENDROOT
BRANCH   1  21
ATOM     17  C   UNL     1       5.013   2.259   0.989  0.00  0.00    +0.044 C 
ATOM     18  C   UNL     1       3.522   2.388   0.811  0.00  0.00    -0.050 A 
ATOM     19  C   UNL     1       2.668   1.958   1.810  0.00  0.00    +0.005 A 
ATOM     20  C   UNL     1       1.301   2.075   1.650  0.00  0.00    +0.024 A 
ATOM     21  C   UNL     1       0.785   2.626   0.485  0.00  0.00    +0.039 A 
ATOM     22  C   UNL     1       1.645   3.056  -0.517  0.00  0.00    +0.024 A 
ATOM     23  C   UNL     1       3.011   2.936  -0.351  0.00  0.00    +0.005 A 
ENDBRANCH   1  21
BRANCH  14  24
ATOM     24  C   UNL     1      -2.826   3.220   2.168  0.00  0.00    +0.228 C 
ATOM     25  O   UNL     1      -1.939   2.497   2.573  0.00  0.00    -0.275 OA
ATOM     26  N   UNL     1      -3.920   3.433   2.926  0.00  0.00    -0.285 N 
ATOM     27  H   UNL     1      -4.685   4.152   2.597  0.00  0.00    +0.155 HD
BRANCH  26  28
ATOM     28  C   UNL     1      -4.084   2.738   4.129  0.00  0.00    +0.036 A 
ATOM     29  C   UNL     1      -3.396   1.552   4.348  0.00  0.00    +0.024 A 
ATOM     30  C   UNL     1      -3.559   0.869   5.537  0.00  0.00    +0.005 A 
ATOM     31  C   UNL     1      -4.409   1.365   6.509  0.00  0.00    -0.050 A 
ATOM     32  C   UNL     1      -5.096   2.546   6.295  0.00  0.00    +0.008 A 
ATOM     33  C   UNL     1      -4.931   3.236   5.110  0.00  0.00    -0.029 A 
ATOM     34  C   UNL     1      -5.676   4.526   4.880  0.00  0.00    +0.045 C 
ATOM     35  C   UNL     1      -4.586   0.617   7.806  0.00  0.00    +0.044 C 
ENDBRANCH  26  28
ENDBRANCH  14  24
BRANCH   8  36
ATOM     36  O   UNL     1      -4.424   3.519  -4.980  0.00  0.00    -0.495 OA
ATOM     37  C   UNL     1      -4.103   4.107  -6.242  0.00  0.00    +0.277 C 
ENDBRANCH   8  36
TORSDOF 4
