REMARK  Name = ZINC02677911
REMARK  6 active torsions:
REMARK  status: ('A' for Active; 'I' for Inactive)
REMARK    1  A    between atoms: C_6  and  C_7
REMARK    2  A    between atoms: C_10  and  C_12
REMARK    3  A    between atoms: C_13  and  C_14
REMARK    4  A    between atoms: C_13  and  N_25
REMARK    5  A    between atoms: N_16  and  C_17
REMARK    6  A    between atoms: C_26  and  C_28
REMARK                            x       y       z     vdW  Elec       q    Type
REMARK                         _______ _______ _______ _____ _____    ______ ____
ROOT
ATOM      1  C   UNL     1      -4.558  -0.871   0.322  0.00  0.00    +0.074 C 
ATOM      2  C   UNL     1      -5.344   0.238   0.396  0.00  0.00    +0.100 C 
ENDROOT
BRANCH   1   6
ATOM      3  C   UNL     1      -1.151   0.165   0.103  0.00  0.00    +0.136 A 
ATOM      4  C   UNL     1      -0.982  -1.184  -0.032  0.00  0.00    +0.050 A 
ATOM      5  C   UNL     1      -2.251  -1.766   0.032  0.00  0.00    +0.050 A 
ATOM      6  C   UNL     1      -3.155  -0.735   0.206  0.00  0.00    +0.131 A 
ATOM      7  O   UNL     1      -2.464   0.423   0.251  0.00  0.00    -0.455 OA
BRANCH   3  13
ATOM      8  C   UNL     1      -0.384   2.533   0.135  0.00  0.00    +0.013 A 
ATOM      9  C   UNL     1       0.629   3.469   0.127  0.00  0.00    +0.021 A 
ATOM     10  C   UNL     1       1.952   3.062   0.079  0.00  0.00    +0.041 A 
ATOM     11  C   UNL     1       2.267   1.714   0.038  0.00  0.00    +0.021 A 
ATOM     12  C   UNL     1       1.264   0.768   0.046  0.00  0.00    +0.013 A 
ATOM     13  C   UNL     1      -0.073   1.172   0.094  0.00  0.00    +0.017 A 
ATOM     14 CL   UNL     1       3.221   4.247   0.069  0.00  0.00    -0.084 Cl
ENDBRANCH   3  13
ENDBRANCH   1   6
BRANCH   2  15
ATOM     15  C   UNL     1      -4.749   1.569   0.262  0.00  0.00    +0.259 C 
ATOM     16  O   UNL     1      -4.583   2.054  -0.842  0.00  0.00    -0.269 OA
ATOM     17  N   UNL     1      -4.383   2.258   1.362  0.00  0.00    -0.306 N 
ATOM     18  H   UNL     1      -4.445   1.843   2.237  0.00  0.00    +0.149 HD
BRANCH  17  19
ATOM     19  C   UNL     1      -3.893   3.633   1.236  0.00  0.00    +0.096 C 
ATOM     20  C   UNL     1      -5.079   4.607   1.320  0.00  0.00    +0.046 C 
ATOM     21  C   UNL     1      -4.513   6.045   1.500  0.00  0.00    +0.168 C 
ATOM     22  S   UNL     1      -3.141   5.721   2.686  0.00  0.00    -0.029 S 
ATOM     23  O   UNL     1      -3.623   5.897   4.011  0.00  0.00    -0.174 OA
ATOM     24  O   UNL     1      -1.986   6.432   2.261  0.00  0.00    -0.174 OA
ATOM     25  C   UNL     1      -2.889   3.926   2.376  0.00  0.00    +0.188 C 
ENDBRANCH  17  19
ENDBRANCH   2  15
BRANCH   2  26
ATOM     26  N   UNL     1      -6.722   0.105   0.601  0.00  0.00    -0.277 N 
ATOM     27  C   UNL     1      -7.517   1.193   0.560  0.00  0.00    +0.248 C 
ATOM     28  O   UNL     1      -7.055   2.272   0.244  0.00  0.00    -0.270 OA
ATOM     29  H   UNL     1      -7.105  -0.769   0.772  0.00  0.00    +0.155 HD
BRANCH  27  30
ATOM     30  C   UNL     1      -8.950   1.073   0.899  0.00  0.00    +0.037 A 
ATOM     31  C   UNL     1      -9.482  -0.164   1.268  0.00  0.00    +0.014 A 
ATOM     32  C   UNL     1     -10.821  -0.269   1.584  0.00  0.00    +0.021 A 
ATOM     33  C   UNL     1     -11.636   0.850   1.536  0.00  0.00    +0.041 A 
ATOM     34  C   UNL     1     -11.114   2.079   1.171  0.00  0.00    +0.021 A 
ATOM     35  C   UNL     1      -9.777   2.198   0.858  0.00  0.00    +0.014 A 
ATOM     36 CL   UNL     1     -13.320   0.709   1.935  0.00  0.00    -0.084 Cl
ENDBRANCH  27  30
ENDBRANCH   2  26
TORSDOF 6
