REMARK  Name = ZINC35831005
REMARK  14 active torsions:
REMARK  status: ('A' for Active; 'I' for Inactive)
REMARK    1  A    between atoms: C_1  and  O_2
REMARK    2  A    between atoms: O_2  and  C_3
REMARK    3  A    between atoms: C_6  and  N_11
REMARK    4  A    between atoms: C_8  and  O_9
REMARK    5  A    between atoms: O_9  and  C_10
REMARK    6  A    between atoms: N_11  and  C_12
REMARK    7  A    between atoms: N_11  and  S_29
REMARK    8  A    between atoms: N_15  and  C_18
REMARK    9  A    between atoms: C_18  and  C_19
REMARK   10  A    between atoms: C_21  and  O_27
REMARK   11  A    between atoms: C_23  and  O_25
REMARK   12  A    between atoms: O_25  and  C_26
REMARK   13  A    between atoms: O_27  and  C_28
REMARK   14  A    between atoms: S_29  and  C_32
REMARK                            x       y       z     vdW  Elec       q    Type
REMARK                         _______ _______ _______ _____ _____    ______ ____
ROOT
ATOM      1  N   UNL     1      -4.894  -2.579   0.035  0.00  0.00    -0.200 N 
ENDROOT
BRANCH   1   2
ATOM      2  C   UNL     1      -6.011  -1.936  -0.662  0.00  0.00    +0.095 C 
ATOM      3  C   UNL     1      -6.405  -0.653   0.076  0.00  0.00    +0.006 C 
ATOM      4  C   UNL     1      -7.518   0.054  -0.700  0.00  0.00    -0.077 C 
ATOM      5  N   UNL     1      -7.042   0.389  -2.048  0.00  0.00    +0.382 N 
ATOM      6  C   UNL     1      -6.731  -0.841  -2.786  0.00  0.00    -0.077 C 
ATOM      7  C   UNL     1      -5.588  -1.583  -2.090  0.00  0.00    +0.006 C 
ATOM      8  H   UNL     1      -6.212   0.958  -1.979  0.00  0.00    -0.081 HD
BRANCH   5   9
ATOM      9  C   UNL     1      -8.086   1.136  -2.762  0.00  0.00    -0.043 C 
BRANCH   9  10
ATOM     10  C   UNL     1      -7.556   1.587  -4.099  0.00  0.00    -0.057 A 
ATOM     11  C   UNL     1      -6.920   2.808  -4.213  0.00  0.00    +0.047 A 
ATOM     12  C   UNL     1      -6.431   3.225  -5.443  0.00  0.00    +0.124 A 
ATOM     13  C   UNL     1      -6.581   2.415  -6.558  0.00  0.00    +0.091 A 
ATOM     14  C   UNL     1      -7.220   1.190  -6.441  0.00  0.00    +0.124 A 
ATOM     15  C   UNL     1      -7.702   0.775  -5.208  0.00  0.00    +0.047 A 
BRANCH  14  16
ATOM     16  O   UNL     1      -7.368   0.394  -7.533  0.00  0.00    -0.495 OA
ATOM     17  C   UNL     1      -6.843   0.883  -8.768  0.00  0.00    +0.277 C 
ENDBRANCH  14  16
BRANCH  12  18
ATOM     18  O   UNL     1      -5.806   4.427  -5.554  0.00  0.00    -0.495 OA
ATOM     19  C   UNL     1      -5.328   4.792  -6.850  0.00  0.00    +0.277 C 
ENDBRANCH  12  18
ENDBRANCH   9  10
ENDBRANCH   5   9
ENDBRANCH   1   2
BRANCH   1  23
ATOM     20  C   UNL     1      -1.318  -0.508   0.600  0.00  0.00    +0.162 A 
ATOM     21  C   UNL     1      -2.306  -0.463   1.570  0.00  0.00    +0.051 A 
ATOM     22  C   UNL     1      -3.491  -1.149   1.383  0.00  0.00    +0.028 A 
ATOM     23  C   UNL     1      -3.694  -1.885   0.223  0.00  0.00    +0.055 A 
ATOM     24  C   UNL     1      -2.706  -1.931  -0.751  0.00  0.00    +0.074 A 
ATOM     25  C   UNL     1      -1.520  -1.239  -0.566  0.00  0.00    +0.163 A 
BRANCH  20  27
ATOM     26  C   UNL     1      -0.011   0.898   2.007  0.00  0.00    +0.277 C 
ATOM     27  O   UNL     1      -0.151   0.168   0.786  0.00  0.00    -0.491 OA
ENDBRANCH  20  27
BRANCH  25  28
ATOM     28  O   UNL     1      -0.553  -1.278  -1.521  0.00  0.00    -0.491 OA
ATOM     29  C   UNL     1      -0.829  -2.049  -2.693  0.00  0.00    +0.277 C 
ENDBRANCH  25  28
ENDBRANCH   1  23
BRANCH   1  30
ATOM     30  S   UNL     1      -5.052  -4.127   0.601  0.00  0.00    +0.075 S 
ATOM     31  O   UNL     1      -6.106  -4.726  -0.142  0.00  0.00    -0.150 OA
ATOM     32  O   UNL     1      -3.744  -4.678   0.647  0.00  0.00    -0.150 OA
BRANCH  30  33
ATOM     33  C   UNL     1      -5.611  -4.018   2.269  0.00  0.00    +0.109 A 
ATOM     34  C   UNL     1      -4.695  -3.946   3.301  0.00  0.00    +0.029 A 
ATOM     35  C   UNL     1      -5.134  -3.861   4.610  0.00  0.00    +0.002 A 
ATOM     36  C   UNL     1      -6.488  -3.846   4.885  0.00  0.00    +0.000 A 
ATOM     37  C   UNL     1      -7.404  -3.916   3.852  0.00  0.00    +0.002 A 
ATOM     38  C   UNL     1      -6.966  -3.997   2.544  0.00  0.00    +0.029 A 
ENDBRANCH  30  33
ENDBRANCH   1  30
TORSDOF 10
