REMARK  Name = ZINC23472937
REMARK  8 active torsions:
REMARK  status: ('A' for Active; 'I' for Inactive)
REMARK    1  A    between atoms: C_1  and  C_2
REMARK    2  A    between atoms: C_2  and  C_4
REMARK    3  A    between atoms: C_2  and  S_24
REMARK    4  A    between atoms: C_7  and  C_19
REMARK    5  A    between atoms: C_10  and  C_12
REMARK    6  A    between atoms: S_24  and  C_25
REMARK    7  A    between atoms: C_28  and  C_31
REMARK    8  A    between atoms: N_29  and  N_30
REMARK                            x       y       z     vdW  Elec       q    Type
REMARK                         _______ _______ _______ _____ _____    ______ ____
ROOT
ATOM      1  C   UNL     1       3.205   2.655   2.071  0.00  0.00    +0.249 C 
ATOM      2  O   UNL     1       2.344   2.099   2.720  0.00  0.00    -0.273 OA
ATOM      3  N   UNL     1       3.333   2.392   0.756  0.00  0.00    -0.181 N 
ATOM      4  C   UNL     1       2.499   1.455  -0.015  0.00  0.00    +0.173 C 
ATOM      5  C   UNL     1       3.076   1.546  -1.441  0.00  0.00    +0.090 C 
ATOM      6  C   UNL     1       4.201   2.549  -1.315  0.00  0.00    +0.069 C 
ATOM      7  N   UNL     1       4.276   2.961  -0.097  0.00  0.00    -0.181 NA
ENDROOT
BRANCH   6   8
ATOM      8  C   UNL     1       5.076   2.989  -2.418  0.00  0.00    -0.002 A 
ATOM      9  C   UNL     1       4.903   2.467  -3.702  0.00  0.00    +0.011 A 
ATOM     10  C   UNL     1       5.721   2.886  -4.730  0.00  0.00    +0.020 A 
ATOM     11  C   UNL     1       6.720   3.814  -4.488  0.00  0.00    +0.041 A 
ATOM     12  C   UNL     1       6.901   4.332  -3.216  0.00  0.00    +0.020 A 
ATOM     13  C   UNL     1       6.086   3.925  -2.181  0.00  0.00    +0.011 A 
ATOM     14 CL   UNL     1       7.750   4.333  -5.786  0.00  0.00    -0.084 Cl
ENDBRANCH   6   8
BRANCH   4  15
ATOM     15  C   UNL     1       1.057   1.892   0.002  0.00  0.00    +0.128 A 
ATOM     16  C   UNL     1      -0.013   1.076   0.008  0.00  0.00    +0.046 A 
ATOM     17  C   UNL     1      -1.159   1.903   0.017  0.00  0.00    +0.041 A 
ATOM     18  C   UNL     1      -0.722   3.175   0.026  0.00  0.00    +0.195 A 
ATOM     19  O   UNL     1       0.621   3.162   0.013  0.00  0.00    -0.466 OA
ENDBRANCH   4  15
BRANCH   1  21
ATOM     20  C   UNL     1       3.586   5.059   2.548  0.00  0.00    +0.029 C 
ATOM     21  C   UNL     1       4.131   3.641   2.736  0.00  0.00    +0.139 C 
BRANCH  21  22
ATOM     22  S   UNL     1       4.243   3.267   4.503  0.00  0.00    -0.072 S 
BRANCH  22  23
ATOM     23  C   UNL     1       5.468   4.438   4.986  0.00  0.00    +0.209 A 
ATOM     24  N   UNL     1       6.077   5.297   4.201  0.00  0.00    -0.121 NA
ATOM     25  N   UNL     1       6.909   6.003   4.879  0.00  0.00    -0.126 NA
ATOM     26  C   UNL     1       6.891   5.631   6.140  0.00  0.00    +0.188 A 
ATOM     27  N   UNL     1       5.966   4.616   6.247  0.00  0.00    -0.223 N 
BRANCH  26  28
ATOM     28  C   UNL     1       7.704   6.193   7.231  0.00  0.00    +0.058 A 
ATOM     29  C   UNL     1       8.818   6.991   7.156  0.00  0.00    +0.019 A 
ATOM     30  C   UNL     1       9.418   7.399   8.326  0.00  0.00    +0.008 A 
ATOM     31  C   UNL     1       8.892   7.001   9.514  0.00  0.00    +0.046 A 
ATOM     32  S   UNL     1       7.494   6.020   8.995  0.00  0.00    -0.093 S 
ENDBRANCH  26  28
BRANCH  27  33
ATOM     33  N   UNL     1       5.619   3.931   7.377  0.00  0.00    -0.295 N 
ATOM     34  H   UNL     1       6.098   4.173   8.336  0.00  0.00    +0.163 HD
ATOM     35  H   UNL     1       4.860   3.136   7.326  0.00  0.00    +0.163 HD
ENDBRANCH  27  33
ENDBRANCH  22  23
ENDBRANCH  21  22
ENDBRANCH   1  21
TORSDOF 7
