REMARK  Name = ZINC22996585
REMARK  3 active torsions:
REMARK  status: ('A' for Active; 'I' for Inactive)
REMARK    1  A    between atoms: C_3  and  C_17
REMARK    2  A    between atoms: C_6  and  C_10
REMARK    3  A    between atoms: N_19  and  N_20
REMARK                            x       y       z     vdW  Elec       q    Type
REMARK                         _______ _______ _______ _____ _____    ______ ____
ROOT
ATOM      1  C   UNL     1      -3.673  -1.201   0.013  0.00  0.00    +0.019 A 
ATOM      2  C   UNL     1      -2.454  -0.519   0.011  0.00  0.00    +0.018 A 
ATOM      3  C   UNL     1      -2.452   0.871   0.018  0.00  0.00    +0.081 A 
ATOM      4  C   UNL     1      -3.742   1.567   0.035  0.00  0.00    +0.150 A 
ATOM      5  N   UNL     1      -4.064   2.846   0.037  0.00  0.00    -0.227 NA
ATOM      6  C   UNL     1      -5.404   2.963   0.045  0.00  0.00    +0.090 A 
ATOM      7  C   UNL     1      -5.941   1.713   0.041  0.00  0.00    +0.121 A 
ATOM      8  N   UNL     1      -4.898   0.828   0.031  0.00  0.00    -0.305 N 
ATOM      9  C   UNL     1      -4.848  -0.533   0.023  0.00  0.00    +0.093 A 
ENDROOT
BRANCH   6  10
ATOM     10  C   UNL     1      -6.165   4.237   0.056  0.00  0.00    +0.002 A 
ATOM     11  C   UNL     1      -7.558   4.218   0.058  0.00  0.00    +0.011 A 
ATOM     12  C   UNL     1      -8.261   5.406   0.074  0.00  0.00    +0.016 A 
ATOM     13  C   UNL     1      -7.585   6.613   0.077  0.00  0.00    +0.018 A 
ATOM     14  C   UNL     1      -6.201   6.637   0.070  0.00  0.00    +0.016 A 
ATOM     15  C   UNL     1      -5.489   5.455   0.059  0.00  0.00    +0.011 A 
ATOM     16 BR   UNL     1      -8.555   8.237   0.090  0.00  0.00    -0.050 Br
ENDBRANCH   6  10
BRANCH   3  17
ATOM     17  C   UNL     1      -1.187   1.624   0.017  0.00  0.00    +0.261 C 
ATOM     18  O   UNL     1      -1.204   2.840   0.023  0.00  0.00    -0.269 OA
ATOM     19  N   UNL     1      -0.011   0.966   0.007  0.00  0.00    -0.249 N 
ATOM     20  H   UNL     1       0.004  -0.134   0.006  0.00  0.00    +0.169 HD
BRANCH  19  21
ATOM     21  N   UNL     1       1.163   1.665  -0.000  0.00  0.00    -0.254 NA
ATOM     22  H   UNL     1       2.008   0.962  -0.007  0.00  0.00    +0.140 HD
ATOM     23  H   UNL     1       1.206   2.299  -0.898  0.00  0.00    +0.140 HD
ENDBRANCH  19  21
ENDBRANCH   3  17
TORSDOF 3
