REMARK  Name = ZINC08132043
REMARK  4 active torsions:
REMARK  status: ('A' for Active; 'I' for Inactive)
REMARK    1  A    between atoms: C_4  and  C_7
REMARK    2  A    between atoms: C_7  and  C_26
REMARK    3  A    between atoms: N_10  and  N_14
REMARK    4  A    between atoms: C_15  and  C_17
REMARK                            x       y       z     vdW  Elec       q    Type
REMARK                         _______ _______ _______ _____ _____    ______ ____
ROOT
ATOM      1  C   UNL     1       8.531  -2.084   4.800  0.00  0.00    +0.165 C 
ATOM      2  C   UNL     1       7.268  -1.246   4.812  0.00  0.00    +0.272 C 
ATOM      3  O   UNL     1       6.803  -0.635   5.750  0.00  0.00    -0.270 OA
ATOM      4  N   UNL     1       6.768  -1.324   3.563  0.00  0.00    -0.136 N 
ATOM      5  C   UNL     1       7.529  -2.089   2.773  0.00  0.00    +0.327 C 
ATOM      6  O   UNL     1       7.280  -2.312   1.604  0.00  0.00    -0.251 OA
ATOM      7  N   UNL     1       8.603  -2.582   3.416  0.00  0.00    -0.276 N 
ATOM      8  H   UNL     1       9.289  -3.157   3.042  0.00  0.00    +0.152 HD
ENDROOT
BRANCH   1  12
ATOM      9  C   UNL     1      11.939   0.327   5.709  0.00  0.00    +0.000 A 
ATOM     10  C   UNL     1      11.962  -0.519   4.615  0.00  0.00    +0.000 A 
ATOM     11  C   UNL     1      10.859  -1.299   4.321  0.00  0.00    +0.006 A 
ATOM     12  C   UNL     1       9.733  -1.233   5.121  0.00  0.00    -0.011 A 
ATOM     13  C   UNL     1       9.708  -0.384   6.211  0.00  0.00    +0.006 A 
ATOM     14  C   UNL     1      10.813   0.393   6.508  0.00  0.00    +0.000 A 
ENDBRANCH   1  12
BRANCH   1  15
ATOM     15  C   UNL     1       8.418  -3.228   5.774  0.00  0.00    -0.011 A 
ATOM     16  C   UNL     1       8.046  -2.987   7.083  0.00  0.00    +0.006 A 
ATOM     17  C   UNL     1       7.938  -4.037   7.976  0.00  0.00    +0.000 A 
ATOM     18  C   UNL     1       8.211  -5.327   7.561  0.00  0.00    +0.000 A 
ATOM     19  C   UNL     1       8.589  -5.568   6.253  0.00  0.00    +0.000 A 
ATOM     20  C   UNL     1       8.693  -4.518   5.360  0.00  0.00    +0.006 A 
ENDBRANCH   1  15
BRANCH   4  21
ATOM     21  N   UNL     1       5.592  -0.686   3.145  0.00  0.00    -0.220 N 
ATOM     22  C   UNL     1       5.662   0.415   2.370  0.00  0.00    +0.261 C 
ATOM     23  O   UNL     1       6.745   0.855   2.035  0.00  0.00    -0.269 OA
ATOM     24  H   UNL     1       4.729  -1.037   3.412  0.00  0.00    +0.174 HD
BRANCH  22  25
ATOM     25  C   UNL     1       4.424   1.087   1.930  0.00  0.00    +0.042 A 
ATOM     26  C   UNL     1       3.179   0.584   2.315  0.00  0.00    +0.017 A 
ATOM     27  C   UNL     1       2.024   1.212   1.902  0.00  0.00    +0.050 A 
ATOM     28  C   UNL     1       2.093   2.347   1.105  0.00  0.00    +0.166 A 
ATOM     29  C   UNL     1       3.333   2.855   0.718  0.00  0.00    +0.167 A 
ATOM     30  C   UNL     1       4.494   2.229   1.127  0.00  0.00    +0.062 A 
ATOM     31  O   UNL     1       3.128   3.963  -0.054  0.00  0.00    -0.453 OA
ATOM     32  C   UNL     1       1.770   4.364   0.204  0.00  0.00    +0.466 C 
ATOM     33  O   UNL     1       1.115   3.137   0.576  0.00  0.00    -0.453 OA
ENDBRANCH  22  25
ENDBRANCH   4  21
TORSDOF 4
