REMARK  Name = ZINC60204830
REMARK  7 active torsions:
REMARK  status: ('A' for Active; 'I' for Inactive)
REMARK    1  A    between atoms: C_1  and  O_2
REMARK    2  A    between atoms: O_2  and  C_3
REMARK    3  A    between atoms: C_5  and  C_26
REMARK    4  A    between atoms: C_6  and  N_11
REMARK    5  A    between atoms: C_8  and  O_9
REMARK    6  A    between atoms: O_9  and  C_10
REMARK    7  A    between atoms: C_12  and  C_14
REMARK                            x       y       z     vdW  Elec       q    Type
REMARK                         _______ _______ _______ _____ _____    ______ ____
ROOT
ATOM      1  N   UNL     1       2.445  -2.489  -4.275  0.00  0.00    -0.280 N 
ATOM      2  C   UNL     1       1.950  -3.652  -4.741  0.00  0.00    +0.256 C 
ATOM      3  O   UNL     1       0.917  -4.102  -4.280  0.00  0.00    -0.269 OA
ATOM      4  H   UNL     1       3.225  -2.092  -4.694  0.00  0.00    +0.155 HD
ENDROOT
BRANCH   2   5
ATOM      5  C   UNL     1       2.655  -4.377  -5.803  0.00  0.00    +0.094 A 
ATOM      6  C   UNL     1       2.312  -5.551  -6.401  0.00  0.00    +0.069 A 
ATOM      7  C   UNL     1       3.131  -6.088  -7.413  0.00  0.00    +0.027 A 
ATOM      8  C   UNL     1       4.282  -5.327  -7.729  0.00  0.00    +0.024 A 
ATOM      9  S   UNL     1       4.169  -3.933  -6.636  0.00  0.00    -0.082 S 
ATOM     10  C   UNL     1       5.180  -5.722  -8.697  0.00  0.00    +0.035 A 
ATOM     11  C   UNL     1       4.962  -6.897  -9.390  0.00  0.00    +0.043 A 
ATOM     12  C   UNL     1       3.839  -7.665  -9.100  0.00  0.00    +0.040 A 
ATOM     13  C   UNL     1       2.945  -7.287  -8.149  0.00  0.00    +0.052 A 
ATOM     14 CL   UNL     1       1.560  -8.285  -7.829  0.00  0.00    -0.083 Cl
ATOM     15 CL   UNL     1       6.080  -7.412 -10.613  0.00  0.00    -0.083 Cl
ATOM     16 CL   UNL     1       0.869  -6.385  -5.917  0.00  0.00    -0.082 Cl
ENDBRANCH   2   5
BRANCH   1  20
ATOM     17  C   UNL     1       0.623  -0.586  -1.033  0.00  0.00    +0.162 A 
ATOM     18  C   UNL     1       1.178   0.173  -2.043  0.00  0.00    +0.064 A 
ATOM     19  C   UNL     1       1.790  -0.454  -3.132  0.00  0.00    +0.061 A 
ATOM     20  C   UNL     1       1.837  -1.856  -3.193  0.00  0.00    +0.050 A 
ATOM     21  C   UNL     1       1.277  -2.609  -2.173  0.00  0.00    +0.073 A 
ATOM     22  C   UNL     1       0.677  -1.980  -1.094  0.00  0.00    +0.163 A 
BRANCH  19  23
ATOM     23  C   UNL     1       2.383   0.352  -4.213  0.00  0.00    +0.243 C 
ATOM     24  O   UNL     1       2.994  -0.191  -5.113  0.00  0.00    -0.270 OA
ATOM     25  N   UNL     1       2.248   1.694  -4.204  0.00  0.00    -0.325 N 
ATOM     26  H   UNL     1       1.761   2.127  -3.486  0.00  0.00    +0.145 HD
ATOM     27  H   UNL     1       2.639   2.225  -4.915  0.00  0.00    +0.145 HD
ENDBRANCH  19  23
BRANCH  17  29
ATOM     28  C   UNL     1       0.009   1.453   0.025  0.00  0.00    +0.277 C 
ATOM     29  O   UNL     1       0.028   0.024   0.027  0.00  0.00    -0.491 OA
ENDBRANCH  17  29
BRANCH  22  30
ATOM     30  O   UNL     1       0.134  -2.721  -0.095  0.00  0.00    -0.491 OA
ATOM     31  C   UNL     1       0.223  -4.142  -0.219  0.00  0.00    +0.277 C 
ENDBRANCH  22  30
ENDBRANCH   1  20
TORSDOF 5
