REMARK  Name = ZINC04212966
REMARK  10 active torsions:
REMARK  status: ('A' for Active; 'I' for Inactive)
REMARK    1  A    between atoms: C_1  and  C_2
REMARK    2  A    between atoms: N_5  and  C_8
REMARK    3  A    between atoms: C_11  and  N_26
REMARK    4  A    between atoms: C_13  and  C_14
REMARK    5  A    between atoms: N_16  and  C_17
REMARK    6  A    between atoms: C_17  and  C_19
REMARK    7  A    between atoms: C_17  and  C_20
REMARK    8  A    between atoms: N_29  and  C_30
REMARK    9  A    between atoms: C_33  and  S_36
REMARK   10  A    between atoms: S_36  and  C_37
REMARK                            x       y       z     vdW  Elec       q    Type
REMARK                         _______ _______ _______ _____ _____    ______ ____
ROOT
ATOM      1  C   UNL     1       3.654   1.452  -0.568  0.00  0.00    +0.042 A 
ATOM      2  C   UNL     1       4.647   2.413  -0.704  0.00  0.00    +0.026 A 
ATOM      3  C   UNL     1       4.330   3.753  -0.628  0.00  0.00    +0.025 A 
ATOM      4  C   UNL     1       3.013   4.153  -0.422  0.00  0.00    +0.036 A 
ATOM      5  C   UNL     1       2.011   3.209  -0.291  0.00  0.00    +0.038 A 
ATOM      6  C   UNL     1       2.323   1.849  -0.365  0.00  0.00    +0.059 A 
ENDROOT
BRANCH   1  11
ATOM      7  C   UNL     1       5.860  -3.724  -0.941  0.00  0.00    +0.007 C 
ATOM      8  C   UNL     1       5.699  -2.203  -0.885  0.00  0.00    -0.011 C 
ATOM      9  C   UNL     1       5.064  -1.805   0.451  0.00  0.00    +0.022 C 
ATOM     10  C   UNL     1       4.850  -0.290   0.476  0.00  0.00    +0.105 C 
ATOM     11  N   UNL     1       3.976   0.101  -0.637  0.00  0.00    -0.329 N 
ATOM     12  C   UNL     1       4.585  -0.229  -1.932  0.00  0.00    +0.105 C 
ATOM     13  C   UNL     1       4.792  -1.742  -2.029  0.00  0.00    +0.022 C 
ENDBRANCH   1  11
BRANCH   4  14
ATOM     14  N   UNL     1       2.701   5.518  -0.348  0.00  0.00    -0.269 N 
ATOM     15  C   UNL     1       3.588   6.384   0.181  0.00  0.00    +0.308 C 
ATOM     16  O   UNL     1       4.620   5.972   0.675  0.00  0.00    -0.252 OA
ATOM     17  N   UNL     1       3.331   7.707   0.163  0.00  0.00    -0.269 N 
ATOM     18  H   UNL     1       1.847   5.839  -0.677  0.00  0.00    +0.156 HD
ATOM     19  H   UNL     1       2.479   8.031  -0.169  0.00  0.00    +0.156 HD
BRANCH  17  20
ATOM     20  C   UNL     1       4.295   8.615   0.623  0.00  0.00    +0.035 A 
ATOM     21  C   UNL     1       5.101   8.283   1.704  0.00  0.00    +0.024 A 
ATOM     22  C   UNL     1       6.053   9.175   2.154  0.00  0.00    +0.016 A 
ATOM     23  C   UNL     1       6.199  10.409   1.532  0.00  0.00    +0.008 A 
ATOM     24  C   UNL     1       5.389  10.742   0.454  0.00  0.00    +0.016 A 
ATOM     25  C   UNL     1       4.440   9.848   0.001  0.00  0.00    +0.024 A 
BRANCH  23  26
ATOM     26  S   UNL     1       7.411  11.550   2.110  0.00  0.00    -0.129 S 
ATOM     27  C   UNL     1       8.199  10.687   3.498  0.00  0.00    +0.090 C 
ENDBRANCH  23  26
ENDBRANCH  17  20
ENDBRANCH   4  14
BRANCH   6  28
ATOM     28  C   UNL     1       1.261   0.836  -0.226  0.00  0.00    +0.246 C 
ATOM     29  O   UNL     1       1.518  -0.341  -0.390  0.00  0.00    -0.270 OA
ATOM     30  N   UNL     1       0.003   1.216   0.076  0.00  0.00    -0.305 N 
ATOM     31  H   UNL     1      -0.202   2.155   0.206  0.00  0.00    +0.150 HD
BRANCH  30  32
ATOM     32  C   UNL     1      -1.054   0.210   0.208  0.00  0.00    +0.100 C 
ATOM     33  C   UNL     1      -1.041  -0.360   1.628  0.00  0.00    +0.033 C 
BRANCH  32  34
ATOM     34  C   UNL     1      -2.391   0.848  -0.065  0.00  0.00    -0.027 A 
ATOM     35  C   UNL     1      -2.663   2.115   0.415  0.00  0.00    +0.005 A 
ATOM     36  C   UNL     1      -3.889   2.703   0.161  0.00  0.00    +0.000 A 
ATOM     37  C   UNL     1      -4.846   2.018  -0.565  0.00  0.00    +0.000 A 
ATOM     38  C   UNL     1      -4.575   0.749  -1.041  0.00  0.00    +0.000 A 
ATOM     39  C   UNL     1      -3.348   0.164  -0.790  0.00  0.00    +0.005 A 
ENDBRANCH  32  34
ENDBRANCH  30  32
ENDBRANCH   6  28
TORSDOF 7
