REMARK  Name = ZINC02780773
REMARK  5 active torsions:
REMARK  status: ('A' for Active; 'I' for Inactive)
REMARK    1  A    between atoms: C_3  and  C_6
REMARK    2  A    between atoms: C_8  and  C_30
REMARK    3  A    between atoms: C_12  and  C_15
REMARK    4  A    between atoms: N_17  and  C_18
REMARK    5  A    between atoms: C_19  and  C_27
REMARK                            x       y       z     vdW  Elec       q    Type
REMARK                         _______ _______ _______ _____ _____    ______ ____
ROOT
ATOM      1  C   UNL     1      -1.178  -0.885   0.009  0.00  0.00    +0.110 A 
ATOM      2  C   UNL     1      -2.478  -0.329   0.030  0.00  0.00    +0.064 A 
ATOM      3  C   UNL     1      -3.549  -1.154   0.032  0.00  0.00    +0.149 A 
ATOM      4  N   UNL     1      -3.352  -2.507   0.023  0.00  0.00    -0.209 N 
ATOM      5  C   UNL     1      -2.082  -3.011   0.007  0.00  0.00    +0.169 A 
ATOM      6  N   UNL     1      -1.024  -2.203   0.001  0.00  0.00    -0.224 NA
ATOM      7  C   UNL     1      -2.204  -4.416   0.001  0.00  0.00    +0.101 A 
ATOM      8  C   UNL     1      -3.581  -4.706   0.013  0.00  0.00    +0.150 A 
ATOM      9  N   UNL     1      -4.247  -3.583   0.026  0.00  0.00    -0.172 NA
ENDROOT
BRANCH   1  12
ATOM     10  C   UNL     1       2.090   0.756  -0.014  0.00  0.00    +0.042 A 
ATOM     11  C   UNL     1       1.303  -0.409  -0.013  0.00  0.00    +0.051 A 
ATOM     12  C   UNL     1       0.002  -0.004   0.002  0.00  0.00    +0.153 A 
ATOM     13  O   UNL     1      -0.016   1.344   0.009  0.00  0.00    -0.461 OA
ATOM     14  C   UNL     1       1.243   1.806  -0.000  0.00  0.00    +0.196 A 
ENDBRANCH   1  12
BRANCH   7  15
ATOM     15  C   UNL     1      -1.108  -5.387  -0.015  0.00  0.00    +0.254 C 
ATOM     16  O   UNL     1       0.047  -5.001  -0.024  0.00  0.00    -0.270 OA
ATOM     17  N   UNL     1      -1.377  -6.707  -0.020  0.00  0.00    -0.275 N 
ATOM     18  H   UNL     1      -2.297  -7.014  -0.012  0.00  0.00    +0.156 HD
BRANCH  17  19
ATOM     19  C   UNL     1      -0.340  -7.626  -0.035  0.00  0.00    +0.085 A 
ATOM     20  C   UNL     1      -0.416  -9.012  -0.036  0.00  0.00    +0.068 A 
ATOM     21  C   UNL     1       0.835  -9.752  -0.058  0.00  0.00    -0.023 A 
ATOM     22  C   UNL     1       1.952  -8.994  -0.064  0.00  0.00    -0.004 A 
ATOM     23  S   UNL     1       1.366  -7.323  -0.050  0.00  0.00    -0.077 S 
ATOM     24  C   UNL     1       3.370  -9.475  -0.080  0.00  0.00    +0.043 C 
ATOM     25  C   UNL     1       3.379 -10.965   0.290  0.00  0.00    +0.005 C 
ATOM     26  C   UNL     1       2.314 -11.686  -0.540  0.00  0.00    +0.005 C 
ATOM     27  C   UNL     1       0.919 -11.273  -0.068  0.00  0.00    +0.037 C 
BRANCH  20  28
ATOM     28  C   UNL     1      -1.708  -9.703  -0.020  0.00  0.00    +0.244 C 
ATOM     29  O   UNL     1      -2.259  -9.989  -1.068  0.00  0.00    -0.270 OA
ATOM     30  N   UNL     1      -2.288 -10.022   1.154  0.00  0.00    -0.325 N 
ATOM     31  H   UNL     1      -1.849  -9.794   1.989  0.00  0.00    +0.145 HD
ATOM     32  H   UNL     1      -3.143 -10.479   1.164  0.00  0.00    +0.145 HD
ENDBRANCH  20  28
ENDBRANCH  17  19
ENDBRANCH   7  15
BRANCH   3  33
ATOM     33  C   UNL     1      -4.946  -0.588   0.048  0.00  0.00    +0.434 C 
ATOM     34  F   UNL     1      -5.364  -0.419   1.373  0.00  0.00    -0.164 F 
ATOM     35  F   UNL     1      -4.955   0.649  -0.605  0.00  0.00    -0.164 F 
ATOM     36  F   UNL     1      -5.813  -1.468  -0.607  0.00  0.00    -0.164 F 
ENDBRANCH   3  33
TORSDOF 5
