REMARK  Name = ZINC04565435
REMARK  7 active torsions:
REMARK  status: ('A' for Active; 'I' for Inactive)
REMARK    1  A    between atoms: C_1  and  C_2
REMARK    2  A    between atoms: C_9  and  N_24
REMARK    3  A    between atoms: C_10  and  C_22
REMARK    4  A    between atoms: C_11  and  C_13
REMARK    5  A    between atoms: C_16  and  N_19
REMARK    6  A    between atoms: N_19  and  C_20
REMARK    7  A    between atoms: N_19  and  C_21
REMARK                            x       y       z     vdW  Elec       q    Type
REMARK                         _______ _______ _______ _____ _____    ______ ____
ROOT
ATOM      1  C   UNL     1      -0.005   1.533  -0.007  0.00  0.00    +0.068 C 
ATOM      2  C   UNL     1       0.011   0.026   0.002  0.00  0.00    +0.068 A 
ATOM      3  C   UNL     1       0.011  -0.795  -1.118  0.00  0.00    +0.049 A 
ATOM      4  C   UNL     1       0.029  -2.094  -0.690  0.00  0.00    +0.222 A 
ATOM      5  N   UNL     1       0.039  -2.079   0.653  0.00  0.00    -0.246 N 
ATOM      6  H   UNL     1       0.051  -2.857   1.232  0.00  0.00    +0.192 HD
ATOM      7  N   UNL     1       0.034  -0.738   1.068  0.00  0.00    -0.176 NA
ATOM      8  O   UNL     1       0.037  -3.147  -1.545  0.00  0.00    -0.423 OA
ATOM      9  C   UNL     1       0.302  -2.895  -2.843  0.00  0.00    +0.200 C 
ATOM     10  C   UNL     1       0.302  -1.656  -3.385  0.00  0.00    +0.098 C 
ATOM     11  C   UNL     1      -0.006  -0.420  -2.577  0.00  0.00    +0.101 C 
ENDROOT
BRANCH  11  12
ATOM     12  C   UNL     1      -1.368   0.106  -2.951  0.00  0.00    -0.034 A 
ATOM     13  C   UNL     1      -2.483  -0.697  -2.797  0.00  0.00    +0.006 A 
ATOM     14  C   UNL     1      -3.733  -0.218  -3.139  0.00  0.00    +0.023 A 
ATOM     15  C   UNL     1      -3.868   1.072  -3.637  0.00  0.00    +0.029 A 
ATOM     16  C   UNL     1      -2.745   1.875  -3.790  0.00  0.00    +0.023 A 
ATOM     17  C   UNL     1      -1.499   1.392  -3.441  0.00  0.00    +0.006 A 
BRANCH  15  18
ATOM     18  N   UNL     1      -5.130   1.559  -3.985  0.00  0.00    -0.336 N 
ATOM     19  C   UNL     1      -6.295   0.672  -3.942  0.00  0.00    +0.129 C 
ATOM     20  C   UNL     1      -5.289   2.958  -4.391  0.00  0.00    +0.129 C 
ENDBRANCH  15  18
ENDBRANCH  11  12
BRANCH   9  21
ATOM     21  N   UNL     1       0.591  -3.958  -3.662  0.00  0.00    -0.328 N 
ATOM     22  H   UNL     1       0.599  -4.859  -3.302  0.00  0.00    +0.145 HD
ATOM     23  H   UNL     1       0.786  -3.809  -4.600  0.00  0.00    +0.145 HD
ENDBRANCH   9  21
BRANCH  10  24
ATOM     24  C   UNL     1       0.605  -1.513  -4.777  0.00  0.00    +0.101 C 
ATOM     25  N   UNL     1       0.845  -1.399  -5.881  0.00  0.00    -0.191 NA
ENDBRANCH  10  24
TORSDOF 4
