REMARK  Name = ZINC14075162
REMARK  7 active torsions:
REMARK  status: ('A' for Active; 'I' for Inactive)
REMARK    1  A    between atoms: C_1  and  C_2
REMARK    2  A    between atoms: C_3  and  C_26
REMARK    3  A    between atoms: C_7  and  N_25
REMARK    4  A    between atoms: C_9  and  C_11
REMARK    5  A    between atoms: C_11  and  O_12
REMARK    6  A    between atoms: O_12  and  C_13
REMARK    7  A    between atoms: C_13  and  C_15
REMARK                            x       y       z     vdW  Elec       q    Type
REMARK                         _______ _______ _______ _____ _____    ______ ____
ROOT
ATOM      1  C   UNL     1       5.005  -0.426  -0.663  0.00  0.00    +0.045 C 
ATOM      2  C   UNL     1       3.616  -1.007  -0.593  0.00  0.00    -0.028 A 
ATOM      3  C   UNL     1       3.435  -2.336  -0.591  0.00  0.00    -0.008 A 
ATOM      4  S   UNL     1       1.663  -2.515  -0.499  0.00  0.00    -0.074 S 
ATOM      5  C   UNL     1       1.213  -0.800  -0.468  0.00  0.00    +0.114 A 
ATOM      6  C   UNL     1       2.457  -0.133  -0.529  0.00  0.00    +0.050 A 
ATOM      7  C   UNL     1       2.388   1.287  -0.518  0.00  0.00    +0.128 A 
ATOM      8  N   UNL     1       1.204   1.875  -0.453  0.00  0.00    -0.214 NA
ATOM      9  C   UNL     1       0.079   1.186  -0.398  0.00  0.00    +0.170 A 
ATOM     10  N   UNL     1       0.078  -0.133  -0.405  0.00  0.00    -0.221 NA
ATOM     11  C   UNL     1       4.480  -3.419  -0.650  0.00  0.00    +0.052 C 
ENDROOT
BRANCH   7  12
ATOM     12  N   UNL     1       3.544   2.045  -0.574  0.00  0.00    -0.343 N 
ATOM     13  H   UNL     1       4.357   1.662  -0.938  0.00  0.00    +0.144 HD
ATOM     14  H   UNL     1       3.541   2.959  -0.249  0.00  0.00    +0.144 HD
ENDBRANCH   7  12
BRANCH   9  15
ATOM     15  C   UNL     1      -1.234   1.923  -0.332  0.00  0.00    +0.308 C 
BRANCH  15  16
ATOM     16  O   UNL     1      -1.591   2.152   1.057  0.00  0.00    -0.453 OA
BRANCH  16  17
ATOM     17  C   UNL     1      -2.748   2.805   1.292  0.00  0.00    +0.346 C 
ATOM     18  O   UNL     1      -3.439   3.173   0.361  0.00  0.00    -0.244 OA
BRANCH  17  19
ATOM     19  C   UNL     1      -3.171   3.072   2.667  0.00  0.00    +0.097 A 
ATOM     20  C   UNL     1      -4.308   3.719   3.122  0.00  0.00    +0.026 A 
ATOM     21  C   UNL     1      -4.487   3.840   4.494  0.00  0.00    -0.036 A 
ATOM     22  C   UNL     1      -3.508   3.334   5.279  0.00  0.00    -0.006 A 
ATOM     23  S   UNL     1      -2.361   2.642   4.199  0.00  0.00    -0.086 S 
ATOM     24  C   UNL     1      -3.443   3.387   6.789  0.00  0.00    +0.043 C 
ATOM     25  C   UNL     1      -4.563   2.479   7.324  0.00  0.00    +0.005 C 
ATOM     26  C   UNL     1      -5.894   3.190   7.252  0.00  0.00    +0.001 C 
ATOM     27  C   UNL     1      -6.480   3.379   5.876  0.00  0.00    +0.005 C 
ATOM     28  C   UNL     1      -5.753   4.469   5.087  0.00  0.00    +0.036 C 
ENDBRANCH  17  19
ENDBRANCH  16  17
ENDBRANCH  15  16
ENDBRANCH   9  15
TORSDOF 5
