REMARK  Name = ZINC50058366
REMARK  8 active torsions:
REMARK  status: ('A' for Active; 'I' for Inactive)
REMARK    1  A    between atoms: C_1  and  C_2
REMARK    2  A    between atoms: C_2  and  C_3
REMARK    3  A    between atoms: C_2  and  C_4
REMARK    4  A    between atoms: C_2  and  C_5
REMARK    5  A    between atoms: N_13  and  C_14
REMARK    6  A    between atoms: C_14  and  C_15
REMARK    7  A    between atoms: N_20  and  C_22
REMARK    8  A    between atoms: C_22  and  C_23
REMARK                            x       y       z     vdW  Elec       q    Type
REMARK                         _______ _______ _______ _____ _____    ______ ____
ROOT
ATOM      1  C   UNL     1       0.707  -0.490  -1.238  0.00  0.00    +0.109 A 
ATOM      2  N   UNL     1       1.944  -0.281  -1.644  0.00  0.00    -0.144 NA
ATOM      3  N   UNL     1       2.328  -0.794  -2.732  0.00  0.00    -0.126 NA
ATOM      4  C   UNL     1       1.528  -1.534  -3.475  0.00  0.00    +0.189 A 
ATOM      5  S   UNL     1       0.106  -1.520  -2.570  0.00  0.00    -0.035 S 
ATOM      6  N   UNL     1       1.791  -2.166  -4.686  0.00  0.00    -0.247 N 
ATOM      7  C   UNL     1       3.010  -2.059  -5.252  0.00  0.00    +0.305 C 
ATOM      8  O   UNL     1       3.880  -1.410  -4.703  0.00  0.00    -0.252 OA
ATOM      9  N   UNL     1       3.264  -2.671  -6.425  0.00  0.00    -0.299 N 
ATOM     10  H   UNL     1       1.097  -2.683  -5.124  0.00  0.00    +0.158 HD
ATOM     11  H   UNL     1       2.570  -3.188  -6.863  0.00  0.00    +0.150 HD
ENDROOT
BRANCH   1  13
ATOM     12  C   UNL     1      -0.019   1.526   0.010  0.00  0.00    +0.018 C 
ATOM     13  C   UNL     1       0.002  -0.004   0.002  0.00  0.00    +0.013 C 
ATOM     14  C   UNL     1       0.742  -0.511   1.242  0.00  0.00    +0.018 C 
ATOM     15  C   UNL     1      -1.433  -0.534   0.013  0.00  0.00    +0.018 C 
ENDBRANCH   1  13
BRANCH   9  16
ATOM     16  C   UNL     1       4.589  -2.555  -7.040  0.00  0.00    +0.107 C 
BRANCH  16  17
ATOM     17  C   UNL     1       4.611  -3.337  -8.355  0.00  0.00    -0.011 C 
ATOM     18  C   UNL     1       3.646  -2.688  -9.352  0.00  0.00    +0.001 C 
ATOM     19  C   UNL     1       3.734  -3.430 -10.688  0.00  0.00    -0.018 C 
ATOM     20  C   UNL     1       5.182  -3.407 -11.184  0.00  0.00    -0.078 C 
ATOM     21  N   UNL     1       6.050  -4.065 -10.200  0.00  0.00    +0.383 N 
ATOM     22  C   UNL     1       6.026  -3.318  -8.936  0.00  0.00    -0.073 C 
ATOM     23  H   UNL     1       5.722  -5.005 -10.039  0.00  0.00    -0.081 HD
BRANCH  21  24
ATOM     24  C   UNL     1       7.425  -4.110 -10.714  0.00  0.00    -0.036 C 
BRANCH  24  25
ATOM     25  C   UNL     1       7.474  -4.986 -11.939  0.00  0.00    -0.027 A 
ATOM     26  C   UNL     1       7.308  -4.645 -13.241  0.00  0.00    +0.009 A 
ATOM     27  C   UNL     1       7.398  -5.628 -14.208  0.00  0.00    +0.008 A 
ATOM     28  C   UNL     1       7.650  -6.904 -13.827  0.00  0.00    +0.045 A 
ATOM     29  S   UNL     1       7.775  -6.742 -12.053  0.00  0.00    -0.103 S 
ENDBRANCH  24  25
ENDBRANCH  21  24
ENDBRANCH  16  17
ENDBRANCH   9  16
TORSDOF 5
