REMARK  Name = ZINC59310739
REMARK  8 active torsions:
REMARK  status: ('A' for Active; 'I' for Inactive)
REMARK    1  A    between atoms: C_1  and  C_2
REMARK    2  A    between atoms: C_2  and  C_25
REMARK    3  A    between atoms: N_3  and  N_4
REMARK    4  A    between atoms: C_7  and  S_10
REMARK    5  A    between atoms: S_10  and  C_11
REMARK    6  A    between atoms: C_11  and  C_12
REMARK    7  A    between atoms: N_14  and  C_15
REMARK    8  A    between atoms: C_16  and  C_23
REMARK                            x       y       z     vdW  Elec       q    Type
REMARK                         _______ _______ _______ _____ _____    ______ ____
ROOT
ATOM      1  N   UNL     1       0.023   0.044   2.324  0.00  0.00    -0.205 N 
ATOM      2  C   UNL     1       0.044  -0.654   3.518  0.00  0.00    +0.232 A 
ATOM      3  N   UNL     1       0.069  -1.964   3.649  0.00  0.00    -0.186 NA
ATOM      4  C   UNL     1       0.084  -2.286   4.947  0.00  0.00    +0.211 A 
ATOM      5  N   UNL     1       0.068  -1.185   5.660  0.00  0.00    -0.144 NA
ATOM      6  N   UNL     1       0.049  -0.112   4.755  0.00  0.00    -0.245 N 
ATOM      7  H   UNL     1       0.010   1.014   2.329  0.00  0.00    +0.177 HD
ATOM      8  H   UNL     1       0.038   0.833   4.974  0.00  0.00    +0.192 HD
ENDROOT
BRANCH   1  11
ATOM      9  C   UNL     1      -0.018   1.503   0.010  0.00  0.00    +0.063 C 
ATOM     10  C   UNL     1       0.002  -0.004   0.002  0.00  0.00    +0.040 C 
ATOM     11  N   UNL     1       0.021  -0.650   1.107  0.00  0.00    -0.189 NA
BRANCH  10  12
ATOM     12  C   UNL     1      -0.000  -0.750  -1.307  0.00  0.00    +0.011 C 
ATOM     13  C   UNL     1       1.236  -0.360  -2.119  0.00  0.00    +0.016 C 
ATOM     14  C   UNL     1       1.234  -1.117  -3.448  0.00  0.00    -0.010 C 
ATOM     15  C   UNL     1       1.257  -2.623  -3.177  0.00  0.00    +0.007 C 
ATOM     16  C   UNL     1       0.021  -3.014  -2.365  0.00  0.00    -0.010 C 
ATOM     17  C   UNL     1       0.023  -2.256  -1.036  0.00  0.00    +0.016 C 
ATOM     18  C   UNL     1      -1.241  -2.657  -3.153  0.00  0.00    +0.007 C 
ATOM     19  C   UNL     1      -1.264  -1.151  -3.425  0.00  0.00    -0.010 C 
ATOM     20  C   UNL     1      -0.028  -0.760  -4.237  0.00  0.00    +0.007 C 
ATOM     21  C   UNL     1      -1.262  -0.394  -2.095  0.00  0.00    +0.016 C 
ENDBRANCH  10  12
ENDBRANCH   1  11
BRANCH   4  22
ATOM     22  S   UNL     1       0.117  -3.925   5.594  0.00  0.00    -0.075 S 
BRANCH  22  23
ATOM     23  C   UNL     1       0.126  -3.686   7.392  0.00  0.00    +0.173 C 
BRANCH  23  24
ATOM     24  C   UNL     1       0.154  -5.028   8.077  0.00  0.00    +0.228 C 
ATOM     25  O   UNL     1       0.168  -6.046   7.417  0.00  0.00    -0.275 OA
ATOM     26  N   UNL     1       0.165  -5.098   9.423  0.00  0.00    -0.278 N 
ATOM     27  H   UNL     1       0.154  -4.284   9.951  0.00  0.00    +0.155 HD
BRANCH  26  28
ATOM     28  C   UNL     1       0.191  -6.334  10.054  0.00  0.00    +0.090 A 
ATOM     29  C   UNL     1       0.199  -6.595  11.411  0.00  0.00    +0.084 A 
ATOM     30  C   UNL     1       0.229  -7.997  11.823  0.00  0.00    -0.018 A 
ATOM     31  C   UNL     1       0.246  -8.870  10.799  0.00  0.00    -0.004 A 
ATOM     32  S   UNL     1       0.213  -7.854   9.344  0.00  0.00    -0.077 S 
ATOM     33  C   UNL     1       0.280 -10.296  11.278  0.00  0.00    +0.043 C 
ATOM     34  C   UNL     1       0.715 -10.200  12.757  0.00  0.00    +0.010 C 
ATOM     35  C   UNL     1       0.244  -8.781  13.133  0.00  0.00    +0.037 C 
BRANCH  29  36
ATOM     36  C   UNL     1       0.180  -5.536  12.373  0.00  0.00    +0.102 C 
ATOM     37  N   UNL     1       0.166  -4.695  13.137  0.00  0.00    -0.191 NA
ENDBRANCH  29  36
ENDBRANCH  26  28
ENDBRANCH  23  24
ENDBRANCH  22  23
ENDBRANCH   4  22
TORSDOF 7
