REMARK  Name = ZINC32126630
REMARK  7 active torsions:
REMARK  status: ('A' for Active; 'I' for Inactive)
REMARK    1  A    between atoms: C_1  and  C_2
REMARK    2  A    between atoms: C_5  and  C_21
REMARK    3  A    between atoms: C_7  and  N_8
REMARK    4  A    between atoms: N_8  and  C_9
REMARK    5  A    between atoms: C_9  and  N_11
REMARK    6  A    between atoms: C_12  and  C_14
REMARK    7  A    between atoms: C_24  and  C_29
REMARK                            x       y       z     vdW  Elec       q    Type
REMARK                         _______ _______ _______ _____ _____    ______ ____
ROOT
ATOM      1  C   UNL     1      -8.481   3.040  -0.141  0.00  0.00    +0.045 C 
ATOM      2  C   UNL     1      -8.416   1.535  -0.141  0.00  0.00    -0.029 A 
ATOM      3  C   UNL     1      -9.581   0.795  -0.232  0.00  0.00    +0.006 A 
ATOM      4  C   UNL     1      -9.529  -0.584  -0.233  0.00  0.00    +0.011 A 
ATOM      5  C   UNL     1      -8.300  -1.236  -0.142  0.00  0.00    +0.011 A 
ATOM      6  C   UNL     1      -7.125  -0.491  -0.056  0.00  0.00    +0.034 A 
ATOM      7  C   UNL     1      -7.187   0.894  -0.051  0.00  0.00    +0.036 A 
ENDROOT
BRANCH   5   8
ATOM      8  C   UNL     1      -8.242  -2.716  -0.143  0.00  0.00    +0.132 A 
ATOM      9  N   UNL     1      -9.224  -3.576  -0.221  0.00  0.00    -0.156 NA
ATOM     10  N   UNL     1      -8.985  -4.944  -0.208  0.00  0.00    -0.190 N 
ATOM     11  C   UNL     1      -9.678  -6.136  -0.265  0.00  0.00    +0.153 A 
ATOM     12  N   UNL     1      -8.812  -7.109  -0.203  0.00  0.00    -0.132 NA
ATOM     13  N   UNL     1      -7.619  -6.633  -0.111  0.00  0.00    -0.120 NA
ATOM     14  C   UNL     1      -7.671  -5.336  -0.110  0.00  0.00    +0.218 A 
ATOM     15  S   UNL     1      -6.813  -3.783  -0.046  0.00  0.00    -0.026 S 
ATOM     16  C   UNL     1     -11.173  -6.286  -0.379  0.00  0.00    +0.090 C 
ENDBRANCH   5   8
BRANCH   7  17
ATOM     17  N   UNL     1      -6.011   1.646   0.040  0.00  0.00    -0.296 N 
ATOM     18  H   UNL     1      -5.865   2.520  -0.612  0.00  0.00    +0.154 HD
BRANCH  17  19
ATOM     19  C   UNL     1      -5.056   1.300   0.927  0.00  0.00    +0.141 C 
ATOM     20  S   UNL     1      -5.340   0.028   2.037  0.00  0.00    -0.018 S 
BRANCH  19  21
ATOM     21  N   UNL     1      -3.879   1.956   0.939  0.00  0.00    -0.264 N 
ATOM     22  C   UNL     1      -2.924   1.610   1.826  0.00  0.00    +0.250 C 
ATOM     23  O   UNL     1      -3.126   0.707   2.614  0.00  0.00    -0.270 OA
ATOM     24  H   UNL     1      -3.697   2.773   0.226  0.00  0.00    +0.157 HD
BRANCH  22  25
ATOM     25  C   UNL     1      -1.633   2.329   1.840  0.00  0.00    +0.038 A 
ATOM     26  C   UNL     1      -0.642   1.973   2.757  0.00  0.00    +0.013 A 
ATOM     27  C   UNL     1       0.562   2.644   2.761  0.00  0.00    +0.002 A 
ATOM     28  C   UNL     1       0.789   3.672   1.863  0.00  0.00    +0.015 A 
ATOM     29  C   UNL     1      -0.191   4.034   0.954  0.00  0.00    +0.019 A 
ATOM     30  C   UNL     1      -1.401   3.370   0.939  0.00  0.00    +0.028 A 
ATOM     31 BR   UNL     1       0.130   5.440  -0.269  0.00  0.00    -0.050 Br
ENDBRANCH  22  25
ENDBRANCH  19  21
ENDBRANCH  17  19
ENDBRANCH   7  17
TORSDOF 5
