REMARK  Name = ZINC09325386
REMARK  6 active torsions:
REMARK  status: ('A' for Active; 'I' for Inactive)
REMARK    1  A    between atoms: C_1  and  N_2
REMARK    2  A    between atoms: C_3  and  C_5
REMARK    3  A    between atoms: C_9  and  N_10
REMARK    4  A    between atoms: C_11  and  C_13
REMARK    5  A    between atoms: C_27  and  O_29
REMARK    6  A    between atoms: O_29  and  C_30
REMARK                            x       y       z     vdW  Elec       q    Type
REMARK                         _______ _______ _______ _____ _____    ______ ____
ROOT
ATOM      1  C   UNL     1       5.945   7.665  -0.012  0.00  0.00    +0.069 A 
ATOM      2  C   UNL     1       6.060   9.114  -0.004  0.00  0.00    -0.020 A 
ATOM      3  C   UNL     1       4.885   9.781   0.008  0.00  0.00    +0.013 A 
ATOM      4  S   UNL     1       3.644   8.519   0.006  0.00  0.00    -0.076 S 
ATOM      5  C   UNL     1       4.668   7.121  -0.003  0.00  0.00    +0.085 A 
ATOM      6  C   UNL     1       4.696  11.268   0.014  0.00  0.00    +0.153 C 
ATOM      7  N   UNL     1       6.022  11.874   0.243  0.00  0.00    -0.262 N 
ATOM      8  C   UNL     1       7.168  11.293  -0.473  0.00  0.00    +0.116 C 
ATOM      9  C   UNL     1       7.391   9.855  -0.001  0.00  0.00    +0.056 C 
ATOM     10  C   UNL     1       6.178  12.922   1.077  0.00  0.00    +0.403 C 
ATOM     11  O   UNL     1       7.280  13.403   1.248  0.00  0.00    -0.226 OA
ENDROOT
BRANCH   1  14
ATOM     12  C   UNL     1       8.883   5.552   1.112  0.00  0.00    +0.128 C 
ATOM     13  N   UNL     1       7.694   6.407   1.130  0.00  0.00    -0.314 N 
ATOM     14  C   UNL     1       7.135   6.808  -0.029  0.00  0.00    +0.246 C 
ATOM     15  O   UNL     1       7.618   6.460  -1.091  0.00  0.00    -0.270 OA
ATOM     16  H   UNL     1       7.309   6.685   1.976  0.00  0.00    +0.149 HD
ENDBRANCH   1  14
BRANCH   5  17
ATOM     17  N   UNL     1       4.301   5.785  -0.007  0.00  0.00    -0.275 N 
ATOM     18  C   UNL     1       2.997   5.445   0.004  0.00  0.00    +0.257 C 
ATOM     19  O   UNL     1       2.142   6.311   0.016  0.00  0.00    -0.269 OA
ATOM     20  H   UNL     1       4.982   5.095  -0.017  0.00  0.00    +0.156 HD
BRANCH  18  21
ATOM     21  C   UNL     1       2.608   4.030  -0.000  0.00  0.00    +0.094 A 
ATOM     22  C   UNL     1       1.357   3.494   0.008  0.00  0.00    +0.068 A 
ATOM     23  C   UNL     1       1.193   2.096   0.002  0.00  0.00    +0.008 A 
ATOM     24  C   UNL     1      -0.016   1.354   0.009  0.00  0.00    +0.010 A 
ATOM     25  C   UNL     1       0.002  -0.004   0.002  0.00  0.00    +0.001 A 
ATOM     26  C   UNL     1       1.195  -0.717  -0.013  0.00  0.00    +0.001 A 
ATOM     27  C   UNL     1       2.394  -0.034  -0.021  0.00  0.00    +0.016 A 
ATOM     28  C   UNL     1       2.392   1.345  -0.013  0.00  0.00    +0.021 A 
ATOM     29  S   UNL     1       3.659   2.588  -0.018  0.00  0.00    -0.082 S 
ATOM     30 CL   UNL     1      -0.034   4.533   0.027  0.00  0.00    -0.082 Cl
ENDBRANCH  18  21
ENDBRANCH   5  17
BRANCH  10  31
ATOM     31  O   UNL     1       5.112  13.434   1.720  0.00  0.00    -0.454 OA
ATOM     32  C   UNL     1       5.353  14.562   2.602  0.00  0.00    +0.282 C 
ENDBRANCH  10  31
TORSDOF 4
