REMARK  Name = ZINC00718235
REMARK  4 active torsions:
REMARK  status: ('A' for Active; 'I' for Inactive)
REMARK    1  A    between atoms: C_1  and  C_2
REMARK    2  A    between atoms: C_2  and  C_35
REMARK    3  A    between atoms: C_6  and  C_19
REMARK    4  A    between atoms: C_24  and  C_25
REMARK                            x       y       z     vdW  Elec       q    Type
REMARK                         _______ _______ _______ _____ _____    ______ ____
ROOT
ATOM      1  C   UNL     1      -4.269   8.721   0.928  0.00  0.00    +0.011 C 
ATOM      2  C   UNL     1      -5.393   7.982   0.198  0.00  0.00    -0.023 C 
ATOM      3  C   UNL     1      -5.242   8.179  -1.312  0.00  0.00    +0.058 C 
ATOM      4  C   UNL     1      -3.928   7.597  -1.772  0.00  0.00    +0.016 C 
ATOM      5  C   UNL     1      -3.374   6.539  -1.140  0.00  0.00    +0.024 C 
ATOM      6  C   UNL     1      -2.066   5.952  -1.602  0.00  0.00    +0.090 C 
ATOM      7  C   UNL     1      -1.743   6.365  -3.009  0.00  0.00    -0.005 A 
ATOM      8  C   UNL     1      -0.796   5.641  -3.754  0.00  0.00    +0.006 A 
ATOM      9  C   UNL     1      -0.139   4.521  -3.208  0.00  0.00    +0.012 A 
ATOM     10  C   UNL     1       0.771   3.865  -3.986  0.00  0.00    +0.020 A 
ATOM     11  C   UNL     1       1.026   4.309  -5.282  0.00  0.00    +0.111 A 
ATOM     12  N   UNL     1       0.412   5.352  -5.787  0.00  0.00    -0.255 NA
ATOM     13  C   UNL     1      -0.490   6.038  -5.079  0.00  0.00    +0.071 A 
ATOM     14  C   UNL     1      -1.144   7.155  -5.630  0.00  0.00    +0.030 A 
ATOM     15  C   UNL     1      -2.059   7.837  -4.893  0.00  0.00    +0.025 A 
ATOM     16  C   UNL     1      -2.366   7.449  -3.583  0.00  0.00    +0.036 A 
ATOM     17  N   UNL     1      -3.312   8.166  -2.849  0.00  0.00    -0.317 N 
ATOM     18  C   UNL     1      -4.002   5.952  -0.029  0.00  0.00    +0.162 C 
ATOM     19  O   UNL     1      -3.482   4.997   0.514  0.00  0.00    -0.292 OA
ATOM     20  C   UNL     1      -5.305   6.483   0.502  0.00  0.00    +0.086 C 
ATOM     21  C   UNL     1      -6.747   8.526   0.655  0.00  0.00    +0.011 C 
ATOM     22  H   UNL     1      -3.534   9.075  -3.107  0.00  0.00    +0.152 HD
ENDROOT
BRANCH   6  23
ATOM     23  C   UNL     1      -0.965   6.422  -0.686  0.00  0.00    +0.010 A 
ATOM     24  C   UNL     1      -0.701   7.705  -0.353  0.00  0.00    +0.110 A 
ATOM     25  N   UNL     1       0.359   7.708   0.484  0.00  0.00    -0.284 N 
ATOM     26  H   UNL     1       0.781   8.517   0.893  0.00  0.00    +0.188 HD
ATOM     27  N   UNL     1       0.763   6.381   0.681  0.00  0.00    -0.174 NA
ATOM     28  C   UNL     1      -0.028   5.603  -0.026  0.00  0.00    +0.097 A 
BRANCH  28  29
ATOM     29  C   UNL     1       0.048   4.123  -0.108  0.00  0.00    +0.003 A 
ATOM     30  C   UNL     1       1.287   3.491  -0.189  0.00  0.00    +0.013 A 
ATOM     31  C   UNL     1       1.354   2.115  -0.265  0.00  0.00    +0.039 A 
ATOM     32  C   UNL     1       0.191   1.362  -0.260  0.00  0.00    +0.123 A 
ATOM     33  C   UNL     1      -1.043   1.986  -0.186  0.00  0.00    +0.039 A 
ATOM     34  C   UNL     1      -1.119   3.362  -0.104  0.00  0.00    +0.013 A 
ATOM     35  F   UNL     1       0.261   0.015  -0.334  0.00  0.00    -0.205 F 
ENDBRANCH  28  29
ENDBRANCH   6  23
TORSDOF 2
