REMARK  Name = ZINC20321887
REMARK  9 active torsions:
REMARK  status: ('A' for Active; 'I' for Inactive)
REMARK    1  A    between atoms: C_4  and  C_7
REMARK    2  A    between atoms: C_7  and  C_8
REMARK    3  A    between atoms: C_7  and  N_14
REMARK    4  A    between atoms: N_17  and  C_20
REMARK    5  A    between atoms: C_20  and  C_21
REMARK    6  A    between atoms: C_21  and  C_23
REMARK    7  A    between atoms: C_21  and  O_32
REMARK    8  A    between atoms: C_23  and  O_24
REMARK    9  A    between atoms: O_24  and  C_25
REMARK                            x       y       z     vdW  Elec       q    Type
REMARK                         _______ _______ _______ _____ _____    ______ ____
ROOT
ATOM      1  N   UNL     1       1.120   0.264   4.648  0.00  0.00    +0.389 N 
ATOM      2  C   UNL     1       1.089   1.733   4.617  0.00  0.00    -0.062 C 
ATOM      3  C   UNL     1       0.526   2.202   3.274  0.00  0.00    +0.066 C 
ATOM      4  N   UNL     1       1.360   1.673   2.185  0.00  0.00    -0.303 NA
ATOM      5  C   UNL     1       1.390   0.204   2.215  0.00  0.00    +0.066 C 
ATOM      6  C   UNL     1       1.953  -0.265   3.559  0.00  0.00    -0.062 C 
ATOM      7  H   UNL     1       0.093  -0.100   4.497  0.00  0.00    -0.080 HD
ENDROOT
BRANCH   1   8
ATOM      8  C   UNL     1       1.584  -0.226   5.952  0.00  0.00    -0.007 C 
BRANCH   8  12
ATOM      9  C   UNL     1      -1.166   0.985   8.989  0.00  0.00    +0.000 A 
ATOM     10  C   UNL     1       0.195   1.050   9.223  0.00  0.00    +0.000 A 
ATOM     11  C   UNL     1       1.085   0.658   8.240  0.00  0.00    +0.002 A 
ATOM     12  C   UNL     1       0.614   0.201   7.024  0.00  0.00    -0.057 A 
ATOM     13  C   UNL     1      -0.747   0.141   6.788  0.00  0.00    +0.002 A 
ATOM     14  C   UNL     1      -1.637   0.528   7.772  0.00  0.00    +0.000 A 
ENDBRANCH   8  12
BRANCH   8  15
ATOM     15  C   UNL     1       1.669  -1.730   5.922  0.00  0.00    -0.057 A 
ATOM     16  C   UNL     1       0.627  -2.471   5.397  0.00  0.00    +0.002 A 
ATOM     17  C   UNL     1       0.707  -3.851   5.365  0.00  0.00    +0.000 A 
ATOM     18  C   UNL     1       1.825  -4.490   5.868  0.00  0.00    +0.000 A 
ATOM     19  C   UNL     1       2.864  -3.749   6.399  0.00  0.00    +0.000 A 
ATOM     20  C   UNL     1       2.787  -2.369   6.426  0.00  0.00    +0.002 A 
ENDBRANCH   8  15
ENDBRANCH   1   8
BRANCH   4  21
ATOM     21  C   UNL     1       0.896   2.163   0.880  0.00  0.00    +0.119 C 
BRANCH  21  22
ATOM     22  C   UNL     1       1.324   3.621   0.702  0.00  0.00    +0.166 C 
BRANCH  22  23
ATOM     23  O   UNL     1       2.750   3.705   0.727  0.00  0.00    -0.387 OA
ATOM     24  H   UNL     1       3.245   4.681   0.612  0.00  0.00    +0.210 HD
ENDBRANCH  22  23
BRANCH  22  25
ATOM     25  C   UNL     1       0.805   4.144  -0.639  0.00  0.00    +0.261 C 
BRANCH  25  26
ATOM     26  O   UNL     1       1.104   5.537  -0.755  0.00  0.00    -0.488 OA
BRANCH  26  27
ATOM     27  C   UNL     1       0.708   6.160  -1.896  0.00  0.00    +0.135 A 
ATOM     28  C   UNL     1       0.051   5.445  -2.886  0.00  0.00    +0.047 A 
ATOM     29  C   UNL     1      -0.356   6.082  -4.043  0.00  0.00    +0.004 A 
ATOM     30  C   UNL     1      -0.099   7.429  -4.219  0.00  0.00    +0.001 A 
ATOM     31  C   UNL     1       0.561   8.143  -3.236  0.00  0.00    +0.019 A 
ATOM     32  C   UNL     1       0.965   7.512  -2.075  0.00  0.00    +0.059 A 
ATOM     33 BR   UNL     1       1.868   8.490  -0.731  0.00  0.00    -0.047 Br
ENDBRANCH  26  27
ENDBRANCH  25  26
ENDBRANCH  22  25
ENDBRANCH  21  22
ENDBRANCH   4  21
TORSDOF 9
