REMARK  Name = ZINC33009242
REMARK  6 active torsions:
REMARK  status: ('A' for Active; 'I' for Inactive)
REMARK    1  A    between atoms: C_1  and  C_2
REMARK    2  A    between atoms: C_6  and  C_8
REMARK    3  A    between atoms: N_10  and  C_11
REMARK    4  A    between atoms: C_14  and  N_28
REMARK    5  A    between atoms: C_15  and  N_17
REMARK    6  A    between atoms: N_20  and  C_21
REMARK                            x       y       z     vdW  Elec       q    Type
REMARK                         _______ _______ _______ _____ _____    ______ ____
ROOT
ATOM      1  C   UNL     1       2.141   7.322  -0.804  0.00  0.00    +0.036 A 
ATOM      2  C   UNL     1       0.821   7.750  -0.778  0.00  0.00    +0.025 A 
ATOM      3  C   UNL     1       0.530   9.100  -0.734  0.00  0.00    +0.027 A 
ATOM      4  C   UNL     1       1.557  10.032  -0.726  0.00  0.00    +0.051 A 
ATOM      5  C   UNL     1       2.884   9.606  -0.757  0.00  0.00    +0.058 A 
ATOM      6  C   UNL     1       3.173   8.251  -0.796  0.00  0.00    +0.048 A 
ENDROOT
BRANCH   5   7
ATOM      7  N   UNL     1       3.924  10.546  -0.750  0.00  0.00    -0.267 N 
ATOM      8  C   UNL     1       5.148  10.193  -0.310  0.00  0.00    +0.308 C 
ATOM      9  O   UNL     1       5.327   9.091   0.173  0.00  0.00    -0.252 OA
ATOM     10  N   UNL     1       6.175  11.060  -0.407  0.00  0.00    -0.269 N 
ATOM     11  H   UNL     1       3.741  11.572  -1.102  0.00  0.00    +0.156 HD
ATOM     12  H   UNL     1       5.998  12.083  -0.772  0.00  0.00    +0.156 HD
BRANCH  10  13
ATOM     13  C   UNL     1       7.467  10.660  -0.043  0.00  0.00    +0.035 A 
ATOM     14  C   UNL     1       7.653   9.811   1.039  0.00  0.00    +0.026 A 
ATOM     15  C   UNL     1       8.927   9.413   1.393  0.00  0.00    +0.040 A 
ATOM     16  C   UNL     1      10.020   9.869   0.676  0.00  0.00    +0.124 A 
ATOM     17  C   UNL     1       9.837  10.721  -0.401  0.00  0.00    +0.040 A 
ATOM     18  C   UNL     1       8.564  11.116  -0.762  0.00  0.00    +0.026 A 
ATOM     19  F   UNL     1      11.266   9.483   1.026  0.00  0.00    -0.205 F 
ENDBRANCH  10  13
ENDBRANCH   5   7
BRANCH   4  20
ATOM     20  N   UNL     1       1.261  11.402  -0.686  0.00  0.00    -0.328 N 
ATOM     21  C   UNL     1      -0.201  11.627  -0.550  0.00  0.00    +0.105 C 
ATOM     22  C   UNL     1      -0.287  13.074  -0.004  0.00  0.00    +0.020 C 
ATOM     23  C   UNL     1       0.917  13.151   0.962  0.00  0.00    +0.020 C 
ATOM     24  C   UNL     1       1.879  12.043   0.495  0.00  0.00    +0.105 C 
ENDBRANCH   4  20
BRANCH   1  27
ATOM     25  C   UNL     1       1.623   5.073  -0.222  0.00  0.00    +0.248 C 
ATOM     26  O   UNL     1       0.692   5.474   0.449  0.00  0.00    -0.270 OA
ATOM     27  N   UNL     1       2.433   5.953  -0.844  0.00  0.00    -0.281 N 
ATOM     28  H   UNL     1       3.323   5.595  -1.383  0.00  0.00    +0.155 HD
BRANCH  25  34
ATOM     29  C   UNL     1       0.351   0.366   0.838  0.00  0.00    +0.044 C 
ATOM     30  C   UNL     1       1.258   1.354   0.151  0.00  0.00    -0.050 A 
ATOM     31  C   UNL     1       2.321   0.902  -0.610  0.00  0.00    +0.003 A 
ATOM     32  C   UNL     1       3.155   1.802  -1.249  0.00  0.00    +0.001 A 
ATOM     33  C   UNL     1       2.934   3.158  -1.127  0.00  0.00    +0.013 A 
ATOM     34  C   UNL     1       1.866   3.622  -0.357  0.00  0.00    +0.037 A 
ATOM     35  C   UNL     1       1.029   2.708   0.285  0.00  0.00    +0.016 A 
ENDBRANCH  25  34
ENDBRANCH   1  27
TORSDOF 5
