REMARK  Name = ZINC31773928
REMARK  7 active torsions:
REMARK  status: ('A' for Active; 'I' for Inactive)
REMARK    1  A    between atoms: C_1  and  C_2
REMARK    2  A    between atoms: C_2  and  C_4
REMARK    3  A    between atoms: C_2  and  S_14
REMARK    4  A    between atoms: N_6  and  C_7
REMARK    5  A    between atoms: S_14  and  C_15
REMARK    6  A    between atoms: C_20  and  C_28
REMARK    7  A    between atoms: C_21  and  C_23
REMARK                            x       y       z     vdW  Elec       q    Type
REMARK                         _______ _______ _______ _____ _____    ______ ____
ROOT
ATOM      1  C   UNL     1       2.309   0.008  -0.008  0.00  0.00    +0.170 A 
ATOM      2  N   UNL     1       2.350   1.370  -0.002  0.00  0.00    -0.301 N 
ATOM      3  H   UNL     1       3.319   1.891  -0.015  0.00  0.00    +0.171 HD
ATOM      4  C   UNL     1       1.208   2.088   0.021  0.00  0.00    +0.270 A 
ATOM      5  O   UNL     1       1.239   3.307   0.027  0.00  0.00    -0.266 OA
ATOM      6  C   UNL     1      -0.029   1.396   0.038  0.00  0.00    +0.145 A 
ATOM      7  C   UNL     1      -0.006  -0.015   0.030  0.00  0.00    +0.131 A 
ATOM      8  N   UNL     1       1.170  -0.653   0.007  0.00  0.00    -0.219 NA
ENDROOT
BRANCH   7   9
ATOM      9  C   UNL     1      -1.262  -0.777   0.047  0.00  0.00    +0.154 A 
ATOM     10  C   UNL     1      -1.375  -2.137   0.036  0.00  0.00    +0.051 A 
ATOM     11  C   UNL     1      -2.749  -2.429   0.063  0.00  0.00    +0.042 A 
ATOM     12  C   UNL     1      -3.405  -1.248   0.080  0.00  0.00    +0.196 A 
ATOM     13  O   UNL     1      -2.505  -0.255   0.070  0.00  0.00    -0.461 OA
ENDBRANCH   7   9
BRANCH   6  14
ATOM     14  C   UNL     1      -1.270   2.111   0.056  0.00  0.00    +0.107 C 
ATOM     15  N   UNL     1      -2.255   2.677   0.071  0.00  0.00    -0.191 NA
ENDBRANCH   6  14
BRANCH   1  16
ATOM     16  S   UNL     1       3.822  -0.894  -0.038  0.00  0.00    -0.075 S 
BRANCH  16  18
ATOM     17  C   UNL     1       2.450  -2.854   1.281  0.00  0.00    +0.029 C 
ATOM     18  C   UNL     1       3.179  -2.586  -0.037  0.00  0.00    +0.137 C 
BRANCH  18  19
ATOM     19  C   UNL     1       4.322  -3.557  -0.185  0.00  0.00    +0.230 C 
ATOM     20  O   UNL     1       5.439  -3.237   0.163  0.00  0.00    -0.274 OA
ATOM     21  N   UNL     1       4.103  -4.782  -0.705  0.00  0.00    -0.285 N 
ATOM     22  H   UNL     1       3.079  -5.100  -0.950  0.00  0.00    +0.155 HD
BRANCH  21  23
ATOM     23  C   UNL     1       5.178  -5.648  -0.932  0.00  0.00    +0.033 A 
ATOM     24  C   UNL     1       5.161  -6.505  -2.025  0.00  0.00    +0.024 A 
ATOM     25  C   UNL     1       6.226  -7.355  -2.250  0.00  0.00    +0.017 A 
ATOM     26  C   UNL     1       7.304  -7.361  -1.383  0.00  0.00    +0.018 A 
ATOM     27  C   UNL     1       7.321  -6.512  -0.290  0.00  0.00    +0.017 A 
ATOM     28  C   UNL     1       6.261  -5.656  -0.063  0.00  0.00    +0.024 A 
ATOM     29 BR   UNL     1       8.757  -8.531  -1.691  0.00  0.00    -0.050 Br
ENDBRANCH  21  23
ENDBRANCH  18  19
ENDBRANCH  16  18
ENDBRANCH   1  16
TORSDOF 6
