REMARK  Name = ZINC64531536
REMARK  8 active torsions:
REMARK  status: ('A' for Active; 'I' for Inactive)
REMARK    1  A    between atoms: C_1  and  C_2
REMARK    2  A    between atoms: C_2  and  N_3
REMARK    3  A    between atoms: C_4  and  C_6
REMARK    4  A    between atoms: C_9  and  N_13
REMARK    5  A    between atoms: C_10  and  C_12
REMARK    6  A    between atoms: C_20  and  C_21
REMARK    7  A    between atoms: C_24  and  C_28
REMARK    8  A    between atoms: C_25  and  C_27
REMARK                            x       y       z     vdW  Elec       q    Type
REMARK                         _______ _______ _______ _____ _____    ______ ____
ROOT
ATOM      1  N   UNL     1      -6.893  -3.792   0.046  0.00  0.00    -0.269 N 
ATOM      2  C   UNL     1      -7.927  -2.934   0.157  0.00  0.00    +0.307 C 
ATOM      3  O   UNL     1      -7.725  -1.736   0.157  0.00  0.00    -0.252 OA
ATOM      4  N   UNL     1      -9.185  -3.406   0.267  0.00  0.00    -0.278 N 
ATOM      5  C   UNL     1      -9.570  -4.829   0.287  0.00  0.00    +0.110 C 
ATOM      6  C   UNL     1     -11.043  -4.847  -0.191  0.00  0.00    +0.021 C 
ATOM      7  C   UNL     1     -11.599  -3.554   0.462  0.00  0.00    +0.029 C 
ATOM      8  C   UNL     1     -10.399  -2.587   0.394  0.00  0.00    +0.108 C 
ATOM      9  H   UNL     1      -7.059  -4.745  -0.020  0.00  0.00    +0.156 HD
ENDROOT
BRANCH   8  10
ATOM     10  C   UNL     1     -10.331  -1.761   1.653  0.00  0.00    -0.027 A 
ATOM     11  C   UNL     1      -9.789  -2.301   2.805  0.00  0.00    +0.006 A 
ATOM     12  C   UNL     1      -9.726  -1.544   3.960  0.00  0.00    +0.004 A 
ATOM     13  C   UNL     1     -10.206  -0.247   3.963  0.00  0.00    -0.048 A 
ATOM     14  C   UNL     1     -10.747   0.293   2.811  0.00  0.00    -0.047 A 
ATOM     15  C   UNL     1     -10.805  -0.463   1.655  0.00  0.00    +0.009 A 
ATOM     16  C   UNL     1     -11.270   1.706   2.814  0.00  0.00    +0.044 C 
ATOM     17  C   UNL     1     -10.139   0.578   5.222  0.00  0.00    +0.044 C 
ENDBRANCH   8  10
BRANCH   1  21
ATOM     18  C   UNL     1      -2.986  -2.348  -0.011  0.00  0.00    +0.037 A 
ATOM     19  C   UNL     1      -4.015  -1.609  -0.603  0.00  0.00    +0.015 A 
ATOM     20  C   UNL     1      -5.305  -2.090  -0.583  0.00  0.00    +0.024 A 
ATOM     21  C   UNL     1      -5.585  -3.309   0.027  0.00  0.00    +0.038 A 
ATOM     22  C   UNL     1      -4.564  -4.046   0.618  0.00  0.00    -0.028 A 
ATOM     23  C   UNL     1      -3.271  -3.574   0.596  0.00  0.00    +0.018 A 
ATOM     24  C   UNL     1      -4.873  -5.365   1.278  0.00  0.00    +0.045 C 
BRANCH  18  26
ATOM     25  N   UNL     1      -1.329  -0.654  -0.617  0.00  0.00    -0.312 N 
ATOM     26  C   UNL     1      -1.602  -1.837  -0.032  0.00  0.00    +0.244 C 
ATOM     27  O   UNL     1      -0.708  -2.482   0.479  0.00  0.00    -0.270 OA
ATOM     28  H   UNL     1      -2.043  -0.138  -1.025  0.00  0.00    +0.149 HD
BRANCH  25  30
ATOM     29  C   UNL     1       0.079   1.204  -1.357  0.00  0.00    +0.024 C 
ATOM     30  C   UNL     1       0.045  -0.146  -0.637  0.00  0.00    +0.101 C 
ENDBRANCH  25  30
ENDBRANCH  18  26
ENDBRANCH   1  21
TORSDOF 4
