REMARK  Name = ZINC19104012
REMARK  3 active torsions:
REMARK  status: ('A' for Active; 'I' for Inactive)
REMARK    1  A    between atoms: N_7  and  S_15
REMARK    2  A    between atoms: C_9  and  C_12
REMARK    3  A    between atoms: S_15  and  C_18
REMARK                            x       y       z     vdW  Elec       q    Type
REMARK                         _______ _______ _______ _____ _____    ______ ____
ROOT
ATOM      1  C   UNL     1      -2.065   4.794   2.364  0.00  0.00    +0.002 A 
ATOM      2  C   UNL     1      -2.115   5.499   1.176  0.00  0.00    +0.004 A 
ATOM      3  C   UNL     1      -1.702   4.908  -0.004  0.00  0.00    +0.047 A 
ATOM      4  C   UNL     1      -1.234   3.603   0.000  0.00  0.00    +0.144 A 
ATOM      5  C   UNL     1      -1.186   2.894   1.198  0.00  0.00    +0.093 A 
ATOM      6  C   UNL     1      -1.601   3.491   2.378  0.00  0.00    +0.028 A 
ATOM      7  N   UNL     1      -0.720   1.569   1.206  0.00  0.00    -0.195 N 
ATOM      8  C   UNL     1      -0.013   1.086   0.008  0.00  0.00    +0.185 C 
ATOM      9  C   UNL     1      -0.773   1.603  -1.221  0.00  0.00    +0.277 C 
ATOM     10  O   UNL     1      -0.826   3.031  -1.163  0.00  0.00    -0.476 OA
ENDROOT
BRANCH   9  11
ATOM     11  C   UNL     1      -0.057   1.175  -2.476  0.00  0.00    +0.253 C 
ATOM     12  O   UNL     1       0.437   2.007  -3.207  0.00  0.00    -0.272 OA
ATOM     13  N   UNL     1       0.036  -0.134  -2.785  0.00  0.00    -0.326 N 
ATOM     14  H   UNL     1      -0.359  -0.800  -2.201  0.00  0.00    +0.145 HD
ATOM     15  H   UNL     1       0.497  -0.410  -3.593  0.00  0.00    +0.145 HD
ENDBRANCH   9  11
BRANCH   7  16
ATOM     16  S   UNL     1      -0.957   0.585   2.517  0.00  0.00    +0.077 S 
ATOM     17  O   UNL     1      -2.084   1.100   3.212  0.00  0.00    -0.150 OA
ATOM     18  O   UNL     1      -0.903  -0.751   2.036  0.00  0.00    -0.150 OA
BRANCH  16  19
ATOM     19  C   UNL     1       0.431   0.793   3.583  0.00  0.00    +0.137 A 
ATOM     20  C   UNL     1       0.265   1.336   4.812  0.00  0.00    +0.031 A 
ATOM     21  C   UNL     1       1.340   1.515   5.682  0.00  0.00    +0.004 A 
ATOM     22  C   UNL     1       2.599   1.153   5.337  0.00  0.00    +0.031 A 
ATOM     23  C   UNL     1       2.848   0.578   4.063  0.00  0.00    +0.102 A 
ATOM     24  C   UNL     1       1.721   0.386   3.155  0.00  0.00    +0.126 A 
ATOM     25  N   UNL     1       2.098  -0.156   1.999  0.00  0.00    -0.189 NA
ATOM     26  S   UNL     1       3.646  -0.379   2.103  0.00  0.00    +0.117 S 
ATOM     27  N   UNL     1       3.995   0.159   3.533  0.00  0.00    -0.191 NA
ENDBRANCH  16  19
ENDBRANCH   7  16
TORSDOF 3
