REMARK  Name = ZINC14271244
REMARK  9 active torsions:
REMARK  status: ('A' for Active; 'I' for Inactive)
REMARK    1  A    between atoms: C_1  and  O_2
REMARK    2  A    between atoms: O_2  and  C_3
REMARK    3  A    between atoms: C_12  and  C_13
REMARK    4  A    between atoms: N_15  and  C_16
REMARK    5  A    between atoms: C_16  and  N_18
REMARK    6  A    between atoms: N_18  and  C_19
REMARK    7  A    between atoms: C_22  and  N_25
REMARK    8  A    between atoms: C_26  and  C_28
REMARK    9  A    between atoms: C_28  and  C_29
REMARK                            x       y       z     vdW  Elec       q    Type
REMARK                         _______ _______ _______ _____ _____    ______ ____
ROOT
ATOM      1  N   UNL     1      -4.888   5.564   0.057  0.00  0.00    -0.297 N 
ATOM      2  H   UNL     1      -4.080   6.056  -0.155  0.00  0.00    +0.154 HD
ENDROOT
BRANCH   1   3
ATOM      3  C   UNL     1      -6.135   6.195  -0.028  0.00  0.00    +0.033 A 
ATOM      4  C   UNL     1      -6.427   7.012  -1.113  0.00  0.00    +0.025 A 
ATOM      5  C   UNL     1      -7.659   7.630  -1.199  0.00  0.00    +0.025 A 
ATOM      6  C   UNL     1      -8.601   7.444  -0.196  0.00  0.00    +0.034 A 
ATOM      7  C   UNL     1      -8.306   6.632   0.891  0.00  0.00    +0.025 A 
ATOM      8  C   UNL     1      -7.077   6.009   0.975  0.00  0.00    +0.025 A 
BRANCH   6   9
ATOM      9  N   UNL     1      -9.848   8.076  -0.281  0.00  0.00    -0.285 N 
ATOM     10  C   UNL     1     -10.446   8.229  -1.479  0.00  0.00    +0.222 C 
ATOM     11  O   UNL     1      -9.880   7.868  -2.490  0.00  0.00    -0.275 OA
ATOM     12  H   UNL     1     -10.282   8.403   0.523  0.00  0.00    +0.155 HD
BRANCH  10  13
ATOM     13  C   UNL     1     -11.816   8.850  -1.564  0.00  0.00    +0.131 C 
BRANCH  13  14
ATOM     14  C   UNL     1     -12.255   8.905  -3.005  0.00  0.00    -0.039 A 
ATOM     15  C   UNL     1     -11.963  10.017  -3.773  0.00  0.00    +0.004 A 
ATOM     16  C   UNL     1     -12.360  10.066  -5.096  0.00  0.00    +0.000 A 
ATOM     17  C   UNL     1     -13.059   9.008  -5.648  0.00  0.00    +0.000 A 
ATOM     18  C   UNL     1     -13.355   7.899  -4.878  0.00  0.00    +0.000 A 
ATOM     19  C   UNL     1     -12.953   7.848  -3.556  0.00  0.00    +0.004 A 
ENDBRANCH  13  14
ENDBRANCH  10  13
ENDBRANCH   6   9
ENDBRANCH   1   3
BRANCH   1  20
ATOM     20  C   UNL     1      -4.811   4.272   0.433  0.00  0.00    +0.141 C 
ATOM     21  S   UNL     1      -6.227   3.430   0.899  0.00  0.00    -0.018 S 
BRANCH  20  24
ATOM     22  C   UNL     1      -3.542   2.350   0.818  0.00  0.00    +0.253 C 
ATOM     23  O   UNL     1      -4.548   1.753   1.149  0.00  0.00    -0.270 OA
ATOM     24  N   UNL     1      -3.619   3.642   0.442  0.00  0.00    -0.263 N 
ATOM     25  H   UNL     1      -2.817   4.119   0.178  0.00  0.00    +0.157 HD
BRANCH  22  35
ATOM     26  C   UNL     1      -2.162   0.309   1.223  0.00  0.00    +0.133 A 
ATOM     27  C   UNL     1      -0.966  -0.346   1.239  0.00  0.00    +0.055 A 
ATOM     28  C   UNL     1       0.208   0.327   0.860  0.00  0.00    -0.014 A 
ATOM     29  C   UNL     1       1.452  -0.328   0.869  0.00  0.00    +0.008 A 
ATOM     30  C   UNL     1       2.573   0.348   0.497  0.00  0.00    +0.001 A 
ATOM     31  C   UNL     1       2.509   1.685   0.106  0.00  0.00    +0.001 A 
ATOM     32  C   UNL     1       1.324   2.352   0.084  0.00  0.00    +0.008 A 
ATOM     33  C   UNL     1       0.142   1.687   0.462  0.00  0.00    -0.017 A 
ATOM     34  C   UNL     1      -1.093   2.349   0.456  0.00  0.00    +0.025 A 
ATOM     35  C   UNL     1      -2.238   1.662   0.828  0.00  0.00    +0.079 A 
BRANCH  26  37
ATOM     36  C   UNL     1      -3.150  -1.715   1.979  0.00  0.00    +0.277 C 
ATOM     37  O   UNL     1      -3.292  -0.347   1.590  0.00  0.00    -0.494 OA
ENDBRANCH  26  37
ENDBRANCH  22  35
ENDBRANCH  20  24
ENDBRANCH   1  20
TORSDOF 8
