REMARK  Name = ZINC13019523
REMARK  9 active torsions:
REMARK  status: ('A' for Active; 'I' for Inactive)
REMARK    1  A    between atoms: C_1  and  C_2
REMARK    2  A    between atoms: C_2  and  C_4
REMARK    3  A    between atoms: C_2  and  S_17
REMARK    4  A    between atoms: N_6  and  C_7
REMARK    5  A    between atoms: C_12  and  C_13
REMARK    6  A    between atoms: S_17  and  C_18
REMARK    7  A    between atoms: C_21  and  C_26
REMARK    8  A    between atoms: N_22  and  C_23
REMARK    9  A    between atoms: C_23  and  C_24
REMARK                            x       y       z     vdW  Elec       q    Type
REMARK                         _______ _______ _______ _____ _____    ______ ____
ROOT
ATOM      1  S   UNL     1      -2.996   0.942  -2.641  0.00  0.00    -0.073 S 
ENDROOT
BRANCH   1   2
ATOM      2  C   UNL     1      -3.189   0.331  -1.000  0.00  0.00    +0.193 A 
ATOM      3  N   UNL     1      -3.994  -0.635  -0.617  0.00  0.00    -0.122 NA
ATOM      4  N   UNL     1      -3.888  -0.823   0.650  0.00  0.00    -0.128 NA
ATOM      5  C   UNL     1      -3.005   0.008   1.153  0.00  0.00    +0.165 A 
ATOM      6  N   UNL     1      -2.527   0.770   0.112  0.00  0.00    -0.291 N 
BRANCH   5   7
ATOM      7  C   UNL     1      -2.600   0.107   2.572  0.00  0.00    +0.019 A 
ATOM      8  C   UNL     1      -1.420   0.766   2.919  0.00  0.00    +0.013 A 
ATOM      9  C   UNL     1      -1.050   0.858   4.245  0.00  0.00    +0.021 A 
ATOM     10  C   UNL     1      -1.842   0.291   5.229  0.00  0.00    +0.041 A 
ATOM     11  C   UNL     1      -3.012  -0.368   4.890  0.00  0.00    +0.021 A 
ATOM     12  C   UNL     1      -3.395  -0.463   3.568  0.00  0.00    +0.013 A 
ATOM     13 CL   UNL     1      -1.367   0.407   6.895  0.00  0.00    -0.084 Cl
ENDBRANCH   5   7
BRANCH   6  14
ATOM     14  C   UNL     1      -1.524   1.835   0.181  0.00  0.00    +0.250 C 
BRANCH  14  15
ATOM     15  C   UNL     1      -0.145   1.231   0.102  0.00  0.00    +0.375 C 
ATOM     16  O   UNL     1      -0.015   0.035  -0.003  0.00  0.00    -0.244 OA
ATOM     17  O   UNL     1       0.938   2.024   0.141  0.00  0.00    -0.244 OA
ENDBRANCH  14  15
ENDBRANCH   6  14
ENDBRANCH   1   2
BRANCH   1  19
ATOM     18  C   UNL     1      -5.594   0.184  -3.017  0.00  0.00    +0.029 C 
ATOM     19  C   UNL     1      -4.178  -0.117  -3.512  0.00  0.00    +0.137 C 
BRANCH  19  20
ATOM     20  C   UNL     1      -4.096   0.151  -4.992  0.00  0.00    +0.230 C 
ATOM     21  O   UNL     1      -3.612   1.188  -5.395  0.00  0.00    -0.274 OA
ATOM     22  N   UNL     1      -4.560  -0.761  -5.869  0.00  0.00    -0.284 N 
ATOM     23  H   UNL     1      -5.015  -1.555  -5.547  0.00  0.00    +0.155 HD
BRANCH  22  24
ATOM     24  C   UNL     1      -4.386  -0.563  -7.243  0.00  0.00    +0.045 A 
ATOM     25  C   UNL     1      -3.350   0.239  -7.705  0.00  0.00    +0.024 A 
ATOM     26  C   UNL     1      -3.178   0.429  -9.062  0.00  0.00    +0.002 A 
ATOM     27  C   UNL     1      -4.042  -0.171  -9.960  0.00  0.00    +0.001 A 
ATOM     28  C   UNL     1      -5.077  -0.965  -9.504  0.00  0.00    +0.014 A 
ATOM     29  C   UNL     1      -5.252  -1.162  -8.148  0.00  0.00    +0.076 A 
BRANCH  29  30
ATOM     30  C   UNL     1      -6.381  -2.028  -7.651  0.00  0.00    +0.419 C 
ATOM     31  F   UNL     1      -7.109  -2.515  -8.742  0.00  0.00    -0.166 F 
ATOM     32  F   UNL     1      -5.860  -3.101  -6.920  0.00  0.00    -0.166 F 
ATOM     33  F   UNL     1      -7.223  -1.270  -6.830  0.00  0.00    -0.166 F 
ENDBRANCH  29  30
ENDBRANCH  22  24
ENDBRANCH  19  20
ENDBRANCH   1  19
TORSDOF 8
