REMARK  Name = ZINC36899399
REMARK  1 active torsions:
REMARK  status: ('A' for Active; 'I' for Inactive)
REMARK    1  A    between atoms: C_5  and  N_7
REMARK                            x       y       z     vdW  Elec       q    Type
REMARK                         _______ _______ _______ _____ _____    ______ ____
ROOT
ATOM      1  N   UNL     1       1.237  -2.082  -0.021  0.00  0.00    -0.280 N 
ATOM      2  C   UNL     1       1.255  -2.912   1.091  0.00  0.00    +0.075 A 
ATOM      3  C   UNL     1       1.260  -2.686   2.458  0.00  0.00    +0.031 A 
ATOM      4  C   UNL     1       1.281  -3.753   3.332  0.00  0.00    +0.040 A 
ATOM      5  C   UNL     1       1.299  -5.056   2.850  0.00  0.00    +0.126 A 
ATOM      6  C   UNL     1       1.295  -5.298   1.492  0.00  0.00    +0.068 A 
ATOM      7  C   UNL     1       1.273  -4.226   0.596  0.00  0.00    +0.094 A 
ATOM      8  N   UNL     1       1.265  -4.144  -0.760  0.00  0.00    -0.214 NA
ATOM      9  C   UNL     1       1.238  -2.887  -1.127  0.00  0.00    +0.199 A 
ATOM     10  N   UNL     1       1.217  -2.442  -2.432  0.00  0.00    -0.329 N 
ATOM     11  F   UNL     1       1.320  -6.092   3.716  0.00  0.00    -0.205 F 
ATOM     12  H   UNL     1       1.200  -1.491  -2.619  0.00  0.00    +0.145 HD
ATOM     13  H   UNL     1       1.220  -3.080  -3.162  0.00  0.00    +0.145 HD
ENDROOT
BRANCH   1  18
ATOM     14  C   UNL     1      -0.017   1.377   0.010  0.00  0.00    +0.002 A 
ATOM     15  C   UNL     1       1.171   2.086   0.002  0.00  0.00    +0.001 A 
ATOM     16  C   UNL     1       2.380   1.416  -0.013  0.00  0.00    +0.016 A 
ATOM     17  C   UNL     1       2.405   0.034  -0.021  0.00  0.00    +0.037 A 
ATOM     18  C   UNL     1       1.214  -0.681  -0.013  0.00  0.00    +0.063 A 
ATOM     19  C   UNL     1       0.002  -0.004   0.002  0.00  0.00    +0.027 A 
ATOM     20  I   UNL     1       4.238  -0.981  -0.045  0.00  0.00    -0.042 I 
ENDBRANCH   1  18
TORSDOF 1
