REMARK  Name = ZINC61900158
REMARK  7 active torsions:
REMARK  status: ('A' for Active; 'I' for Inactive)
REMARK    1  A    between atoms: C_1  and  C_2
REMARK    2  A    between atoms: C_11  and  C_14
REMARK    3  A    between atoms: C_14  and  N_15
REMARK    4  A    between atoms: C_16  and  C_18
REMARK    5  A    between atoms: C_18  and  N_26
REMARK    6  A    between atoms: C_19  and  C_20
REMARK    7  A    between atoms: C_27  and  C_29
REMARK                            x       y       z     vdW  Elec       q    Type
REMARK                         _______ _______ _______ _____ _____    ______ ____
ROOT
ATOM      1  N   UNL     1      -1.885  -7.552   4.255  0.00  0.00    -0.306 N 
ATOM      2  C   UNL     1      -2.224  -8.591   5.044  0.00  0.00    +0.259 C 
ATOM      3  O   UNL     1      -2.518  -8.400   6.208  0.00  0.00    -0.269 OA
ATOM      4  H   UNL     1      -1.650  -7.705   3.326  0.00  0.00    +0.149 HD
ENDROOT
BRANCH   2   5
ATOM      5  C   UNL     1      -2.237  -9.956   4.497  0.00  0.00    +0.096 C 
ATOM      6  C   UNL     1      -2.717 -10.978   5.241  0.00  0.00    +0.036 C 
BRANCH   6   7
ATOM      7  C   UNL     1      -3.446 -10.701   6.488  0.00  0.00    -0.023 A 
ATOM      8  C   UNL     1      -4.415  -9.694   6.527  0.00  0.00    +0.008 A 
ATOM      9  C   UNL     1      -5.095  -9.441   7.700  0.00  0.00    +0.001 A 
ATOM     10  C   UNL     1      -4.819 -10.180   8.837  0.00  0.00    +0.000 A 
ATOM     11  C   UNL     1      -3.861 -11.178   8.807  0.00  0.00    +0.001 A 
ATOM     12  C   UNL     1      -3.177 -11.447   7.640  0.00  0.00    +0.008 A 
ENDBRANCH   6   7
BRANCH   5  13
ATOM     13  N   UNL     1      -1.753 -10.197   3.207  0.00  0.00    -0.282 N 
ATOM     14  C   UNL     1      -0.483  -9.875   2.892  0.00  0.00    +0.214 C 
ATOM     15  O   UNL     1       0.269  -9.465   3.751  0.00  0.00    -0.276 OA
ATOM     16  C   UNL     1       0.004 -10.025   1.474  0.00  0.00    +0.109 C 
ATOM     17  H   UNL     1      -2.332 -10.595   2.538  0.00  0.00    +0.155 HD
ENDBRANCH   5  13
ENDBRANCH   2   5
BRANCH   1  18
ATOM     18  C   UNL     1      -1.872  -6.192   4.800  0.00  0.00    +0.141 C 
BRANCH  18  29
ATOM     19  C   UNL     1       1.336  -1.977  -3.098  0.00  0.00    +0.007 C 
ATOM     20  C   UNL     1       0.806  -1.745  -1.681  0.00  0.00    -0.011 C 
ATOM     21  C   UNL     1       1.715  -2.455  -0.675  0.00  0.00    +0.022 C 
ATOM     22  C   UNL     1       1.201  -2.192   0.745  0.00  0.00    +0.107 C 
ATOM     23  N   UNL     1      -0.210  -2.593   0.818  0.00  0.00    -0.317 N 
ATOM     24  C   UNL     1      -1.154  -2.039  -0.162  0.00  0.00    +0.107 C 
ATOM     25  C   UNL     1      -0.614  -2.303  -1.571  0.00  0.00    +0.022 C 
ATOM     26  C   UNL     1      -0.644  -3.480   1.796  0.00  0.00    +0.099 A 
ATOM     27  C   UNL     1      -2.003  -3.750   1.929  0.00  0.00    +0.042 A 
ATOM     28  C   UNL     1      -2.421  -4.635   2.907  0.00  0.00    +0.010 A 
ATOM     29  C   UNL     1      -1.462  -5.223   3.722  0.00  0.00    -0.014 A 
ATOM     30  C   UNL     1      -0.131  -4.910   3.534  0.00  0.00    +0.089 A 
ATOM     31  N   UNL     1       0.239  -4.066   2.590  0.00  0.00    -0.349 N 
ATOM     32  H   UNL     1       1.182  -3.866   2.477  0.00  0.00    +0.167 HD
ENDBRANCH  18  29
ENDBRANCH   1  18
TORSDOF 5
