REMARK  Name = ZINC11394997
REMARK  8 active torsions:
REMARK  status: ('A' for Active; 'I' for Inactive)
REMARK    1  A    between atoms: C_1  and  C_2
REMARK    2  A    between atoms: C_5  and  C_7
REMARK    3  A    between atoms: C_8  and  N_24
REMARK    4  A    between atoms: C_10  and  S_20
REMARK    5  A    between atoms: C_11  and  C_18
REMARK    6  A    between atoms: S_20  and  C_21
REMARK    7  A    between atoms: C_21  and  C_22
REMARK    8  A    between atoms: C_21  and  C_23
REMARK                            x       y       z     vdW  Elec       q    Type
REMARK                         _______ _______ _______ _____ _____    ______ ____
ROOT
ATOM      1  C   UNL     1       0.070   3.193   4.737  0.00  0.00    +0.031 C 
ATOM      2  C   UNL     1       1.390   3.065   4.982  0.00  0.00    +0.092 C 
ATOM      3  N   UNL     1       1.882   3.149   6.271  0.00  0.00    -0.297 N 
ATOM      4  C   UNL     1       1.032   2.990   7.340  0.00  0.00    +0.081 C 
ATOM      5  C   UNL     1      -0.313   3.110   7.180  0.00  0.00    +0.067 C 
ATOM      6  C   UNL     1      -0.921   3.431   5.842  0.00  0.00    +0.038 C 
ATOM      7  C   UNL     1      -2.149   2.542   5.619  0.00  0.00    +0.017 C 
ATOM      8  C   UNL     1      -2.771   2.867   4.260  0.00  0.00    +0.001 C 
ATOM      9  C   UNL     1      -3.199   4.335   4.232  0.00  0.00    +0.000 C 
ATOM     10  C   UNL     1      -1.978   5.227   4.464  0.00  0.00    +0.001 C 
ATOM     11  C   UNL     1      -1.357   4.899   5.823  0.00  0.00    +0.017 C 
ATOM     12  H   UNL     1       2.952   3.343   6.439  0.00  0.00    +0.154 HD
ENDROOT
BRANCH   1  17
ATOM     13  C   UNL     1      -1.387   4.891   0.296  0.00  0.00    +0.066 C 
ATOM     14  C   UNL     1      -1.100   3.778   1.271  0.00  0.00    +0.046 A 
ATOM     15  C   UNL     1      -1.292   2.487   0.903  0.00  0.00    +0.070 A 
ATOM     16  S   UNL     1      -0.808   1.637   2.400  0.00  0.00    -0.076 S 
ATOM     17  C   UNL     1      -0.410   3.092   3.360  0.00  0.00    +0.108 A 
ATOM     18  N   UNL     1      -0.669   4.059   2.482  0.00  0.00    -0.244 NA
ENDBRANCH   1  17
BRANCH   2  19
ATOM     19  N   UNL     1       2.261   2.852   3.932  0.00  0.00    -0.346 N 
ATOM     20  H   UNL     1       3.339   2.747   4.124  0.00  0.00    +0.143 HD
ATOM     21  H   UNL     1       1.877   2.788   2.903  0.00  0.00    +0.143 HD
ENDBRANCH   2  19
BRANCH   5  22
ATOM     22  C   UNL     1      -1.171   2.928   8.312  0.00  0.00    +0.098 C 
ATOM     23  N   UNL     1      -1.851   2.783   9.210  0.00  0.00    -0.191 NA
ENDBRANCH   5  22
BRANCH   4  24
ATOM     24  S   UNL     1       1.691   2.625   8.933  0.00  0.00    -0.106 S 
BRANCH  24  25
ATOM     25  C   UNL     1       3.439   2.418   8.509  0.00  0.00    +0.046 C 
ATOM     26  C   UNL     1       4.263   2.296   9.792  0.00  0.00    +0.019 C 
ATOM     27  C   UNL     1       3.613   1.151   7.669  0.00  0.00    +0.019 C 
ENDBRANCH  24  25
ENDBRANCH   4  24
TORSDOF 5
