REMARK  Name = ZINC66160781
REMARK  7 active torsions:
REMARK  status: ('A' for Active; 'I' for Inactive)
REMARK    1  A    between atoms: C_1  and  C_2
REMARK    2  A    between atoms: C_2  and  C_3
REMARK    3  A    between atoms: C_3  and  C_5
REMARK    4  A    between atoms: C_3  and  N_6
REMARK    5  A    between atoms: C_7  and  C_9
REMARK    6  A    between atoms: C_12  and  N_15
REMARK    7  A    between atoms: C_21  and  N_24
REMARK                            x       y       z     vdW  Elec       q    Type
REMARK                         _______ _______ _______ _____ _____    ______ ____
ROOT
ATOM      1  N   UNL     1      -6.036   1.443  -6.053  0.00  0.00    -0.269 N 
ATOM      2  C   UNL     1      -7.383   1.459  -6.114  0.00  0.00    +0.306 C 
ATOM      3  O   UNL     1      -8.039   1.243  -5.114  0.00  0.00    -0.252 OA
ATOM      4  N   UNL     1      -8.001   1.714  -7.284  0.00  0.00    -0.287 N 
ATOM      5  C   UNL     1      -7.333   1.985  -8.566  0.00  0.00    +0.108 C 
ATOM      6  C   UNL     1      -8.436   2.244  -9.612  0.00  0.00    +0.005 C 
ATOM      7  C   UNL     1      -9.650   2.663  -8.741  0.00  0.00    -0.049 C 
ATOM      8  C   UNL     1      -9.460   1.763  -7.493  0.00  0.00    +0.094 C 
ATOM      9  H   UNL     1      -5.513   1.680  -6.834  0.00  0.00    +0.156 HD
ENDROOT
BRANCH   1  13
ATOM     10  C   UNL     1      -4.125   0.374  -2.510  0.00  0.00    +0.037 A 
ATOM     11  C   UNL     1      -5.327   1.087  -2.470  0.00  0.00    +0.015 A 
ATOM     12  C   UNL     1      -5.956   1.439  -3.643  0.00  0.00    +0.024 A 
ATOM     13  C   UNL     1      -5.397   1.085  -4.867  0.00  0.00    +0.035 A 
ATOM     14  C   UNL     1      -4.201   0.374  -4.910  0.00  0.00    +0.024 A 
ATOM     15  C   UNL     1      -3.564   0.025  -3.741  0.00  0.00    +0.015 A 
BRANCH  10  17
ATOM     16  N   UNL     1      -3.991   0.333  -0.068  0.00  0.00    -0.309 N 
ATOM     17  C   UNL     1      -3.448  -0.005  -1.254  0.00  0.00    +0.244 C 
ATOM     18  O   UNL     1      -2.401  -0.621  -1.291  0.00  0.00    -0.270 OA
ATOM     19  H   UNL     1      -4.826   0.825  -0.039  0.00  0.00    +0.149 HD
BRANCH  16  20
ATOM     20  C   UNL     1      -3.318  -0.043   1.179  0.00  0.00    +0.070 C 
ATOM     21  C   UNL     1      -2.264   1.010   1.527  0.00  0.00    +0.028 C 
BRANCH  20  23
ATOM     22  C   UNL     1      -5.329  -1.265   2.019  0.00  0.00    +0.005 C 
ATOM     23  C   UNL     1      -4.347  -0.127   2.308  0.00  0.00    +0.018 C 
ENDBRANCH  20  23
ENDBRANCH  16  20
ENDBRANCH  10  17
ENDBRANCH   1  13
BRANCH   7  24
ATOM     24  N   UNL     1     -10.916   2.358  -9.421  0.00  0.00    +0.383 N 
ATOM     25  C   UNL     1     -12.062   2.845  -8.611  0.00  0.00    -0.078 C 
ATOM     26  C   UNL     1     -13.203   2.974  -9.652  0.00  0.00    -0.020 C 
ATOM     27  C   UNL     1     -12.466   3.489 -10.910  0.00  0.00    -0.020 C 
ATOM     28  C   UNL     1     -10.993   3.086 -10.706  0.00  0.00    -0.078 C 
ATOM     29  H   UNL     1     -10.997   1.365  -9.577  0.00  0.00    -0.081 HD
ENDBRANCH   7  24
TORSDOF 5
