REMARK  Name = ZINC03012150
REMARK  10 active torsions:
REMARK  status: ('A' for Active; 'I' for Inactive)
REMARK    1  A    between atoms: C_1  and  C_2
REMARK    2  A    between atoms: C_5  and  N_9
REMARK    3  A    between atoms: C_6  and  C_8
REMARK    4  A    between atoms: C_10  and  C_12
REMARK    5  A    between atoms: C_17  and  C_33
REMARK    6  A    between atoms: C_20  and  C_23
REMARK    7  A    between atoms: C_26  and  O_31
REMARK    8  A    between atoms: C_27  and  O_29
REMARK    9  A    between atoms: O_29  and  C_30
REMARK   10  A    between atoms: O_31  and  C_32
REMARK                            x       y       z     vdW  Elec       q    Type
REMARK                         _______ _______ _______ _____ _____    ______ ____
ROOT
ATOM      1  C   UNL     1      -0.132  -6.312  -1.187  0.00  0.00    +0.149 A 
ATOM      2  C   UNL     1      -0.234  -7.136  -2.331  0.00  0.00    +0.078 A 
ATOM      3  C   UNL     1      -0.296  -8.414  -1.907  0.00  0.00    +0.119 A 
ATOM      4  N   UNL     1      -0.233  -8.414  -0.542  0.00  0.00    -0.238 N 
ATOM      5  N   UNL     1      -0.128  -7.090  -0.118  0.00  0.00    -0.164 NA
ATOM      6  C   UNL     1      -0.269  -9.630   0.274  0.00  0.00    +0.215 C 
ATOM      7  C   UNL     1       0.101 -10.829  -0.607  0.00  0.00    +0.063 C 
ATOM      8  C   UNL     1      -0.737 -10.812  -1.890  0.00  0.00    +0.104 C 
ATOM      9  N   UNL     1      -0.405  -9.592  -2.652  0.00  0.00    -0.322 N 
ATOM     10  H   UNL     1      -0.271  -9.607  -3.612  0.00  0.00    +0.148 HD
ENDROOT
BRANCH   8  11
ATOM     11  C   UNL     1      -2.202 -10.810  -1.538  0.00  0.00    -0.024 A 
ATOM     12  C   UNL     1      -2.821  -9.631  -1.167  0.00  0.00    +0.009 A 
ATOM     13  C   UNL     1      -4.165  -9.624  -0.843  0.00  0.00    +0.050 A 
ATOM     14  C   UNL     1      -4.895 -10.801  -0.889  0.00  0.00    +0.162 A 
ATOM     15  C   UNL     1      -4.272 -11.988  -1.263  0.00  0.00    +0.162 A 
ATOM     16  C   UNL     1      -2.926 -11.987  -1.591  0.00  0.00    +0.054 A 
BRANCH  15  17
ATOM     17  O   UNL     1      -4.985 -13.145  -1.310  0.00  0.00    -0.491 OA
ATOM     18  C   UNL     1      -4.280 -14.325  -1.702  0.00  0.00    +0.277 C 
ENDBRANCH  15  17
BRANCH  14  19
ATOM     19  O   UNL     1      -6.217 -10.796  -0.570  0.00  0.00    -0.491 OA
ATOM     20  C   UNL     1      -6.789  -9.541  -0.195  0.00  0.00    +0.277 C 
ENDBRANCH  14  19
ENDBRANCH   8  11
BRANCH   1  22
ATOM     21  N   UNL     1       0.059  -4.169  -0.021  0.00  0.00    -0.280 N 
ATOM     22  C   UNL     1      -0.040  -4.838  -1.187  0.00  0.00    +0.268 C 
ATOM     23  O   UNL     1      -0.054  -4.228  -2.238  0.00  0.00    -0.268 OA
ATOM     24  H   UNL     1       0.135  -4.658   0.814  0.00  0.00    +0.155 HD
BRANCH  21  29
ATOM     25  C   UNL     1       0.024   1.503   0.005  0.00  0.00    +0.044 C 
ATOM     26  C   UNL     1       0.034  -0.004  -0.002  0.00  0.00    -0.050 A 
ATOM     27  C   UNL     1       0.631  -0.685  -1.046  0.00  0.00    +0.005 A 
ATOM     28  C   UNL     1       0.642  -2.066  -1.055  0.00  0.00    +0.024 A 
ATOM     29  C   UNL     1       0.051  -2.771  -0.014  0.00  0.00    +0.037 A 
ATOM     30  C   UNL     1      -0.549  -2.083   1.033  0.00  0.00    -0.029 A 
ATOM     31  C   UNL     1      -0.551  -0.702   1.039  0.00  0.00    +0.008 A 
ATOM     32  C   UNL     1      -1.192  -2.843   2.164  0.00  0.00    +0.045 C 
ENDBRANCH  21  29
ENDBRANCH   1  22
BRANCH   6  33
ATOM     33  C   UNL     1       0.735  -9.507   1.422  0.00  0.00    +0.412 C 
ATOM     34  F   UNL     1       0.401  -8.404   2.216  0.00  0.00    -0.168 F 
ATOM     35  F   UNL     1       0.700 -10.669   2.200  0.00  0.00    -0.168 F 
ATOM     36  F   UNL     1       2.021  -9.333   0.901  0.00  0.00    -0.168 F 
ENDBRANCH   6  33
TORSDOF 6
