REMARK  Name = ZINC35684227
REMARK  5 active torsions:
REMARK  status: ('A' for Active; 'I' for Inactive)
REMARK    1  A    between atoms: C_6  and  C_7
REMARK    2  A    between atoms: C_7  and  C_9
REMARK    3  A    between atoms: C_14  and  N_15
REMARK    4  A    between atoms: N_15  and  S_16
REMARK    5  A    between atoms: S_16  and  C_19
REMARK                            x       y       z     vdW  Elec       q    Type
REMARK                         _______ _______ _______ _____ _____    ______ ____
ROOT
ATOM      1  C   UNL     1      -1.349  -2.234   0.034  0.00  0.00    +0.048 A 
ATOM      2  C   UNL     1      -0.183  -3.004   0.092  0.00  0.00    +0.029 A 
ATOM      3  C   UNL     1      -0.268  -4.379   0.114  0.00  0.00    +0.019 A 
ATOM      4  C   UNL     1      -1.505  -5.005   0.078  0.00  0.00    +0.017 A 
ATOM      5  C   UNL     1      -2.664  -4.260   0.020  0.00  0.00    +0.028 A 
ATOM      6  C   UNL     1      -2.600  -2.872   0.004  0.00  0.00    +0.085 A 
ATOM      7 BR   UNL     1       1.310  -5.418   0.193  0.00  0.00    -0.050 Br
ENDROOT
BRANCH   1   8
ATOM      8  C   UNL     1      -1.266  -0.763   0.011  0.00  0.00    +0.195 C 
ATOM      9  O   UNL     1      -1.008  -0.152   1.030  0.00  0.00    -0.287 OA
BRANCH   8  15
ATOM     10  C   UNL     1      -1.529   1.366  -1.256  0.00  0.00    +0.013 A 
ATOM     11  C   UNL     1      -1.742   2.044  -2.437  0.00  0.00    +0.021 A 
ATOM     12  C   UNL     1      -1.923   1.343  -3.619  0.00  0.00    +0.041 A 
ATOM     13  C   UNL     1      -1.890  -0.042  -3.621  0.00  0.00    +0.021 A 
ATOM     14  C   UNL     1      -1.678  -0.731  -2.446  0.00  0.00    +0.013 A 
ATOM     15  C   UNL     1      -1.494  -0.030  -1.252  0.00  0.00    +0.022 A 
ATOM     16 CL   UNL     1      -2.191   2.204  -5.102  0.00  0.00    -0.084 Cl
ENDBRANCH   8  15
ENDBRANCH   1   8
BRANCH   6  17
ATOM     17  N   UNL     1      -3.766  -2.119  -0.048  0.00  0.00    -0.097 NA
BRANCH  17  18
ATOM     18  S   UNL     1      -5.238  -2.876  -0.083  0.00  0.00    +0.092 S 
ATOM     19  O   UNL     1      -5.307  -3.573  -1.319  0.00  0.00    -0.148 OA
ATOM     20  O   UNL     1      -5.389  -3.529   1.170  0.00  0.00    -0.148 OA
BRANCH  18  21
ATOM     21  C   UNL     1      -6.469  -1.616  -0.146  0.00  0.00    +0.114 A 
ATOM     22  C   UNL     1      -6.987  -1.098   1.027  0.00  0.00    +0.033 A 
ATOM     23  C   UNL     1      -7.953  -0.112   0.982  0.00  0.00    +0.051 A 
ATOM     24  C   UNL     1      -8.406   0.362  -0.241  0.00  0.00    +0.162 A 
ATOM     25  C   UNL     1      -7.884  -0.157  -1.419  0.00  0.00    +0.164 A 
ATOM     26  C   UNL     1      -6.912  -1.145  -1.367  0.00  0.00    +0.078 A 
ATOM     27  O   UNL     1      -8.308   0.300  -2.629  0.00  0.00    -0.485 OA
ATOM     28  C   UNL     1      -9.542   1.026  -2.647  0.00  0.00    +0.270 C 
ATOM     29  C   UNL     1      -9.516   2.046  -1.500  0.00  0.00    +0.270 C 
ATOM     30  O   UNL     1      -9.361   1.332  -0.269  0.00  0.00    -0.485 OA
ENDBRANCH  18  21
ENDBRANCH  17  18
ENDBRANCH   6  17
TORSDOF 5
