REMARK  Name = ZINC39516230
REMARK  4 active torsions:
REMARK  status: ('A' for Active; 'I' for Inactive)
REMARK    1  A    between atoms: C_1  and  N_2
REMARK    2  A    between atoms: C_3  and  C_5
REMARK    3  A    between atoms: C_8  and  C_10
REMARK    4  A    between atoms: C_18  and  C_22
REMARK                            x       y       z     vdW  Elec       q    Type
REMARK                         _______ _______ _______ _____ _____    ______ ____
ROOT
ATOM      1  C   UNL     1       0.117  -6.118   0.012  0.00  0.00    +0.112 C 
ATOM      2  C   UNL     1      -1.342  -6.515   0.318  0.00  0.00    +0.029 C 
ATOM      3  C   UNL     1      -1.758  -7.314  -0.945  0.00  0.00    +0.021 C 
ATOM      4  C   UNL     1      -1.000  -6.551  -2.059  0.00  0.00    +0.107 C 
ATOM      5  N   UNL     1       0.289  -6.170  -1.448  0.00  0.00    -0.308 N 
ATOM      6  C   UNL     1       1.464  -5.903  -2.132  0.00  0.00    +0.125 A 
ATOM      7  C   UNL     1       2.650  -5.657  -1.437  0.00  0.00    +0.067 A 
ATOM      8  C   UNL     1       3.794  -5.396  -2.164  0.00  0.00    +0.049 A 
ATOM      9  N   UNL     1       3.731  -5.389  -3.488  0.00  0.00    -0.240 NA
ATOM     10  C   UNL     1       2.596  -5.625  -4.115  0.00  0.00    +0.223 A 
ATOM     11  N   UNL     1       1.482  -5.884  -3.461  0.00  0.00    -0.221 NA
ENDROOT
BRANCH   8  12
ATOM     12  C   UNL     1       5.099  -5.123  -1.462  0.00  0.00    +0.034 C 
ATOM     13  C   UNL     1       5.179  -5.965  -0.185  0.00  0.00    -0.010 C 
ATOM     14  C   UNL     1       6.469  -5.625   0.564  0.00  0.00    -0.082 C 
ATOM     15  N   UNL     1       6.474  -4.199   0.915  0.00  0.00    +0.379 N 
ATOM     16  C   UNL     1       6.470  -3.386  -0.307  0.00  0.00    -0.082 C 
ATOM     17  C   UNL     1       5.180  -3.640  -1.089  0.00  0.00    -0.010 C 
ATOM     18  H   UNL     1       5.654  -3.986   1.463  0.00  0.00    -0.086 HD
ATOM     19  H   UNL     1       7.300  -3.990   1.455  0.00  0.00    -0.086 HD
ENDBRANCH   8  12
BRANCH   1  23
ATOM     20  C   UNL     1       0.624  -2.141   0.996  0.00  0.00    +0.074 A 
ATOM     21  C   UNL     1       1.178  -3.013   1.921  0.00  0.00    +0.021 A 
ATOM     22  C   UNL     1       1.037  -4.351   1.639  0.00  0.00    +0.014 A 
ATOM     23  C   UNL     1       0.385  -4.721   0.510  0.00  0.00    +0.011 A 
ATOM     24  S   UNL     1      -0.064  -3.268  -0.202  0.00  0.00    -0.087 S 
BRANCH  20  27
ATOM     25  C   UNL     1      -0.018   1.461   0.010  0.00  0.00    +0.128 C 
ATOM     26  N   UNL     1       0.002  -0.004   0.002  0.00  0.00    -0.314 N 
ATOM     27  C   UNL     1       0.604  -0.675   1.004  0.00  0.00    +0.250 C 
ATOM     28  O   UNL     1       1.132  -0.065   1.915  0.00  0.00    -0.270 OA
ATOM     29  H   UNL     1      -0.418  -0.491  -0.724  0.00  0.00    +0.149 HD
ENDBRANCH  20  27
ENDBRANCH   1  23
TORSDOF 3
