REMARK  Name = ZINC12714652
REMARK  12 active torsions:
REMARK  status: ('A' for Active; 'I' for Inactive)
REMARK    1  A    between atoms: C_1  and  C_2
REMARK    2  A    between atoms: C_5  and  O_36
REMARK    3  A    between atoms: C_6  and  N_8
REMARK    4  A    between atoms: N_8  and  C_9
REMARK    5  A    between atoms: C_9  and  C_11
REMARK    6  A    between atoms: C_9  and  C_17
REMARK    7  A    between atoms: C_14  and  C_16
REMARK    8  A    between atoms: N_19  and  C_20
REMARK    9  A    between atoms: C_25  and  C_27
REMARK   10  A    between atoms: C_28  and  N_35
REMARK   11  A    between atoms: C_29  and  C_32
REMARK   12  A    between atoms: O_36  and  C_37
REMARK                            x       y       z     vdW  Elec       q    Type
REMARK                         _______ _______ _______ _____ _____    ______ ____
ROOT
ATOM      1  N   UNL     1      -4.118   2.446   2.347  0.00  0.00    -0.244 N 
ATOM      2  C   UNL     1      -4.607   3.654   2.005  0.00  0.00    +0.262 C 
ATOM      3  O   UNL     1      -5.810   3.842   1.988  0.00  0.00    -0.269 OA
ENDROOT
BRANCH   1   9
ATOM      4  C   UNL     1      -0.013   1.086   0.008  0.00  0.00    +0.044 C 
ATOM      5  C   UNL     1      -0.718   1.572   1.248  0.00  0.00    -0.048 A 
ATOM      6  C   UNL     1       0.003   1.805   2.405  0.00  0.00    +0.007 A 
ATOM      7  C   UNL     1      -0.639   2.251   3.545  0.00  0.00    +0.048 A 
ATOM      8  C   UNL     1      -2.008   2.465   3.532  0.00  0.00    +0.141 A 
ATOM      9  C   UNL     1      -2.734   2.231   2.367  0.00  0.00    +0.080 A 
ATOM     10  C   UNL     1      -2.083   1.789   1.224  0.00  0.00    +0.030 A 
BRANCH   8  11
ATOM     11  O   UNL     1      -2.640   2.904   4.653  0.00  0.00    -0.493 OA
ATOM     12  C   UNL     1      -1.831   3.123   5.810  0.00  0.00    +0.277 C 
ENDBRANCH   8  11
ENDBRANCH   1   9
BRANCH   2  13
ATOM     13  C   UNL     1      -3.692   4.742   1.654  0.00  0.00    +0.116 A 
ATOM     14  C   UNL     1      -3.981   6.054   1.275  0.00  0.00    +0.076 A 
ATOM     15  C   UNL     1      -2.831   6.801   1.017  0.00  0.00    +0.155 A 
ATOM     16  N   UNL     1      -1.653   6.234   1.148  0.00  0.00    -0.203 NA
ATOM     17  S   UNL     1      -1.912   4.747   1.604  0.00  0.00    +0.019 S 
BRANCH  15  18
ATOM     18  C   UNL     1      -2.937   8.212   0.603  0.00  0.00    +0.262 C 
ATOM     19  O   UNL     1      -4.030   8.731   0.484  0.00  0.00    -0.269 OA
ATOM     20  N   UNL     1      -1.821   8.927   0.356  0.00  0.00    -0.324 N 
ATOM     21  H   UNL     1      -0.949   8.514   0.451  0.00  0.00    +0.145 HD
ATOM     22  H   UNL     1      -1.891   9.855   0.083  0.00  0.00    +0.145 HD
ENDBRANCH  15  18
BRANCH  14  23
ATOM     23  N   UNL     1      -5.269   6.560   1.167  0.00  0.00    -0.355 N 
ATOM     24  H   UNL     1      -6.031   5.991   1.359  0.00  0.00    +0.142 HD
ATOM     25  H   UNL     1      -5.408   7.482   0.898  0.00  0.00    +0.142 HD
ENDBRANCH  14  23
ENDBRANCH   2  13
BRANCH   1  26
ATOM     26  C   UNL     1      -5.034   1.358   2.698  0.00  0.00    +0.233 C 
BRANCH  26  27
ATOM     27  C   UNL     1      -4.756   0.903   4.107  0.00  0.00    +0.135 A 
ATOM     28  C   UNL     1      -5.684   0.569   5.023  0.00  0.00    +0.047 A 
ATOM     29  C   UNL     1      -4.986   0.203   6.197  0.00  0.00    +0.045 A 
ATOM     30  C   UNL     1      -3.675   0.343   5.932  0.00  0.00    +0.102 A 
ATOM     31  O   UNL     1      -3.542   0.767   4.664  0.00  0.00    -0.462 OA
ATOM     32  C   UNL     1      -2.547   0.071   6.893  0.00  0.00    +0.086 C 
ENDBRANCH  26  27
BRANCH  26  33
ATOM     33  C   UNL     1      -4.831   0.205   1.749  0.00  0.00    +0.242 C 
ATOM     34  O   UNL     1      -4.003   0.284   0.866  0.00  0.00    -0.273 OA
ATOM     35  N   UNL     1      -5.570  -0.915   1.881  0.00  0.00    -0.311 N 
ATOM     36  H   UNL     1      -6.232  -0.978   2.587  0.00  0.00    +0.149 HD
BRANCH  35  37
ATOM     37  C   UNL     1      -5.373  -2.035   0.958  0.00  0.00    +0.073 C 
ATOM     38  C   UNL     1      -6.263  -1.856  -0.289  0.00  0.00    +0.022 C 
ATOM     39  C   UNL     1      -6.726  -3.293  -0.635  0.00  0.00    +0.002 C 
ATOM     40  C   UNL     1      -6.953  -3.925   0.761  0.00  0.00    +0.002 C 
ATOM     41  C   UNL     1      -5.811  -3.351   1.626  0.00  0.00    +0.022 C 
ENDBRANCH  35  37
ENDBRANCH  26  33
ENDBRANCH   1  26
TORSDOF 9
