REMARK  Name = ZINC35729091
REMARK  6 active torsions:
REMARK  status: ('A' for Active; 'I' for Inactive)
REMARK    1  A    between atoms: C_1  and  N_2
REMARK    2  A    between atoms: N_2  and  C_3
REMARK    3  A    between atoms: N_2  and  C_4
REMARK    4  A    between atoms: C_7  and  C_10
REMARK    5  A    between atoms: C_16  and  C_18
REMARK    6  A    between atoms: N_26  and  C_27
REMARK                            x       y       z     vdW  Elec       q    Type
REMARK                         _______ _______ _______ _____ _____    ______ ____
ROOT
ATOM      1  C   UNL     1       0.029  -2.785  -4.906  0.00  0.00    +0.134 A 
ATOM      2  N   UNL     1       0.034  -4.092  -5.140  0.00  0.00    -0.140 NA
ATOM      3  N   UNL     1       0.025  -4.559  -6.311  0.00  0.00    -0.125 NA
ATOM      4  C   UNL     1       0.009  -3.773  -7.380  0.00  0.00    +0.188 A 
ATOM      5  S   UNL     1      -0.000  -2.168  -6.587  0.00  0.00    -0.030 S 
ATOM      6  N   UNL     1      -0.004  -4.102  -8.730  0.00  0.00    -0.262 N 
ATOM      7  C   UNL     1      -0.001  -5.396  -9.109  0.00  0.00    +0.239 C 
ATOM      8  O   UNL     1       0.013  -6.273  -8.271  0.00  0.00    -0.273 OA
ATOM      9  H   UNL     1      -0.015  -3.401  -9.400  0.00  0.00    +0.157 HD
ENDROOT
BRANCH   7  10
ATOM     10  C   UNL     1      -0.014  -5.752 -10.573  0.00  0.00    +0.164 C 
ATOM     11  C   UNL     1      -1.451  -5.647 -11.125  0.00  0.00    +0.033 C 
ATOM     12  C   UNL     1      -1.538  -6.851 -12.100  0.00  0.00    +0.021 C 
ATOM     13  C   UNL     1      -0.680  -7.910 -11.363  0.00  0.00    +0.110 C 
ATOM     14  N   UNL     1       0.425  -7.144 -10.753  0.00  0.00    -0.274 N 
ATOM     15  C   UNL     1       1.634  -7.635 -10.416  0.00  0.00    +0.307 C 
ATOM     16  O   UNL     1       2.470  -6.906  -9.917  0.00  0.00    -0.252 OA
ATOM     17  N   UNL     1       1.917  -8.935 -10.633  0.00  0.00    -0.269 N 
ATOM     18  H   UNL     1       1.230  -9.532 -10.968  0.00  0.00    +0.156 HD
BRANCH  17  19
ATOM     19  C   UNL     1       3.203  -9.424 -10.374  0.00  0.00    +0.035 A 
ATOM     20  C   UNL     1       3.748 -10.411 -11.184  0.00  0.00    +0.024 A 
ATOM     21  C   UNL     1       5.017 -10.892 -10.927  0.00  0.00    +0.017 A 
ATOM     22  C   UNL     1       5.745 -10.391  -9.862  0.00  0.00    +0.018 A 
ATOM     23  C   UNL     1       5.204  -9.407  -9.053  0.00  0.00    +0.017 A 
ATOM     24  C   UNL     1       3.938  -8.919  -9.309  0.00  0.00    +0.024 A 
ATOM     25 BR   UNL     1       7.482 -11.052  -9.512  0.00  0.00    -0.050 Br
ENDBRANCH  17  19
ENDBRANCH   7  10
BRANCH   1  29
ATOM     26  C   UNL     1       0.057  -0.670  -1.221  0.00  0.00    +0.029 A 
ATOM     27  C   UNL     1       0.071  -2.061  -1.223  0.00  0.00    +0.024 A 
ATOM     28  C   UNL     1       0.062  -2.749  -2.416  0.00  0.00    +0.012 A 
ATOM     29  C   UNL     1       0.038  -2.050  -3.624  0.00  0.00    +0.009 A 
ATOM     30  C   UNL     1       0.024  -0.653  -3.619  0.00  0.00    +0.012 A 
ATOM     31  C   UNL     1       0.028   0.029  -2.422  0.00  0.00    +0.024 A 
BRANCH  26  33
ATOM     32  C   UNL     1       0.046   1.489  -0.006  0.00  0.00    +0.129 C 
ATOM     33  N   UNL     1       0.067   0.024  -0.010  0.00  0.00    -0.336 N 
ATOM     34  C   UNL     1       0.098  -0.711   1.256  0.00  0.00    +0.129 C 
ENDBRANCH  26  33
ENDBRANCH   1  29
TORSDOF 4
