REMARK  Name = ZINC59740540
REMARK  9 active torsions:
REMARK  status: ('A' for Active; 'I' for Inactive)
REMARK    1  A    between atoms: C_1  and  C_2
REMARK    2  A    between atoms: C_5  and  N_8
REMARK    3  A    between atoms: C_9  and  C_34
REMARK    4  A    between atoms: C_10  and  C_13
REMARK    5  A    between atoms: N_15  and  C_16
REMARK    6  A    between atoms: C_21  and  C_22
REMARK    7  A    between atoms: N_24  and  C_25
REMARK    8  A    between atoms: C_25  and  C_27
REMARK    9  A    between atoms: C_25  and  C_28
REMARK                            x       y       z     vdW  Elec       q    Type
REMARK                         _______ _______ _______ _____ _____    ______ ____
ROOT
ATOM      1  C   UNL     1       1.131  -9.865   1.220  0.00  0.00    +0.046 A 
ATOM      2  C   UNL     1       1.917  -9.815   2.363  0.00  0.00    +0.024 A 
ATOM      3  C   UNL     1       2.432 -10.977   2.900  0.00  0.00    +0.002 A 
ATOM      4  C   UNL     1       2.170 -12.201   2.305  0.00  0.00    +0.001 A 
ATOM      5  C   UNL     1       1.391 -12.270   1.170  0.00  0.00    +0.015 A 
ATOM      6  C   UNL     1       0.858 -11.103   0.619  0.00  0.00    +0.058 A 
ENDROOT
BRANCH   1   9
ATOM      7  C   UNL     1       1.326  -7.553   0.723  0.00  0.00    +0.270 C 
ATOM      8  O   UNL     1       2.390  -7.527   1.310  0.00  0.00    -0.268 OA
ATOM      9  N   UNL     1       0.610  -8.694   0.676  0.00  0.00    -0.279 N 
ATOM     10  H   UNL     1      -0.268  -8.699   0.264  0.00  0.00    +0.155 HD
BRANCH   7  13
ATOM     11  N   UNL     1       0.650  -4.289  -0.672  0.00  0.00    -0.216 N 
ATOM     12  C   UNL     1       1.445  -5.122   0.034  0.00  0.00    +0.074 A 
ATOM     13  C   UNL     1       0.820  -6.337   0.061  0.00  0.00    +0.170 A 
ATOM     14  N   UNL     1      -0.336  -6.236  -0.619  0.00  0.00    -0.124 NA
ATOM     15  N   UNL     1      -0.472  -5.034  -1.062  0.00  0.00    -0.060 NA
ATOM     16  C   UNL     1       2.768  -4.779   0.668  0.00  0.00    +0.068 C 
BRANCH  11  21
ATOM     17  C   UNL     1       1.645   1.181  -1.816  0.00  0.00    +0.044 C 
ATOM     18  C   UNL     1       1.381  -0.272  -1.512  0.00  0.00    -0.050 A 
ATOM     19  C   UNL     1       0.731  -1.064  -2.441  0.00  0.00    +0.005 A 
ATOM     20  C   UNL     1       0.488  -2.395  -2.165  0.00  0.00    +0.028 A 
ATOM     21  C   UNL     1       0.896  -2.938  -0.955  0.00  0.00    +0.067 A 
ATOM     22  C   UNL     1       1.548  -2.140  -0.024  0.00  0.00    +0.028 A 
ATOM     23  C   UNL     1       1.793  -0.811  -0.307  0.00  0.00    +0.005 A 
ENDBRANCH  11  21
ENDBRANCH   7  13
ENDBRANCH   1   9
BRANCH   6  24
ATOM     24  C   UNL     1       0.018 -11.171  -0.592  0.00  0.00    +0.246 C 
ATOM     25  O   UNL     1      -0.360 -10.147  -1.128  0.00  0.00    -0.270 OA
ATOM     26  N   UNL     1      -0.330 -12.368  -1.104  0.00  0.00    -0.305 N 
ATOM     27  H   UNL     1      -0.029 -13.185  -0.677  0.00  0.00    +0.150 HD
BRANCH  26  28
ATOM     28  C   UNL     1      -1.165 -12.435  -2.307  0.00  0.00    +0.100 C 
ATOM     29  C   UNL     1      -2.639 -12.340  -1.911  0.00  0.00    +0.033 C 
BRANCH  28  30
ATOM     30  C   UNL     1      -0.918 -13.742  -3.016  0.00  0.00    -0.027 A 
ATOM     31  C   UNL     1      -0.767 -14.907  -2.287  0.00  0.00    +0.005 A 
ATOM     32  C   UNL     1      -0.541 -16.105  -2.938  0.00  0.00    +0.000 A 
ATOM     33  C   UNL     1      -0.467 -16.139  -4.318  0.00  0.00    +0.000 A 
ATOM     34  C   UNL     1      -0.619 -14.975  -5.047  0.00  0.00    +0.000 A 
ATOM     35  C   UNL     1      -0.849 -13.777  -4.396  0.00  0.00    +0.005 A 
ENDBRANCH  28  30
ENDBRANCH  26  28
ENDBRANCH   6  24
TORSDOF 6
