REMARK  Name = ZINC13750556
REMARK  12 active torsions:
REMARK  status: ('A' for Active; 'I' for Inactive)
REMARK    1  A    between atoms: C_1  and  C_2
REMARK    2  A    between atoms: C_2  and  C_3
REMARK    3  A    between atoms: C_3  and  C_4
REMARK    4  A    between atoms: C_6  and  C_29
REMARK    5  A    between atoms: C_8  and  C_21
REMARK    6  A    between atoms: C_11  and  C_12
REMARK    7  A    between atoms: C_11  and  O_20
REMARK    8  A    between atoms: C_13  and  C_14
REMARK    9  A    between atoms: C_24  and  O_27
REMARK   10  A    between atoms: O_27  and  C_28
REMARK   11  A    between atoms: C_32  and  O_35
REMARK   12  A    between atoms: O_35  and  C_36
REMARK                            x       y       z     vdW  Elec       q    Type
REMARK                         _______ _______ _______ _____ _____    ______ ____
ROOT
ATOM      1  C   UNL     1      -0.039   6.327  -1.306  0.00  0.00    +0.023 C 
ATOM      2  C   UNL     1       0.306   5.977   0.143  0.00  0.00    -0.033 C 
ATOM      3  C   UNL     1      -2.021   6.144   0.798  0.00  0.00    -0.036 C 
ATOM      4  C   UNL     1      -2.436   6.498  -0.632  0.00  0.00    +0.037 C 
ATOM      5  C   UNL     1      -1.460   5.849  -1.617  0.00  0.00    +0.127 C 
ATOM      6  N   UNL     1      -0.652   6.631   1.054  0.00  0.00    +0.388 N 
ATOM      7  H   UNL     1      -0.621   7.646   0.906  0.00  0.00    -0.084 HD
ATOM      8  H   UNL     1      -0.394   6.419   2.025  0.00  0.00    -0.084 HD
ENDROOT
BRANCH   3   9
ATOM      9  C   UNL     1      -2.967   6.797   1.772  0.00  0.00    -0.061 A 
ATOM     10  C   UNL     1      -2.808   8.131   2.099  0.00  0.00    +0.005 A 
ATOM     11  C   UNL     1      -3.677   8.734   2.987  0.00  0.00    +0.046 A 
ATOM     12  C   UNL     1      -4.704   7.997   3.559  0.00  0.00    +0.120 A 
ATOM     13  C   UNL     1      -4.859   6.658   3.233  0.00  0.00    +0.046 A 
ATOM     14  C   UNL     1      -3.990   6.061   2.340  0.00  0.00    +0.005 A 
BRANCH  12  15
ATOM     15  O   UNL     1      -5.558   8.587   4.437  0.00  0.00    -0.495 OA
ATOM     16  C   UNL     1      -5.338   9.969   4.726  0.00  0.00    +0.277 C 
ENDBRANCH  12  15
ENDBRANCH   3   9
BRANCH   2  17
ATOM     17  C   UNL     1       0.243   4.482   0.328  0.00  0.00    -0.061 A 
ATOM     18  C   UNL     1       0.967   3.653  -0.508  0.00  0.00    +0.005 A 
ATOM     19  C   UNL     1       0.911   2.283  -0.341  0.00  0.00    +0.046 A 
ATOM     20  C   UNL     1       0.127   1.739   0.667  0.00  0.00    +0.120 A 
ATOM     21  C   UNL     1      -0.603   2.574   1.500  0.00  0.00    +0.046 A 
ATOM     22  C   UNL     1      -0.539   3.944   1.332  0.00  0.00    +0.005 A 
BRANCH  20  23
ATOM     23  O   UNL     1       0.070   0.392   0.833  0.00  0.00    -0.495 OA
ATOM     24  C   UNL     1      -0.757  -0.097   1.891  0.00  0.00    +0.277 C 
ENDBRANCH  20  23
ENDBRANCH   2  17
BRANCH   5  25
ATOM     25  C   UNL     1      -1.819   6.234  -2.992  0.00  0.00    -0.062 C 
ATOM     26  C   UNL     1      -2.105   6.542  -4.088  0.00  0.00    -0.063 C 
BRANCH  26  27
ATOM     27  C   UNL     1      -2.454   6.917  -5.425  0.00  0.00    +0.025 A 
ATOM     28  C   UNL     1      -3.549   7.751  -5.655  0.00  0.00    +0.017 A 
ATOM     29  C   UNL     1      -3.878   8.113  -6.946  0.00  0.00    +0.001 A 
ATOM     30  C   UNL     1      -3.130   7.642  -8.011  0.00  0.00    +0.000 A 
ATOM     31  C   UNL     1      -2.047   6.810  -7.790  0.00  0.00    +0.001 A 
ATOM     32  C   UNL     1      -1.705   6.445  -6.504  0.00  0.00    +0.017 A 
ENDBRANCH  26  27
ENDBRANCH   5  25
BRANCH   5  33
ATOM     33  O   UNL     1      -1.526   4.427  -1.488  0.00  0.00    -0.376 OA
ATOM     34  H   UNL     1      -2.401   4.056  -1.667  0.00  0.00    +0.211 HD
ENDBRANCH   5  33
BRANCH   1  35
ATOM     35  C   UNL     1       0.950   5.636  -2.248  0.00  0.00    +0.006 C 
BRANCH  35  37
ATOM     36  C   UNL     1       2.035   5.751  -4.495  0.00  0.00    +0.004 C 
ATOM     37  C   UNL     1       0.944   6.346  -3.603  0.00  0.00    -0.003 C 
ENDBRANCH  35  37
ENDBRANCH   1  35
TORSDOF 9
