REMARK  Name = ZINC36211566
REMARK  9 active torsions:
REMARK  status: ('A' for Active; 'I' for Inactive)
REMARK    1  A    between atoms: C_1  and  C_2
REMARK    2  A    between atoms: C_2  and  C_3
REMARK    3  A    between atoms: C_3  and  C_5
REMARK    4  A    between atoms: C_3  and  N_6
REMARK    5  A    between atoms: C_7  and  C_9
REMARK    6  A    between atoms: C_9  and  C_11
REMARK    7  A    between atoms: C_9  and  N_28
REMARK    8  A    between atoms: C_17  and  C_19
REMARK    9  A    between atoms: C_29  and  C_31
REMARK                            x       y       z     vdW  Elec       q    Type
REMARK                         _______ _______ _______ _____ _____    ______ ____
ROOT
ATOM      1  C   UNL     1      -5.453   0.325  -2.867  0.00  0.00    +0.162 C 
ENDROOT
BRANCH   1   2
ATOM      2  C   UNL     1      -4.620   1.585  -3.109  0.00  0.00    +0.021 C 
ATOM      3  C   UNL     1      -4.925   2.615  -2.019  0.00  0.00    +0.025 C 
ATOM      4  C   UNL     1      -4.064   3.862  -2.245  0.00  0.00    +0.108 C 
ATOM      5  N   UNL     1      -4.286   4.348  -3.614  0.00  0.00    -0.298 N 
ATOM      6  C   UNL     1      -4.109   3.413  -4.733  0.00  0.00    +0.108 C 
ATOM      7  C   UNL     1      -4.969   2.171  -4.479  0.00  0.00    +0.025 C 
ATOM      8  C   UNL     1      -4.646   5.628  -3.838  0.00  0.00    +0.247 C 
ATOM      9  O   UNL     1      -4.759   6.036  -4.978  0.00  0.00    -0.270 OA
BRANCH   8  10
ATOM     10  C   UNL     1      -4.902   6.533  -2.701  0.00  0.00    +0.041 A 
ATOM     11  C   UNL     1      -3.962   6.651  -1.674  0.00  0.00    +0.017 A 
ATOM     12  C   UNL     1      -4.203   7.497  -0.614  0.00  0.00    +0.050 A 
ATOM     13  C   UNL     1      -5.378   8.234  -0.560  0.00  0.00    +0.166 A 
ATOM     14  C   UNL     1      -6.321   8.120  -1.582  0.00  0.00    +0.167 A 
ATOM     15  C   UNL     1      -6.083   7.278  -2.651  0.00  0.00    +0.062 A 
ATOM     16  O   UNL     1      -7.375   8.940  -1.296  0.00  0.00    -0.453 OA
ATOM     17  C   UNL     1      -7.254   9.243   0.107  0.00  0.00    +0.466 C 
ATOM     18  O   UNL     1      -5.842   9.124   0.363  0.00  0.00    -0.453 OA
ENDBRANCH   8  10
ENDBRANCH   1   2
BRANCH   1  20
ATOM     19  N   UNL     1      -3.847  -0.641  -1.253  0.00  0.00    -0.311 N 
ATOM     20  C   UNL     1      -5.110  -0.252  -1.518  0.00  0.00    +0.234 C 
ATOM     21  O   UNL     1      -5.970  -0.367  -0.671  0.00  0.00    -0.274 OA
ATOM     22  H   UNL     1      -3.159  -0.549  -1.930  0.00  0.00    +0.149 HD
BRANCH  19  23
ATOM     23  C   UNL     1      -3.513  -1.202   0.059  0.00  0.00    +0.070 C 
ATOM     24  C   UNL     1      -3.820  -2.701   0.065  0.00  0.00    +0.028 C 
BRANCH  23  26
ATOM     25  C   UNL     1      -1.743   0.515   0.460  0.00  0.00    +0.005 C 
ATOM     26  C   UNL     1      -2.026  -0.984   0.343  0.00  0.00    +0.018 C 
ENDBRANCH  23  26
ENDBRANCH  19  23
ENDBRANCH   1  20
BRANCH   1  27
ATOM     27  N   UNL     1      -6.878   0.666  -2.904  0.00  0.00    -0.300 N 
ATOM     28  C   UNL     1      -7.788  -0.276  -3.219  0.00  0.00    +0.245 C 
ATOM     29  O   UNL     1      -7.428  -1.409  -3.473  0.00  0.00    -0.270 OA
ATOM     30  H   UNL     1      -7.165   1.571  -2.701  0.00  0.00    +0.150 HD
BRANCH  28  31
ATOM     31  C   UNL     1      -9.223   0.068  -3.256  0.00  0.00    +0.040 A 
ATOM     32  C   UNL     1      -9.639   1.371  -2.971  0.00  0.00    +0.017 A 
ATOM     33  C   UNL     1     -10.978   1.691  -3.007  0.00  0.00    +0.050 A 
ATOM     34  C   UNL     1     -11.920   0.721  -3.326  0.00  0.00    +0.166 A 
ATOM     35  C   UNL     1     -11.511  -0.582  -3.612  0.00  0.00    +0.167 A 
ATOM     36  C   UNL     1     -10.169  -0.907  -3.583  0.00  0.00    +0.062 A 
ATOM     37  O   UNL     1     -12.617  -1.333  -3.892  0.00  0.00    -0.453 OA
ATOM     38  C   UNL     1     -13.732  -0.582  -3.377  0.00  0.00    +0.466 C 
ATOM     39  O   UNL     1     -13.278   0.783  -3.429  0.00  0.00    -0.453 OA
ENDBRANCH  28  31
ENDBRANCH   1  27
TORSDOF 7
