REMARK  Name = ZINC18240539
REMARK  4 active torsions:
REMARK  status: ('A' for Active; 'I' for Inactive)
REMARK    1  A    between atoms: C_1  and  C_2
REMARK    2  A    between atoms: C_4  and  C_8
REMARK    3  A    between atoms: N_10  and  N_11
REMARK    4  A    between atoms: C_12  and  C_13
REMARK                            x       y       z     vdW  Elec       q    Type
REMARK                         _______ _______ _______ _____ _____    ______ ____
ROOT
ATOM      1  C   UNL     1       3.439   6.306   0.002  0.00  0.00    +0.281 C 
ATOM      2  O   UNL     1       4.498   5.707  -0.011  0.00  0.00    -0.267 OA
ATOM      3  N   UNL     1       2.278   5.622   0.009  0.00  0.00    -0.202 N 
ATOM      4  H   UNL     1       1.321   6.163   0.021  0.00  0.00    +0.178 HD
ENDROOT
BRANCH   1   8
ATOM      5  C   UNL     1       4.799  11.192   0.013  0.00  0.00    +0.067 C 
ATOM      6  C   UNL     1       4.003   9.912   0.015  0.00  0.00    +0.060 A 
ATOM      7  C   UNL     1       4.527   8.617   0.004  0.00  0.00    +0.057 A 
ATOM      8  C   UNL     1       3.427   7.777   0.010  0.00  0.00    +0.122 A 
ATOM      9  N   UNL     1       2.327   8.587   0.018  0.00  0.00    -0.272 N 
ATOM     10  H   UNL     1       1.319   8.147   0.017  0.00  0.00    +0.189 HD
ATOM     11  N   UNL     1       2.698   9.817   0.026  0.00  0.00    -0.178 NA
ENDBRANCH   1   8
BRANCH   3  12
ATOM     12  N   UNL     1       2.291   4.221   0.002  0.00  0.00    -0.187 NA
ATOM     13  C   UNL     1       1.172   3.562   0.009  0.00  0.00    +0.142 C 
BRANCH  13  14
ATOM     14  C   UNL     1       1.185   2.088   0.002  0.00  0.00    +0.043 A 
ATOM     15  C   UNL     1      -0.017   1.375   0.010  0.00  0.00    +0.028 A 
ATOM     16  C   UNL     1       0.002  -0.004   0.002  0.00  0.00    +0.020 A 
ATOM     17  C   UNL     1       1.208  -0.686  -0.013  0.00  0.00    +0.034 A 
ATOM     18  C   UNL     1       2.404   0.009  -0.021  0.00  0.00    +0.066 A 
ATOM     19  C   UNL     1       2.402   1.395  -0.013  0.00  0.00    +0.201 A 
ATOM     20  O   UNL     1       3.576   2.078  -0.021  0.00  0.00    -0.286 OA
ATOM     21 BR   UNL     1       4.043  -0.934  -0.043  0.00  0.00    -0.046 Br
ATOM     22 BR   UNL     1      -1.625  -0.968   0.013  0.00  0.00    -0.050 Br
ENDBRANCH  13  14
ENDBRANCH   3  12
TORSDOF 3
