REMARK  Name = ZINC32669113
REMARK  6 active torsions:
REMARK  status: ('A' for Active; 'I' for Inactive)
REMARK    1  A    between atoms: C_1  and  C_2
REMARK    2  A    between atoms: C_4  and  C_30
REMARK    3  A    between atoms: C_10  and  C_13
REMARK    4  A    between atoms: N_15  and  N_16
REMARK    5  A    between atoms: C_17  and  C_19
REMARK    6  A    between atoms: C_19  and  C_20
REMARK                            x       y       z     vdW  Elec       q    Type
REMARK                         _______ _______ _______ _____ _____    ______ ____
ROOT
ATOM      1  C   UNL     1       2.335   4.001   0.001  0.00  0.00    +0.262 C 
ATOM      2  O   UNL     1       3.421   3.455  -0.011  0.00  0.00    -0.269 OA
ATOM      3  N   UNL     1       2.257   5.346   0.009  0.00  0.00    -0.230 N 
ATOM      4  H   UNL     1       1.275   5.841   0.020  0.00  0.00    +0.173 HD
ENDROOT
BRANCH   1  14
ATOM      5  C   UNL     1      -4.487  -1.898  -0.672  0.00  0.00    +0.067 C 
ATOM      6  C   UNL     1      -3.858  -0.582  -0.291  0.00  0.00    +0.061 A 
ATOM      7  C   UNL     1      -4.518   0.497   0.310  0.00  0.00    +0.048 A 
ATOM      8  C   UNL     1      -3.616   1.488   0.492  0.00  0.00    +0.044 A 
ATOM      9  N   UNL     1      -2.420   1.047   0.020  0.00  0.00    -0.219 N 
ATOM     10  N   UNL     1      -2.606  -0.252  -0.470  0.00  0.00    -0.170 NA
ATOM     11  C   UNL     1      -1.223   1.763   0.017  0.00  0.00    +0.154 A 
ATOM     12  C   UNL     1      -0.013   1.076   0.008  0.00  0.00    +0.049 A 
ATOM     13  C   UNL     1       1.169   1.790   0.001  0.00  0.00    +0.018 A 
ATOM     14  C   UNL     1       1.100   3.190   0.008  0.00  0.00    +0.056 A 
ATOM     15  C   UNL     1      -0.152   3.807   0.023  0.00  0.00    +0.126 A 
ATOM     16  N   UNL     1      -1.254   3.087   0.030  0.00  0.00    -0.235 NA
ATOM     17  C   UNL     1      -3.887   2.837   1.106  0.00  0.00    +0.066 C 
ENDBRANCH   1  14
BRANCH   3  18
ATOM     18  N   UNL     1       3.428   6.115   0.002  0.00  0.00    -0.234 N 
ATOM     19  C   UNL     1       3.351   7.461   0.010  0.00  0.00    +0.230 C 
ATOM     20  O   UNL     1       2.268   8.006   0.022  0.00  0.00    -0.274 OA
ATOM     21  H   UNL     1       4.411   5.621  -0.009  0.00  0.00    +0.173 HD
BRANCH  19  22
ATOM     22  C   UNL     1       4.611   8.288   0.003  0.00  0.00    +0.104 C 
BRANCH  22  23
ATOM     23  C   UNL     1       4.245   9.774   0.013  0.00  0.00    -0.020 C 
ATOM     24  C   UNL     1       3.412  10.103  -1.227  0.00  0.00    +0.011 C 
ATOM     25  C   UNL     1       3.046  11.589  -1.216  0.00  0.00    -0.010 C 
ATOM     26  C   UNL     1       4.325  12.429  -1.223  0.00  0.00    +0.007 C 
ATOM     27  C   UNL     1       5.159  12.099   0.017  0.00  0.00    -0.010 C 
ATOM     28  C   UNL     1       5.524  10.614   0.006  0.00  0.00    +0.011 C 
ATOM     29  C   UNL     1       4.348  12.416   1.275  0.00  0.00    +0.007 C 
ATOM     30  C   UNL     1       3.069  11.576   1.282  0.00  0.00    -0.010 C 
ATOM     31  C   UNL     1       2.236  11.905   0.042  0.00  0.00    +0.007 C 
ATOM     32  C   UNL     1       3.434  10.091   1.271  0.00  0.00    +0.011 C 
ENDBRANCH  22  23
ENDBRANCH  19  22
ENDBRANCH   3  18
TORSDOF 4
