REMARK  Name = ZINC43746352
REMARK  7 active torsions:
REMARK  status: ('A' for Active; 'I' for Inactive)
REMARK    1  A    between atoms: C_1  and  C_2
REMARK    2  A    between atoms: C_18  and  C_20
REMARK    3  A    between atoms: C_20  and  N_21
REMARK    4  A    between atoms: C_25  and  C_27
REMARK    5  A    between atoms: C_27  and  C_28
REMARK    6  A    between atoms: C_27  and  C_34
REMARK    7  A    between atoms: C_27  and  O_40
REMARK                            x       y       z     vdW  Elec       q    Type
REMARK                         _______ _______ _______ _____ _____    ______ ____
ROOT
ATOM      1  N   UNL     1      -1.999  -4.476   3.971  0.00  0.00    +0.384 N 
ATOM      2  C   UNL     1      -0.874  -5.398   3.712  0.00  0.00    -0.078 C 
ATOM      3  C   UNL     1       0.082  -5.205   4.915  0.00  0.00    -0.020 C 
ATOM      4  C   UNL     1      -0.921  -5.006   6.082  0.00  0.00    -0.014 C 
ATOM      5  C   UNL     1      -2.073  -4.221   5.421  0.00  0.00    -0.027 C 
ATOM      6  H   UNL     1      -2.860  -4.897   3.656  0.00  0.00    -0.081 HD
ENDROOT
BRANCH   1   7
ATOM      7  C   UNL     1      -1.776  -3.211   3.257  0.00  0.00    -0.063 C 
BRANCH   7  22
ATOM      8  C   UNL     1      -0.553  -1.678  -2.262  0.00  0.00    +0.011 C 
ATOM      9  C   UNL     1      -0.714  -3.088  -1.692  0.00  0.00    -0.023 C 
ATOM     10  C   UNL     1      -0.364  -4.119  -2.764  0.00  0.00    +0.007 C 
ATOM     11  C   UNL     1       1.059  -3.878  -3.272  0.00  0.00    +0.003 C 
ATOM     12  C   UNL     1       2.052  -4.078  -2.124  0.00  0.00    +0.037 C 
ATOM     13  C   UNL     1       1.670  -3.150  -0.968  0.00  0.00    +0.096 C 
ATOM     14  C   UNL     1       0.223  -3.268  -0.488  0.00  0.00    +0.030 C 
ATOM     15  C   UNL     1      -0.070  -2.146   0.506  0.00  0.00    +0.014 C 
ATOM     16  C   UNL     1      -1.505  -2.174   0.970  0.00  0.00    +0.042 C 
ATOM     17  C   UNL     1      -2.531  -2.237  -0.179  0.00  0.00    +0.181 C 
ATOM     18  C   UNL     1      -2.149  -3.287  -1.210  0.00  0.00    +0.052 C 
ATOM     19  O   UNL     1      -3.702  -2.749   0.517  0.00  0.00    -0.461 OA
ATOM     20  C   UNL     1      -3.287  -3.736   1.341  0.00  0.00    +0.309 C 
ATOM     21  O   UNL     1      -3.945  -4.688   1.687  0.00  0.00    -0.251 OA
ATOM     22  C   UNL     1      -1.857  -3.455   1.749  0.00  0.00    +0.088 C 
ATOM     23  C   UNL     1       2.335  -1.776  -0.907  0.00  0.00    +0.196 C 
ATOM     24  O   UNL     1       2.673  -2.833  -0.005  0.00  0.00    -0.368 OA
ENDBRANCH   7  22
ENDBRANCH   1   7
BRANCH   5  25
ATOM     25  C   UNL     1      -3.416  -4.708   5.968  0.00  0.00    +0.104 C 
BRANCH  25  26
ATOM     26  C   UNL     1      -3.474  -4.461   7.453  0.00  0.00    -0.013 A 
ATOM     27  C   UNL     1      -2.789  -3.393   8.003  0.00  0.00    +0.007 A 
ATOM     28  C   UNL     1      -2.842  -3.167   9.366  0.00  0.00    +0.000 A 
ATOM     29  C   UNL     1      -3.579  -4.008  10.178  0.00  0.00    +0.000 A 
ATOM     30  C   UNL     1      -4.264  -5.075   9.628  0.00  0.00    +0.000 A 
ATOM     31  C   UNL     1      -4.215  -5.299   8.265  0.00  0.00    +0.007 A 
ENDBRANCH  25  26
BRANCH  25  32
ATOM     32  C   UNL     1      -4.535  -3.959   5.290  0.00  0.00    -0.013 A 
ATOM     33  C   UNL     1      -4.438  -2.593   5.102  0.00  0.00    +0.007 A 
ATOM     34  C   UNL     1      -5.465  -1.906   4.481  0.00  0.00    +0.000 A 
ATOM     35  C   UNL     1      -6.588  -2.586   4.048  0.00  0.00    +0.000 A 
ATOM     36  C   UNL     1      -6.685  -3.952   4.236  0.00  0.00    +0.000 A 
ATOM     37  C   UNL     1      -5.656  -4.639   4.853  0.00  0.00    +0.007 A 
ENDBRANCH  25  32
BRANCH  25  38
ATOM     38  O   UNL     1      -3.556  -6.107   5.711  0.00  0.00    -0.381 OA
ATOM     39  H   UNL     1      -2.834  -6.645   6.063  0.00  0.00    +0.211 HD
ENDBRANCH  25  38
ENDBRANCH   5  25
TORSDOF 6
