REMARK  Name = ZINC13262027
REMARK  6 active torsions:
REMARK  status: ('A' for Active; 'I' for Inactive)
REMARK    1  A    between atoms: C_4  and  N_20
REMARK    2  A    between atoms: C_5  and  C_7
REMARK    3  A    between atoms: N_9  and  C_10
REMARK    4  A    between atoms: N_20  and  S_21
REMARK    5  A    between atoms: S_21  and  C_24
REMARK    6  A    between atoms: C_28  and  C_30
REMARK                            x       y       z     vdW  Elec       q    Type
REMARK                         _______ _______ _______ _____ _____    ______ ____
ROOT
ATOM      1  C   UNL     1       7.335  -2.704   0.196  0.00  0.00    +0.001 A 
ATOM      2  C   UNL     1       7.344  -4.078   0.380  0.00  0.00    +0.002 A 
ATOM      3  C   UNL     1       6.162  -4.789   0.399  0.00  0.00    +0.025 A 
ATOM      4  C   UNL     1       4.950  -4.128   0.237  0.00  0.00    +0.060 A 
ATOM      5  C   UNL     1       4.938  -2.738   0.045  0.00  0.00    +0.059 A 
ATOM      6  C   UNL     1       6.144  -2.033   0.029  0.00  0.00    +0.015 A 
ENDROOT
BRANCH   5   7
ATOM      7  C   UNL     1       3.659  -2.026  -0.132  0.00  0.00    +0.250 C 
ATOM      8  O   UNL     1       2.612  -2.643  -0.118  0.00  0.00    -0.270 OA
ATOM      9  N   UNL     1       3.651  -0.690  -0.311  0.00  0.00    -0.281 N 
ATOM     10  H   UNL     1       4.488  -0.208  -0.400  0.00  0.00    +0.155 HD
BRANCH   9  11
ATOM     11  C   UNL     1       2.435   0.002  -0.369  0.00  0.00    +0.037 A 
ATOM     12  C   UNL     1       2.310   1.120  -1.182  0.00  0.00    +0.027 A 
ATOM     13  C   UNL     1       1.111   1.803  -1.239  0.00  0.00    +0.051 A 
ATOM     14  C   UNL     1       0.028   1.375  -0.485  0.00  0.00    +0.162 A 
ATOM     15  C   UNL     1       0.150   0.254   0.329  0.00  0.00    +0.164 A 
ATOM     16  C   UNL     1       1.354  -0.430   0.386  0.00  0.00    +0.072 A 
ATOM     17  O   UNL     1      -0.904  -0.186   1.069  0.00  0.00    -0.485 OA
ATOM     18  C   UNL     1      -1.978   0.737   1.274  0.00  0.00    +0.270 C 
ATOM     19  C   UNL     1      -2.314   1.390  -0.073  0.00  0.00    +0.270 C 
ATOM     20  O   UNL     1      -1.144   2.065  -0.548  0.00  0.00    -0.485 OA
ENDBRANCH   9  11
ENDBRANCH   5   7
BRANCH   4  21
ATOM     21  N   UNL     1       3.758  -4.841   0.262  0.00  0.00    -0.216 N 
ATOM     22  H   UNL     1       3.023  -4.576  -0.313  0.00  0.00    +0.174 HD
BRANCH  21  23
ATOM     23  S   UNL     1       3.592  -6.142   1.273  0.00  0.00    +0.072 S 
ATOM     24  O   UNL     1       2.240  -6.568   1.167  0.00  0.00    -0.150 OA
ATOM     25  O   UNL     1       4.686  -7.007   1.005  0.00  0.00    -0.150 OA
BRANCH  23  26
ATOM     26  C   UNL     1       3.807  -5.553   2.920  0.00  0.00    +0.109 A 
ATOM     27  C   UNL     1       5.069  -5.540   3.488  0.00  0.00    +0.031 A 
ATOM     28  C   UNL     1       5.250  -5.074   4.777  0.00  0.00    +0.041 A 
ATOM     29  C   UNL     1       4.167  -4.629   5.512  0.00  0.00    +0.138 A 
ATOM     30  C   UNL     1       2.888  -4.646   4.945  0.00  0.00    +0.100 A 
ATOM     31  C   UNL     1       2.717  -5.113   3.639  0.00  0.00    +0.046 A 
ATOM     32  F   UNL     1       4.343  -4.179   6.774  0.00  0.00    -0.205 F 
BRANCH  30  33
ATOM     33  C   UNL     1       1.726  -4.172   5.722  0.00  0.00    +0.389 C 
ATOM     34  O   UNL     1       1.878  -3.767   6.857  0.00  0.00    -0.240 OA
ATOM     35  O   UNL     1       0.496  -4.190   5.172  0.00  0.00    -0.240 OA
ENDBRANCH  30  33
ENDBRANCH  23  26
ENDBRANCH  21  23
ENDBRANCH   4  21
TORSDOF 6
