REMARK  Name = ZINC35644316
REMARK  6 active torsions:
REMARK  status: ('A' for Active; 'I' for Inactive)
REMARK    1  A    between atoms: C_1  and  C_2
REMARK    2  A    between atoms: C_5  and  C_8
REMARK    3  A    between atoms: N_10  and  C_11
REMARK    4  A    between atoms: C_14  and  N_17
REMARK    5  A    between atoms: N_22  and  C_28
REMARK    6  A    between atoms: C_25  and  C_27
REMARK                            x       y       z     vdW  Elec       q    Type
REMARK                         _______ _______ _______ _____ _____    ______ ____
ROOT
ATOM      1  N   UNL     1      -0.675 -10.428   2.298  0.00  0.00    -0.326 N 
ATOM      2  C   UNL     1      -0.660 -11.125   3.490  0.00  0.00    +0.133 A 
ATOM      3  C   UNL     1      -0.635 -12.533   3.502  0.00  0.00    +0.079 A 
ATOM      4  C   UNL     1      -0.620 -13.535   2.507  0.00  0.00    +0.148 A 
ATOM      5  N   UNL     1      -0.599 -14.699   3.092  0.00  0.00    -0.172 NA
ATOM      6  N   UNL     1      -0.598 -14.529   4.482  0.00  0.00    -0.211 N 
ATOM      7  C   UNL     1      -0.621 -13.190   4.748  0.00  0.00    +0.169 A 
ATOM      8  N   UNL     1      -0.631 -12.457   5.860  0.00  0.00    -0.213 NA
ATOM      9  C   UNL     1      -0.654 -11.143   5.798  0.00  0.00    +0.130 A 
ATOM     10  N   UNL     1      -0.663 -10.484   4.653  0.00  0.00    -0.217 NA
ATOM     11  C   UNL     1      -0.664 -10.359   7.085  0.00  0.00    +0.088 C 
ATOM     12  H   UNL     1      -0.673 -10.909   1.455  0.00  0.00    +0.148 HD
ENDROOT
BRANCH   6  13
ATOM     13  C   UNL     1      -0.578 -15.556   5.436  0.00  0.00    +0.103 A 
ATOM     14  C   UNL     1      -0.587 -15.249   6.789  0.00  0.00    +0.031 A 
ATOM     15  C   UNL     1      -0.568 -16.263   7.727  0.00  0.00    +0.002 A 
ATOM     16  C   UNL     1      -0.540 -17.584   7.319  0.00  0.00    +0.003 A 
ATOM     17  C   UNL     1      -0.532 -17.895   5.972  0.00  0.00    +0.040 A 
ATOM     18  C   UNL     1      -0.556 -16.885   5.028  0.00  0.00    +0.149 A 
ATOM     19  F   UNL     1      -0.554 -17.189   3.712  0.00  0.00    -0.203 F 
ENDBRANCH   6  13
BRANCH   1  23
ATOM     20  C   UNL     1       0.093  -6.396   1.134  0.00  0.00    +0.073 C 
ATOM     21  C   UNL     1      -1.337  -6.925   1.013  0.00  0.00    +0.024 C 
ATOM     22  C   UNL     1      -1.317  -8.454   1.004  0.00  0.00    +0.024 C 
ATOM     23  C   UNL     1      -0.694  -8.963   2.306  0.00  0.00    +0.072 C 
ATOM     24  C   UNL     1       0.736  -8.435   2.427  0.00  0.00    +0.024 C 
ATOM     25  C   UNL     1       0.716  -6.905   2.436  0.00  0.00    +0.024 C 
BRANCH  20  28
ATOM     26  C   UNL     1       0.059  -4.251  -0.021  0.00  0.00    +0.244 C 
ATOM     27  O   UNL     1       0.062  -4.853  -1.077  0.00  0.00    -0.270 OA
ATOM     28  N   UNL     1       0.074  -4.931   1.142  0.00  0.00    -0.308 N 
ATOM     29  H   UNL     1       0.072  -4.451   1.985  0.00  0.00    +0.149 HD
BRANCH  26  34
ATOM     30  C   UNL     1      -0.018   1.503   0.010  0.00  0.00    +0.044 C 
ATOM     31  C   UNL     1       0.002  -0.004   0.002  0.00  0.00    -0.050 A 
ATOM     32  C   UNL     1       0.006  -0.686  -1.202  0.00  0.00    +0.004 A 
ATOM     33  C   UNL     1       0.024  -2.066  -1.216  0.00  0.00    +0.013 A 
ATOM     34  C   UNL     1       0.040  -2.773  -0.013  0.00  0.00    +0.037 A 
ATOM     35  C   UNL     1       0.036  -2.079   1.198  0.00  0.00    +0.013 A 
ATOM     36  C   UNL     1       0.023  -0.699   1.198  0.00  0.00    +0.004 A 
ENDBRANCH  26  34
ENDBRANCH  20  28
ENDBRANCH   1  23
TORSDOF 4
