REMARK  Name = ZINC44731543
REMARK  9 active torsions:
REMARK  status: ('A' for Active; 'I' for Inactive)
REMARK    1  A    between atoms: C_1  and  C_2
REMARK    2  A    between atoms: C_4  and  C_8
REMARK    3  A    between atoms: C_5  and  C_7
REMARK    4  A    between atoms: C_8  and  C_10
REMARK    5  A    between atoms: C_8  and  N_11
REMARK    6  A    between atoms: N_11  and  S_12
REMARK    7  A    between atoms: S_12  and  C_15
REMARK    8  A    between atoms: C_18  and  N_21
REMARK    9  A    between atoms: N_21  and  N_22
REMARK                            x       y       z     vdW  Elec       q    Type
REMARK                         _______ _______ _______ _____ _____    ______ ____
ROOT
ATOM      1  S   UNL     1      -3.619  -4.188   1.375  0.00  0.00    +0.059 S 
ATOM      2  O   UNL     1      -4.865  -3.589   1.706  0.00  0.00    -0.153 OA
ATOM      3  O   UNL     1      -3.529  -5.426   0.684  0.00  0.00    -0.153 OA
ENDROOT
BRANCH   1   4
ATOM      4  C   UNL     1      -2.741  -4.391   2.889  0.00  0.00    +0.105 A 
ATOM      5  C   UNL     1      -1.750  -5.351   2.988  0.00  0.00    +0.030 A 
ATOM      6  C   UNL     1      -1.060  -5.514   4.173  0.00  0.00    +0.026 A 
ATOM      7  C   UNL     1      -1.362  -4.711   5.266  0.00  0.00    +0.041 A 
ATOM      8  C   UNL     1      -2.357  -3.748   5.163  0.00  0.00    +0.026 A 
ATOM      9  C   UNL     1      -3.040  -3.587   3.974  0.00  0.00    +0.030 A 
BRANCH   7  10
ATOM     10  N   UNL     1      -0.666  -4.873   6.467  0.00  0.00    -0.283 N 
ATOM     11  H   UNL     1       0.029  -5.546   6.537  0.00  0.00    +0.166 HD
BRANCH  10  12
ATOM     12  N   UNL     1      -0.964  -4.083   7.540  0.00  0.00    -0.257 NA
ATOM     13  H   UNL     1      -1.942  -4.150   7.779  0.00  0.00    +0.140 HD
ATOM     14  H   UNL     1      -0.382  -4.314   8.332  0.00  0.00    +0.140 HD
ENDBRANCH  10  12
ENDBRANCH   7  10
ENDBRANCH   1   4
BRANCH   1  15
ATOM     15  N   UNL     1      -2.786  -3.079   0.471  0.00  0.00    -0.183 NA
ATOM     16  H   UNL     1      -3.190  -2.223   0.259  0.00  0.00    +0.149 HD
BRANCH  15  17
ATOM     17  C   UNL     1      -1.437  -3.390  -0.009  0.00  0.00    +0.107 C 
ATOM     18  C   UNL     1      -1.518  -3.946  -1.432  0.00  0.00    +0.031 C 
BRANCH  17  22
ATOM     19  C   UNL     1      -0.018   1.503   0.010  0.00  0.00    +0.086 C 
ATOM     20  C   UNL     1       0.002  -0.004   0.002  0.00  0.00    +0.103 A 
ATOM     21  C   UNL     1      -1.078  -0.805   0.003  0.00  0.00    +0.050 A 
ATOM     22  C   UNL     1      -0.601  -2.136  -0.007  0.00  0.00    +0.012 A 
ATOM     23  C   UNL     1       0.742  -2.069  -0.013  0.00  0.00    +0.107 A 
ATOM     24  O   UNL     1       1.102  -0.775  -0.013  0.00  0.00    -0.465 OA
ATOM     25  C   UNL     1       1.684  -3.245  -0.023  0.00  0.00    +0.086 C 
ENDBRANCH  17  22
ENDBRANCH  15  17
ENDBRANCH   1  15
TORSDOF 6
