REMARK  Name = ZINC39665391
REMARK  8 active torsions:
REMARK  status: ('A' for Active; 'I' for Inactive)
REMARK    1  A    between atoms: C_1  and  C_2
REMARK    2  A    between atoms: C_2  and  C_4
REMARK    3  A    between atoms: C_2  and  O_33
REMARK    4  A    between atoms: C_4  and  N_5
REMARK    5  A    between atoms: C_6  and  C_8
REMARK    6  A    between atoms: C_19  and  C_21
REMARK    7  A    between atoms: C_24  and  C_26
REMARK    8  A    between atoms: O_33  and  C_34
REMARK                            x       y       z     vdW  Elec       q    Type
REMARK                         _______ _______ _______ _____ _____    ______ ____
ROOT
ATOM      1  C   UNL     1       1.215  -3.718   3.023  0.00  0.00    +0.100 C 
ATOM      2  C   UNL     1      -0.259  -4.166   3.154  0.00  0.00    +0.121 C 
ATOM      3  N   UNL     1      -0.242  -5.204   4.212  0.00  0.00    -0.294 N 
ATOM      4  C   UNL     1       0.722  -4.692   5.215  0.00  0.00    +0.115 C 
ATOM      5  C   UNL     1       1.855  -4.065   4.378  0.00  0.00    -0.004 C 
ATOM      6  C   UNL     1       2.987  -5.069   4.186  0.00  0.00    -0.010 C 
ATOM      7  C   UNL     1       3.644  -5.355   5.539  0.00  0.00    -0.082 C 
ATOM      8  N   UNL     1       4.163  -4.105   6.107  0.00  0.00    +0.379 N 
ATOM      9  C   UNL     1       3.056  -3.179   6.375  0.00  0.00    -0.082 C 
ATOM     10  C   UNL     1       2.374  -2.801   5.057  0.00  0.00    -0.010 C 
ATOM     11  C   UNL     1      -0.945  -6.353   4.253  0.00  0.00    +0.282 C 
ATOM     12  O   UNL     1      -0.821  -7.109   5.199  0.00  0.00    -0.267 OA
ATOM     13  H   UNL     1       4.649  -4.304   6.968  0.00  0.00    -0.086 HD
ATOM     14  H   UNL     1       4.804  -3.681   5.453  0.00  0.00    -0.086 HD
ENDROOT
BRANCH  11  15
ATOM     15  C   UNL     1      -1.857  -6.692   3.158  0.00  0.00    +0.190 A 
ATOM     16  C   UNL     1      -2.636  -7.826   3.076  0.00  0.00    +0.055 A 
ATOM     17  C   UNL     1      -3.346  -7.742   1.874  0.00  0.00    +0.050 A 
ATOM     18  C   UNL     1      -2.979  -6.573   1.272  0.00  0.00    +0.136 A 
ATOM     19  O   UNL     1      -2.087  -5.946   2.057  0.00  0.00    -0.450 OA
BRANCH  18  20
ATOM     20  C   UNL     1      -3.483  -6.077  -0.024  0.00  0.00    +0.017 A 
ATOM     21  C   UNL     1      -4.423  -6.821  -0.742  0.00  0.00    +0.014 A 
ATOM     22  C   UNL     1      -4.891  -6.352  -1.951  0.00  0.00    +0.039 A 
ATOM     23  C   UNL     1      -4.431  -5.146  -2.455  0.00  0.00    +0.123 A 
ATOM     24  C   UNL     1      -3.498  -4.404  -1.747  0.00  0.00    +0.039 A 
ATOM     25  C   UNL     1      -3.027  -4.859  -0.534  0.00  0.00    +0.014 A 
ATOM     26  F   UNL     1      -4.893  -4.692  -3.640  0.00  0.00    -0.205 F 
ENDBRANCH  18  20
ENDBRANCH  11  15
BRANCH   1  28
ATOM     27  N   UNL     1       2.329  -1.722   2.080  0.00  0.00    -0.312 N 
ATOM     28  C   UNL     1       1.292  -2.235   2.771  0.00  0.00    +0.218 C 
ATOM     29  O   UNL     1       0.421  -1.502   3.189  0.00  0.00    -0.275 OA
ATOM     30  H   UNL     1       3.026  -2.308   1.746  0.00  0.00    +0.149 HD
BRANCH  27  31
ATOM     31  C   UNL     1       2.405  -0.280   1.835  0.00  0.00    +0.148 C 
BRANCH  31  33
ATOM     32  C   UNL     1       3.749   1.543   0.779  0.00  0.00    +0.053 C 
ATOM     33  C   UNL     1       3.670   0.037   1.035  0.00  0.00    +0.187 C 
BRANCH  33  34
ATOM     34  O   UNL     1       4.818  -0.381   1.776  0.00  0.00    -0.488 OA
BRANCH  34  35
ATOM     35  C   UNL     1       5.940  -0.669   1.065  0.00  0.00    +0.121 A 
ATOM     36  C   UNL     1       7.055  -1.188   1.707  0.00  0.00    +0.045 A 
ATOM     37  C   UNL     1       8.194  -1.481   0.982  0.00  0.00    +0.004 A 
ATOM     38  C   UNL     1       8.224  -1.255  -0.382  0.00  0.00    +0.000 A 
ATOM     39  C   UNL     1       7.114  -0.737  -1.024  0.00  0.00    +0.004 A 
ATOM     40  C   UNL     1       5.971  -0.449  -0.304  0.00  0.00    +0.045 A 
ENDBRANCH  34  35
ENDBRANCH  33  34
ENDBRANCH  31  33
ENDBRANCH  27  31
ENDBRANCH   1  28
TORSDOF 7
