REMARK  Name = ZINC20289034
REMARK  11 active torsions:
REMARK  status: ('A' for Active; 'I' for Inactive)
REMARK    1  A    between atoms: C_1  and  C_2
REMARK    2  A    between atoms: C_2  and  C_4
REMARK    3  A    between atoms: C_2  and  N_24
REMARK    4  A    between atoms: C_4  and  C_6
REMARK    5  A    between atoms: C_4  and  N_11
REMARK    6  A    between atoms: N_14  and  C_17
REMARK    7  A    between atoms: C_25  and  C_27
REMARK    8  A    between atoms: N_29  and  C_30
REMARK    9  A    between atoms: C_30  and  C_31
REMARK   10  A    between atoms: C_34  and  O_37
REMARK   11  A    between atoms: O_37  and  C_38
REMARK                            x       y       z     vdW  Elec       q    Type
REMARK                         _______ _______ _______ _____ _____    ______ ____
ROOT
ATOM      1  C   UNL     1      -0.763   3.337  -6.378  0.00  0.00    +0.030 C 
ATOM      2  C   UNL     1      -1.246   1.926  -6.037  0.00  0.00    +0.092 C 
ENDROOT
BRANCH   2   3
ATOM      3  N   UNL     1      -0.538   1.441  -4.850  0.00  0.00    -0.303 N 
ATOM      4  C   UNL     1      -0.991   1.754  -3.620  0.00  0.00    +0.299 C 
ATOM      5  O   UNL     1      -1.986   2.437  -3.495  0.00  0.00    -0.265 OA
ATOM      6  H   UNL     1       0.364   0.821  -4.963  0.00  0.00    +0.149 HD
BRANCH   4   7
ATOM      7  C   UNL     1      -0.268   1.258  -2.409  0.00  0.00    +0.299 C 
ATOM      8  O   UNL     1       0.727   0.575  -2.534  0.00  0.00    -0.265 OA
ATOM      9  N   UNL     1      -0.721   1.571  -1.179  0.00  0.00    -0.303 N 
ATOM     10  H   UNL     1      -1.623   2.191  -1.066  0.00  0.00    +0.149 HD
BRANCH   9  11
ATOM     11  C   UNL     1      -0.013   1.086   0.008  0.00  0.00    +0.140 C 
BRANCH  11  12
ATOM     12  C   UNL     1      -0.718   1.572   1.248  0.00  0.00    -0.030 A 
ATOM     13  C   UNL     1      -0.359   2.779   1.818  0.00  0.00    +0.009 A 
ATOM     14  C   UNL     1      -1.008   3.230   2.951  0.00  0.00    +0.046 A 
ATOM     15  C   UNL     1      -2.013   2.464   3.524  0.00  0.00    +0.120 A 
ATOM     16  C   UNL     1      -2.368   1.250   2.954  0.00  0.00    +0.046 A 
ATOM     17  C   UNL     1      -1.720   0.807   1.817  0.00  0.00    +0.009 A 
BRANCH  15  18
ATOM     18  O   UNL     1      -2.649   2.902   4.642  0.00  0.00    -0.495 OA
ATOM     19  C   UNL     1      -2.232   4.161   5.174  0.00  0.00    +0.277 C 
ENDBRANCH  15  18
ENDBRANCH  11  12
ENDBRANCH   9  11
ENDBRANCH   4   7
ENDBRANCH   2   3
BRANCH   2  20
ATOM     20  C   UNL     1      -0.966   0.992  -7.216  0.00  0.00    +0.114 C 
BRANCH  20  21
ATOM     21  N   UNL     1      -1.577   1.543  -8.433  0.00  0.00    -0.290 NA
ATOM     22  C   UNL     1      -3.018   1.763  -8.245  0.00  0.00    +0.104 C 
ATOM     23  C   UNL     1      -3.601   2.409  -9.504  0.00  0.00    +0.120 C 
ATOM     24  N   UNL     1      -3.351   1.537 -10.660  0.00  0.00    -0.327 N 
ATOM     25  C   UNL     1      -1.910   1.316 -10.848  0.00  0.00    +0.120 C 
ATOM     26  C   UNL     1      -1.327   0.670  -9.589  0.00  0.00    +0.104 C 
BRANCH  24  27
ATOM     27  C   UNL     1      -3.933   2.061 -11.818  0.00  0.00    +0.030 A 
ATOM     28  C   UNL     1      -3.151   2.306 -12.939  0.00  0.00    +0.026 A 
ATOM     29  C   UNL     1      -3.729   2.819 -14.084  0.00  0.00    +0.040 A 
ATOM     30  C   UNL     1      -5.085   3.099 -14.111  0.00  0.00    +0.124 A 
ATOM     31  C   UNL     1      -5.865   2.860 -12.992  0.00  0.00    +0.040 A 
ATOM     32  C   UNL     1      -5.293   2.342 -11.847  0.00  0.00    +0.026 A 
ATOM     33  F   UNL     1      -5.647   3.605 -15.230  0.00  0.00    -0.205 F 
ENDBRANCH  24  27
ENDBRANCH  20  21
BRANCH  20  34
ATOM     34  C   UNL     1       0.523   0.867  -7.414  0.00  0.00    +0.009 A 
ATOM     35  C   UNL     1       1.356  -0.128  -7.021  0.00  0.00    +0.013 A 
ATOM     36  C   UNL     1       2.703  -0.030  -7.316  0.00  0.00    +0.008 A 
ATOM     37  C   UNL     1       3.151   1.057  -7.990  0.00  0.00    +0.045 A 
ATOM     38  S   UNL     1       1.646   1.986  -8.235  0.00  0.00    -0.100 S 
ENDBRANCH  20  34
ENDBRANCH   2  20
TORSDOF 9
