REMARK  Name = ZINC13479807
REMARK  7 active torsions:
REMARK  status: ('A' for Active; 'I' for Inactive)
REMARK    1  A    between atoms: C_1  and  C_2
REMARK    2  A    between atoms: C_4  and  C_18
REMARK    3  A    between atoms: C_5  and  C_17
REMARK    4  A    between atoms: N_6  and  C_7
REMARK    5  A    between atoms: C_10  and  S_13
REMARK    6  A    between atoms: S_13  and  N_16
REMARK    7  A    between atoms: N_19  and  O_20
REMARK                            x       y       z     vdW  Elec       q    Type
REMARK                         _______ _______ _______ _____ _____    ______ ____
ROOT
ATOM      1  C   UNL     1       0.030  -0.345   2.433  0.00  0.00    +0.047 A 
ATOM      2  C   UNL     1       1.133  -0.577   3.244  0.00  0.00    +0.028 A 
ATOM      3  C   UNL     1       1.137  -0.122   4.548  0.00  0.00    +0.030 A 
ATOM      4  C   UNL     1       0.045   0.563   5.046  0.00  0.00    +0.105 A 
ATOM      5  C   UNL     1      -1.055   0.796   4.241  0.00  0.00    +0.030 A 
ATOM      6  C   UNL     1      -1.063   0.348   2.934  0.00  0.00    +0.028 A 
ENDROOT
BRANCH   1  12
ATOM      7  C   UNL     1      -0.018   1.503   0.010  0.00  0.00    +0.064 C 
ATOM      8  C   UNL     1       0.002  -0.004   0.002  0.00  0.00    +0.022 A 
ATOM      9  C   UNL     1       0.008  -0.781  -1.097  0.00  0.00    +0.032 A 
ATOM     10  C   UNL     1       0.029  -2.169  -0.627  0.00  0.00    +0.017 A 
ATOM     11  C   UNL     1       0.034  -2.111   0.738  0.00  0.00    +0.030 A 
ATOM     12  N   UNL     1       0.024  -0.804   1.109  0.00  0.00    -0.317 N 
ATOM     13  C   UNL     1       0.053  -3.294   1.671  0.00  0.00    +0.064 C 
BRANCH  10  14
ATOM     14  C   UNL     1       0.042  -3.385  -1.461  0.00  0.00    +0.162 C 
ATOM     15  N   UNL     1       0.059  -4.553  -0.902  0.00  0.00    -0.095 NA
BRANCH  15  16
ATOM     16  O   UNL     1       0.071  -5.720  -1.703  0.00  0.00    -0.409 OA
ATOM     17  H   UNL     1       0.084  -6.544  -1.197  0.00  0.00    +0.328 HD
ENDBRANCH  15  16
ENDBRANCH  10  14
ENDBRANCH   1  12
BRANCH   4  18
ATOM     18  S   UNL     1       0.053   1.141   6.711  0.00  0.00    +0.056 S 
ATOM     19  O   UNL     1      -1.306   1.276   7.101  0.00  0.00    -0.153 OA
ATOM     20  O   UNL     1       0.972   0.321   7.420  0.00  0.00    -0.153 OA
BRANCH  18  21
ATOM     21  N   UNL     1       0.695   2.667   6.696  0.00  0.00    -0.204 NA
ATOM     22  H   UNL     1       0.979   3.066   5.858  0.00  0.00    +0.144 HD
ATOM     23  H   UNL     1       0.786   3.163   7.524  0.00  0.00    +0.144 HD
ENDBRANCH  18  21
ENDBRANCH   4  18
TORSDOF 5
