REMARK  Name = ZINC26961100
REMARK  6 active torsions:
REMARK  status: ('A' for Active; 'I' for Inactive)
REMARK    1  A    between atoms: C_1  and  C_2
REMARK    2  A    between atoms: C_13  and  S_17
REMARK    3  A    between atoms: N_15  and  N_16
REMARK    4  A    between atoms: S_17  and  C_18
REMARK    5  A    between atoms: C_18  and  C_19
REMARK    6  A    between atoms: N_21  and  C_22
REMARK                            x       y       z     vdW  Elec       q    Type
REMARK                         _______ _______ _______ _____ _____    ______ ____
ROOT
ATOM      1  C   UNL     1      -1.311  -0.741   0.074  0.00  0.00    +0.084 C 
ATOM      2  C   UNL     1      -0.009   0.016   0.016  0.00  0.00    +0.110 C 
ATOM      3  N   UNL     1      -0.022   1.329   0.029  0.00  0.00    -0.229 NA
ATOM      4  C   UNL     1       1.166   1.970   0.018  0.00  0.00    +0.109 A 
ATOM      5  C   UNL     1       2.391   1.377   0.244  0.00  0.00    +0.020 A 
ATOM      6  C   UNL     1       3.526   2.190   0.192  0.00  0.00    -0.029 A 
ATOM      7  C   UNL     1       3.336   3.512  -0.075  0.00  0.00    -0.005 A 
ATOM      8  S   UNL     1       1.578   3.666  -0.265  0.00  0.00    -0.074 S 
ATOM      9  C   UNL     1       4.377   4.579  -0.180  0.00  0.00    +0.043 C 
ATOM     10  C   UNL     1       5.686   4.038   0.415  0.00  0.00    +0.005 C 
ATOM     11  C   UNL     1       5.944   2.641  -0.155  0.00  0.00    +0.005 C 
ATOM     12  C   UNL     1       4.935   1.647   0.418  0.00  0.00    +0.036 C 
ATOM     13  C   UNL     1       2.406  -0.124   0.533  0.00  0.00    +0.182 C 
ATOM     14  N   UNL     1       1.173  -0.674  -0.050  0.00  0.00    -0.239 N 
ENDROOT
BRANCH  14  15
ATOM     15  N   UNL     1       1.206  -1.893  -0.666  0.00  0.00    -0.252 NA
ATOM     16  H   UNL     1       2.228  -2.297  -0.623  0.00  0.00    +0.141 HD
ATOM     17  H   UNL     1       0.517  -2.582  -0.153  0.00  0.00    +0.141 HD
ENDBRANCH  14  15
BRANCH  13  18
ATOM     18  S   UNL     1       2.433  -0.415   2.323  0.00  0.00    -0.123 S 
BRANCH  18  19
ATOM     19  C   UNL     1       1.140  -1.660   2.584  0.00  0.00    +0.167 C 
BRANCH  19  20
ATOM     20  C   UNL     1       1.056  -1.997   4.051  0.00  0.00    +0.227 C 
ATOM     21  O   UNL     1       1.795  -1.450   4.842  0.00  0.00    -0.275 OA
ATOM     22  N   UNL     1       0.159  -2.905   4.483  0.00  0.00    -0.285 N 
ATOM     23  H   UNL     1      -0.562  -3.345   3.778  0.00  0.00    +0.155 HD
BRANCH  22  24
ATOM     24  C   UNL     1       0.145  -3.289   5.829  0.00  0.00    +0.033 A 
ATOM     25  C   UNL     1      -0.170  -4.596   6.176  0.00  0.00    +0.024 A 
ATOM     26  C   UNL     1      -0.179  -4.974   7.505  0.00  0.00    +0.017 A 
ATOM     27  C   UNL     1       0.117  -4.049   8.490  0.00  0.00    +0.018 A 
ATOM     28  C   UNL     1       0.427  -2.745   8.147  0.00  0.00    +0.017 A 
ATOM     29  C   UNL     1       0.442  -2.363   6.820  0.00  0.00    +0.024 A 
ATOM     30 BR   UNL     1       0.098  -4.568  10.308  0.00  0.00    -0.050 Br
ENDBRANCH  22  24
ENDBRANCH  19  20
ENDBRANCH  18  19
ENDBRANCH  13  18
TORSDOF 5
