REMARK  Name = ZINC08733677
REMARK  12 active torsions:
REMARK  status: ('A' for Active; 'I' for Inactive)
REMARK    1  A    between atoms: C_1  and  C_2
REMARK    2  A    between atoms: C_2  and  O_3
REMARK    3  A    between atoms: O_3  and  C_4
REMARK    4  A    between atoms: C_4  and  C_6
REMARK    5  A    between atoms: C_7  and  C_36
REMARK    6  A    between atoms: C_11  and  N_23
REMARK    7  A    between atoms: C_12  and  C_14
REMARK    8  A    between atoms: C_14  and  C_16
REMARK    9  A    between atoms: C_24  and  C_26
REMARK   10  A    between atoms: C_29  and  C_32
REMARK   11  A    between atoms: C_32  and  O_34
REMARK   12  A    between atoms: O_34  and  C_35
REMARK                            x       y       z     vdW  Elec       q    Type
REMARK                         _______ _______ _______ _____ _____    ______ ____
ROOT
ATOM      1  C   UNL     1       1.547  -2.403   2.394  0.00  0.00    +0.065 C 
ATOM      2  C   UNL     1       1.512  -3.731   2.568  0.00  0.00    +0.016 C 
ATOM      3  N   UNL     1       2.127  -4.341   3.635  0.00  0.00    -0.312 N 
ATOM      4  C   UNL     1       2.997  -3.581   4.373  0.00  0.00    +0.076 A 
ATOM      5  C   UNL     1       3.120  -2.199   4.290  0.00  0.00    +0.014 A 
ATOM      6  C   UNL     1       4.062  -1.612   5.112  0.00  0.00    +0.049 A 
ATOM      7  C   UNL     1       4.820  -2.421   5.965  0.00  0.00    +0.082 A 
ATOM      8  S   UNL     1       4.184  -4.050   5.597  0.00  0.00    -0.068 S 
ATOM      9  C   UNL     1       2.228  -1.437   3.319  0.00  0.00    +0.091 C 
ATOM     10  C   UNL     1       0.776  -4.580   1.563  0.00  0.00    +0.061 C 
ATOM     11  H   UNL     1       1.952  -5.269   3.856  0.00  0.00    +0.152 HD
ENDROOT
BRANCH   9  12
ATOM     12  C   UNL     1       1.190  -0.669   4.096  0.00  0.00    -0.035 A 
ATOM     13  C   UNL     1       0.304  -1.345   4.916  0.00  0.00    +0.005 A 
ATOM     14  C   UNL     1      -0.649  -0.648   5.630  0.00  0.00    +0.015 A 
ATOM     15  C   UNL     1      -0.718   0.742   5.523  0.00  0.00    +0.059 A 
ATOM     16  C   UNL     1       0.179   1.418   4.694  0.00  0.00    +0.015 A 
ATOM     17  C   UNL     1       1.130   0.709   3.990  0.00  0.00    +0.005 A 
BRANCH  15  18
ATOM     18  C   UNL     1      -1.736   1.495   6.285  0.00  0.00    +0.339 C 
ATOM     19  O   UNL     1      -2.515   0.904   7.005  0.00  0.00    -0.245 OA
BRANCH  18  20
ATOM     20  O   UNL     1      -1.800   2.836   6.179  0.00  0.00    -0.464 OA
ATOM     21  C   UNL     1      -2.809   3.500   6.944  0.00  0.00    +0.280 C 
ENDBRANCH  18  20
ENDBRANCH  15  18
ENDBRANCH   9  12
BRANCH   6  22
ATOM     22  N   UNL     1       4.256  -0.235   5.091  0.00  0.00    -0.357 N 
ATOM     23  H   UNL     1       3.727   0.320   4.496  0.00  0.00    +0.142 HD
ATOM     24  H   UNL     1       4.920   0.171   5.670  0.00  0.00    +0.142 HD
ENDBRANCH   6  22
BRANCH   1  25
ATOM     25  C   UNL     1       0.900  -1.874   1.255  0.00  0.00    +0.338 C 
ATOM     26  O   UNL     1       1.557  -1.495   0.303  0.00  0.00    -0.245 OA
BRANCH  25  27
ATOM     27  O   UNL     1      -0.446  -1.788   1.223  0.00  0.00    -0.462 OA
BRANCH  27  29
ATOM     28  C   UNL     1      -2.556  -1.225   0.187  0.00  0.00    +0.048 C 
ATOM     29  C   UNL     1      -1.033  -1.243   0.039  0.00  0.00    +0.229 C 
ENDBRANCH  27  29
ENDBRANCH  25  27
ENDBRANCH   1  25
BRANCH   7  30
ATOM     30  C   UNL     1       5.825  -2.048   6.877  0.00  0.00    +0.202 C 
ATOM     31  O   UNL     1       6.051  -0.868   7.087  0.00  0.00    -0.286 OA
BRANCH  30  32
ATOM     32  C   UNL     1       6.606  -3.087   7.582  0.00  0.00    +0.023 A 
ATOM     33  C   UNL     1       6.748  -4.358   7.021  0.00  0.00    +0.014 A 
ATOM     34  C   UNL     1       7.478  -5.323   7.682  0.00  0.00    +0.039 A 
ATOM     35  C   UNL     1       8.070  -5.033   8.902  0.00  0.00    +0.123 A 
ATOM     36  C   UNL     1       7.932  -3.773   9.463  0.00  0.00    +0.039 A 
ATOM     37  C   UNL     1       7.210  -2.799   8.808  0.00  0.00    +0.014 A 
ATOM     38  F   UNL     1       8.784  -5.982   9.546  0.00  0.00    -0.205 F 
ENDBRANCH  30  32
ENDBRANCH   7  30
TORSDOF 9
