REMARK  Name = ZINC39678375
REMARK  10 active torsions:
REMARK  status: ('A' for Active; 'I' for Inactive)
REMARK    1  A    between atoms: C_1  and  C_2
REMARK    2  A    between atoms: C_2  and  C_3
REMARK    3  A    between atoms: C_2  and  C_4
REMARK    4  A    between atoms: C_4  and  C_6
REMARK    5  A    between atoms: C_4  and  O_35
REMARK    6  A    between atoms: C_10  and  C_19
REMARK    7  A    between atoms: N_21  and  C_22
REMARK    8  A    between atoms: C_22  and  C_23
REMARK    9  A    between atoms: C_28  and  N_29
REMARK   10  A    between atoms: O_35  and  C_36
REMARK                            x       y       z     vdW  Elec       q    Type
REMARK                         _______ _______ _______ _____ _____    ______ ____
ROOT
ATOM      1  C   UNL     1      -1.768  -0.698  -0.804  0.00  0.00    +0.257 C 
ATOM      2  O   UNL     1      -2.586   0.147  -1.100  0.00  0.00    -0.272 OA
ATOM      3  N   UNL     1      -1.219  -1.471  -1.762  0.00  0.00    -0.297 N 
ATOM      4  C   UNL     1      -0.300  -2.620  -1.587  0.00  0.00    +0.121 C 
ATOM      5  C   UNL     1      -0.762  -3.653  -2.640  0.00  0.00    +0.100 C 
ATOM      6  C   UNL     1      -1.480  -2.821  -3.716  0.00  0.00    -0.004 C 
ATOM      7  C   UNL     1      -1.403  -1.367  -3.229  0.00  0.00    +0.115 C 
ATOM      8  C   UNL     1      -0.770  -2.968  -5.059  0.00  0.00    -0.010 C 
ATOM      9  C   UNL     1      -1.535  -2.179  -6.125  0.00  0.00    -0.082 C 
ATOM     10  N   UNL     1      -2.910  -2.686  -6.218  0.00  0.00    +0.379 N 
ATOM     11  C   UNL     1      -3.615  -2.456  -4.951  0.00  0.00    -0.082 C 
ATOM     12  C   UNL     1      -2.937  -3.257  -3.835  0.00  0.00    -0.010 C 
ATOM     13  H   UNL     1      -3.394  -2.206  -6.962  0.00  0.00    -0.086 HD
ATOM     14  H   UNL     1      -2.890  -3.675  -6.415  0.00  0.00    -0.086 HD
ENDROOT
BRANCH   5  15
ATOM     15  C   UNL     1      -1.711  -4.646  -2.021  0.00  0.00    +0.218 C 
ATOM     16  O   UNL     1      -2.467  -4.294  -1.140  0.00  0.00    -0.275 OA
ATOM     17  N   UNL     1      -1.720  -5.925  -2.446  0.00  0.00    -0.311 N 
ATOM     18  H   UNL     1      -1.067  -6.224  -3.098  0.00  0.00    +0.149 HD
BRANCH  17  19
ATOM     19  C   UNL     1      -2.716  -6.863  -1.923  0.00  0.00    +0.141 C 
BRANCH  19  20
ATOM     20  C   UNL     1      -2.437  -8.243  -2.461  0.00  0.00    -0.009 A 
ATOM     21  C   UNL     1      -3.189  -8.744  -3.505  0.00  0.00    +0.007 A 
ATOM     22  C   UNL     1      -2.934 -10.010  -3.999  0.00  0.00    +0.000 A 
ATOM     23  C   UNL     1      -1.925 -10.779  -3.449  0.00  0.00    +0.002 A 
ATOM     24  C   UNL     1      -1.169 -10.285  -2.404  0.00  0.00    +0.023 A 
ATOM     25  C   UNL     1      -1.419  -9.011  -1.910  0.00  0.00    +0.034 A 
BRANCH  25  26
ATOM     26  N   UNL     1      -0.653  -8.506  -0.857  0.00  0.00    -0.330 N 
ATOM     27  C   UNL     1      -1.006  -8.806   0.537  0.00  0.00    +0.105 C 
ATOM     28  C   UNL     1       0.221  -9.393   1.242  0.00  0.00    +0.019 C 
ATOM     29  C   UNL     1       1.402  -8.432   1.085  0.00  0.00    +0.003 C 
ATOM     30  C   UNL     1       1.732  -8.264  -0.400  0.00  0.00    +0.019 C 
ATOM     31  C   UNL     1       0.525  -7.669  -1.123  0.00  0.00    +0.105 C 
ENDBRANCH  25  26
ENDBRANCH  19  20
ENDBRANCH  17  19
ENDBRANCH   5  15
BRANCH   1  32
ATOM     32  C   UNL     1      -1.364  -0.884   0.636  0.00  0.00    +0.261 C 
BRANCH  32  34
ATOM     33  C   UNL     1       0.249   1.014   0.444  0.00  0.00    +0.011 C 
ATOM     34  C   UNL     1       0.095  -0.462   0.816  0.00  0.00    +0.033 C 
ATOM     35  C   UNL     1       0.510  -0.667   2.274  0.00  0.00    +0.011 C 
ENDBRANCH  32  34
BRANCH  32  36
ATOM     36  O   UNL     1      -2.199  -0.079   1.472  0.00  0.00    -0.479 OA
BRANCH  36  37
ATOM     37  C   UNL     1      -3.408  -0.595   1.816  0.00  0.00    +0.122 A 
ATOM     38  C   UNL     1      -3.757  -1.876   1.413  0.00  0.00    +0.045 A 
ATOM     39  C   UNL     1      -4.987  -2.398   1.765  0.00  0.00    +0.004 A 
ATOM     40  C   UNL     1      -5.870  -1.645   2.517  0.00  0.00    +0.000 A 
ATOM     41  C   UNL     1      -5.524  -0.368   2.920  0.00  0.00    +0.004 A 
ATOM     42  C   UNL     1      -4.293   0.156   2.576  0.00  0.00    +0.045 A 
ENDBRANCH  36  37
ENDBRANCH  32  36
ENDBRANCH   1  32
TORSDOF 8
