REMARK  Name = ZINC08979813
REMARK  4 active torsions:
REMARK  status: ('A' for Active; 'I' for Inactive)
REMARK    1  A    between atoms: C_3  and  C_7
REMARK    2  A    between atoms: C_7  and  N_8
REMARK    3  A    between atoms: C_9  and  C_11
REMARK    4  A    between atoms: C_21  and  C_23
REMARK                            x       y       z     vdW  Elec       q    Type
REMARK                         _______ _______ _______ _____ _____    ______ ____
ROOT
ATOM      1  C   UNL     1       5.785  -4.159  -0.066  0.00  0.00    +0.125 C 
ATOM      2  C   UNL     1       7.247  -3.971  -0.520  0.00  0.00    +0.024 C 
ATOM      3  C   UNL     1       7.531  -2.517  -0.081  0.00  0.00    +0.045 C 
ATOM      4  C   UNL     1       6.185  -1.858  -0.062  0.00  0.00    +0.015 A 
ATOM      5  C   UNL     1       5.173  -2.757  -0.057  0.00  0.00    +0.066 A 
ATOM      6  N   UNL     1       3.934  -2.245  -0.039  0.00  0.00    -0.229 NA
ATOM      7  C   UNL     1       3.710  -0.952  -0.036  0.00  0.00    +0.165 A 
ATOM      8  S   UNL     1       5.321  -0.304  -0.047  0.00  0.00    -0.057 S 
ATOM      9  N   UNL     1       2.497  -0.275  -0.021  0.00  0.00    -0.261 N 
ATOM     10  C   UNL     1       2.477   1.072  -0.015  0.00  0.00    +0.250 C 
ATOM     11  O   UNL     1       3.520   1.696  -0.021  0.00  0.00    -0.270 OA
ATOM     12  H   UNL     1       1.664  -0.773  -0.016  0.00  0.00    +0.157 HD
ENDROOT
BRANCH  10  13
ATOM     13  C   UNL     1       1.188   1.791   0.000  0.00  0.00    +0.041 A 
ATOM     14  C   UNL     1      -0.013   1.076   0.008  0.00  0.00    +0.017 A 
ATOM     15  C   UNL     1      -1.215   1.748   0.017  0.00  0.00    +0.050 A 
ATOM     16  C   UNL     1      -1.239   3.137   0.030  0.00  0.00    +0.166 A 
ATOM     17  C   UNL     1      -0.044   3.857   0.022  0.00  0.00    +0.167 A 
ATOM     18  C   UNL     1       1.165   3.188   0.008  0.00  0.00    +0.062 A 
ATOM     19  O   UNL     1      -0.338   5.190   0.032  0.00  0.00    -0.453 OA
ATOM     20  C   UNL     1      -1.711   5.276   0.458  0.00  0.00    +0.466 C 
ATOM     21  O   UNL     1      -2.278   4.019   0.044  0.00  0.00    -0.453 OA
ENDBRANCH  10  13
BRANCH   1  23
ATOM     22  N   UNL     1       3.749  -5.337  -0.830  0.00  0.00    -0.311 N 
ATOM     23  C   UNL     1       5.048  -5.042  -1.039  0.00  0.00    +0.222 C 
ATOM     24  O   UNL     1       5.622  -5.488  -2.009  0.00  0.00    -0.275 OA
ATOM     25  H   UNL     1       3.289  -4.980  -0.054  0.00  0.00    +0.149 HD
BRANCH  22  26
ATOM     26  C   UNL     1       3.032  -6.196  -1.776  0.00  0.00    +0.141 C 
BRANCH  26  29
ATOM     27  C   UNL     1      -0.675  -5.683  -1.288  0.00  0.00    +0.020 A 
ATOM     28  C   UNL     1       0.623  -5.485  -1.735  0.00  0.00    +0.008 A 
ATOM     29  C   UNL     1       1.607  -6.368  -1.317  0.00  0.00    -0.012 A 
ATOM     30  C   UNL     1       1.263  -7.411  -0.478  0.00  0.00    +0.115 A 
ATOM     31  N   UNL     1       0.019  -7.566  -0.068  0.00  0.00    -0.263 NA
ATOM     32  C   UNL     1      -0.942  -6.745  -0.446  0.00  0.00    +0.111 A 
ENDBRANCH  26  29
ENDBRANCH  22  26
ENDBRANCH   1  23
TORSDOF 4
