REMARK  Name = ZINC58949987
REMARK  6 active torsions:
REMARK  status: ('A' for Active; 'I' for Inactive)
REMARK    1  A    between atoms: C_1  and  C_2
REMARK    2  A    between atoms: C_7  and  C_8
REMARK    3  A    between atoms: C_13  and  C_17
REMARK    4  A    between atoms: C_13  and  C_18
REMARK    5  A    between atoms: C_20  and  N_25
REMARK    6  A    between atoms: C_21  and  C_22
REMARK                            x       y       z     vdW  Elec       q    Type
REMARK                         _______ _______ _______ _____ _____    ______ ____
ROOT
ATOM      1  C   UNL     1       0.256   0.092   2.523  0.00  0.00    +0.096 C 
ATOM      2  C   UNL     1       1.610  -0.172   3.135  0.00  0.00    +0.045 C 
ATOM      3  C   UNL     1       1.750  -1.067   4.130  0.00  0.00    +0.115 C 
ATOM      4  C   UNL     1       3.101  -1.325   4.752  0.00  0.00    +0.081 C 
ATOM      5  C   UNL     1       4.198  -1.118   3.706  0.00  0.00    -0.021 C 
ATOM      6  C   UNL     1       4.100   0.318   3.178  0.00  0.00    +0.086 C 
ATOM      7  C   UNL     1       2.716   0.542   2.634  0.00  0.00    +0.164 C 
ATOM      8  O   UNL     1       2.549   1.354   1.746  0.00  0.00    -0.292 OA
ATOM      9  C   UNL     1       5.569  -1.337   4.348  0.00  0.00    +0.012 C 
ATOM     10  C   UNL     1       4.002  -2.104   2.553  0.00  0.00    +0.012 C 
ATOM     11  O   UNL     1       0.693  -1.758   4.599  0.00  0.00    -0.446 OA
ATOM     12  C   UNL     1      -0.554  -1.297   4.416  0.00  0.00    +0.193 C 
ATOM     13  C   UNL     1      -0.830  -0.406   3.434  0.00  0.00    +0.083 C 
ENDROOT
BRANCH   1  20
ATOM     14  C   UNL     1      -0.416   1.574   0.135  0.00  0.00    +0.044 C 
ATOM     15  C   UNL     1      -0.161   0.090   0.055  0.00  0.00    -0.046 A 
ATOM     16  C   UNL     1      -0.242  -0.560  -1.162  0.00  0.00    +0.003 A 
ATOM     17  C   UNL     1      -0.009  -1.921  -1.236  0.00  0.00    +0.000 A 
ATOM     18  C   UNL     1       0.308  -2.630  -0.092  0.00  0.00    +0.000 A 
ATOM     19  C   UNL     1       0.390  -1.980   1.124  0.00  0.00    +0.005 A 
ATOM     20  C   UNL     1       0.161  -0.618   1.197  0.00  0.00    -0.032 A 
ENDBRANCH   1  20
BRANCH  13  21
ATOM     21  C   UNL     1      -2.148   0.056   3.267  0.00  0.00    +0.243 C 
ATOM     22  O   UNL     1      -2.467   1.153   3.692  0.00  0.00    -0.271 OA
ATOM     23  N   UNL     1      -3.058  -0.715   2.638  0.00  0.00    -0.325 N 
ATOM     24  H   UNL     1      -2.824  -1.616   2.365  0.00  0.00    +0.145 HD
ATOM     25  H   UNL     1      -3.946  -0.368   2.459  0.00  0.00    +0.145 HD
ENDBRANCH  13  21
BRANCH  12  26
ATOM     26  N   UNL     1      -1.562  -1.735   5.234  0.00  0.00    -0.329 N 
ATOM     27  H   UNL     1      -1.360  -2.314   5.985  0.00  0.00    +0.145 HD
ATOM     28  H   UNL     1      -2.478  -1.467   5.061  0.00  0.00    +0.145 HD
ENDBRANCH  12  26
TORSDOF 3
