REMARK  Name = ZINC33735578
REMARK  9 active torsions:
REMARK  status: ('A' for Active; 'I' for Inactive)
REMARK    1  A    between atoms: C_1  and  C_2
REMARK    2  A    between atoms: C_2  and  C_3
REMARK    3  A    between atoms: C_3  and  C_5
REMARK    4  A    between atoms: C_3  and  C_6
REMARK    5  A    between atoms: C_6  and  C_8
REMARK    6  A    between atoms: C_6  and  N_23
REMARK    7  A    between atoms: C_14  and  C_16
REMARK    8  A    between atoms: N_26  and  C_27
REMARK    9  A    between atoms: C_30  and  C_33
REMARK                            x       y       z     vdW  Elec       q    Type
REMARK                         _______ _______ _______ _____ _____    ______ ____
ROOT
ATOM      1  C   UNL     1       0.142   3.445   0.899  0.00  0.00    +0.163 C 
ENDROOT
BRANCH   1   2
ATOM      2  C   UNL     1       0.220   3.850   2.349  0.00  0.00    +0.239 C 
ATOM      3  O   UNL     1      -0.032   4.992   2.674  0.00  0.00    -0.273 OA
ATOM      4  N   UNL     1       0.568   2.945   3.284  0.00  0.00    -0.262 N 
ATOM      5  C   UNL     1       0.539   3.289   4.630  0.00  0.00    +0.188 A 
ATOM      6  N   UNL     1       0.211   4.437   5.209  0.00  0.00    -0.125 NA
ATOM      7  N   UNL     1       0.234   4.582   6.462  0.00  0.00    -0.140 NA
ATOM      8  C   UNL     1       0.600   3.599   7.275  0.00  0.00    +0.134 A 
ATOM      9  S   UNL     1       0.941   2.313   6.076  0.00  0.00    -0.030 S 
ATOM     10  H   UNL     1       0.876   1.933   2.982  0.00  0.00    +0.157 HD
BRANCH   8  11
ATOM     11  C   UNL     1       0.698   3.573   8.749  0.00  0.00    +0.009 A 
ATOM     12  C   UNL     1       1.107   2.409   9.404  0.00  0.00    +0.012 A 
ATOM     13  C   UNL     1       1.201   2.392  10.780  0.00  0.00    +0.020 A 
ATOM     14  C   UNL     1       0.882   3.523  11.512  0.00  0.00    +0.041 A 
ATOM     15  C   UNL     1       0.471   4.679  10.869  0.00  0.00    +0.020 A 
ATOM     16  C   UNL     1       0.378   4.709   9.493  0.00  0.00    +0.012 A 
ATOM     17 CL   UNL     1       0.997   3.492  13.244  0.00  0.00    -0.084 Cl
ENDBRANCH   8  11
ENDBRANCH   1   2
BRANCH   1  18
ATOM     18  N   UNL     1      -0.235   4.605   0.087  0.00  0.00    -0.288 N 
ATOM     19  C   UNL     1       0.334   4.797  -1.119  0.00  0.00    +0.304 C 
ATOM     20  O   UNL     1       1.088   3.960  -1.576  0.00  0.00    -0.252 OA
ATOM     21  N   UNL     1       0.067   5.917  -1.820  0.00  0.00    -0.269 N 
ATOM     22  H   UNL     1      -0.983   5.319   0.463  0.00  0.00    +0.151 HD
ATOM     23  H   UNL     1      -0.550   6.711  -1.373  0.00  0.00    +0.156 HD
BRANCH  21  24
ATOM     24  C   UNL     1       0.575   6.070  -3.115  0.00  0.00    +0.035 A 
ATOM     25  C   UNL     1       1.821   5.550  -3.439  0.00  0.00    +0.023 A 
ATOM     26  C   UNL     1       2.318   5.698  -4.720  0.00  0.00    +0.005 A 
ATOM     27  C   UNL     1       1.580   6.374  -5.675  0.00  0.00    -0.050 A 
ATOM     28  C   UNL     1       0.342   6.898  -5.353  0.00  0.00    +0.005 A 
ATOM     29  C   UNL     1      -0.163   6.748  -4.076  0.00  0.00    +0.023 A 
ATOM     30  C   UNL     1       2.127   6.539  -7.069  0.00  0.00    +0.044 C 
ENDBRANCH  21  24
ENDBRANCH   1  18
BRANCH   1  31
ATOM     31  C   UNL     1      -0.906   2.344   0.733  0.00  0.00    +0.015 C 
ATOM     32  C   UNL     1      -0.862   1.810  -0.700  0.00  0.00    +0.010 C 
BRANCH  31  34
ATOM     33  C   UNL     1      -2.397   3.288   2.502  0.00  0.00    +0.004 C 
ATOM     34  C   UNL     1      -2.296   2.914   1.021  0.00  0.00    +0.002 C 
ENDBRANCH  31  34
ENDBRANCH   1  31
TORSDOF 6
