REMARK  Name = ZINC49458987
REMARK  8 active torsions:
REMARK  status: ('A' for Active; 'I' for Inactive)
REMARK    1  A    between atoms: C_1  and  C_2
REMARK    2  A    between atoms: C_2  and  C_3
REMARK    3  A    between atoms: C_3  and  C_5
REMARK    4  A    between atoms: C_3  and  N_6
REMARK    5  A    between atoms: C_7  and  C_9
REMARK    6  A    between atoms: C_9  and  C_11
REMARK    7  A    between atoms: C_9  and  N_12
REMARK    8  A    between atoms: N_15  and  C_16
REMARK                            x       y       z     vdW  Elec       q    Type
REMARK                         _______ _______ _______ _____ _____    ______ ____
ROOT
ATOM      1  N   UNL     1       0.664   0.521  -6.001  0.00  0.00    -0.288 N 
ATOM      2  C   UNL     1       0.334   1.301  -7.050  0.00  0.00    +0.304 C 
ATOM      3  O   UNL     1      -0.703   1.936  -7.032  0.00  0.00    -0.252 OA
ATOM      4  N   UNL     1       1.152   1.377  -8.118  0.00  0.00    -0.269 N 
ATOM      5  H   UNL     1       1.491   0.015  -6.015  0.00  0.00    +0.151 HD
ATOM      6  H   UNL     1       2.009   0.922  -8.105  0.00  0.00    +0.156 HD
ENDROOT
BRANCH   4   7
ATOM      7  C   UNL     1       0.766   2.111  -9.245  0.00  0.00    +0.048 A 
ATOM      8  C   UNL     1       0.016   3.270  -9.097  0.00  0.00    +0.024 A 
ATOM      9  C   UNL     1      -0.364   3.992 -10.211  0.00  0.00    +0.002 A 
ATOM     10  C   UNL     1       0.001   3.561 -11.474  0.00  0.00    +0.001 A 
ATOM     11  C   UNL     1       0.746   2.407 -11.625  0.00  0.00    +0.016 A 
ATOM     12  C   UNL     1       1.135   1.683 -10.514  0.00  0.00    +0.035 A 
ATOM     13  I   UNL     1       2.273  -0.061 -10.743  0.00  0.00    -0.042 I 
ENDBRANCH   4   7
BRANCH   1  14
ATOM     14  C   UNL     1      -0.225   0.439  -4.840  0.00  0.00    +0.157 C 
ATOM     15  C   UNL     1      -1.303  -0.616  -5.097  0.00  0.00    +0.038 C 
BRANCH  14  17
ATOM     16  N   UNL     1      -0.040  -0.081  -2.429  0.00  0.00    -0.311 N 
ATOM     17  C   UNL     1       0.574   0.055  -3.621  0.00  0.00    +0.233 C 
ATOM     18  O   UNL     1       1.768  -0.132  -3.713  0.00  0.00    -0.274 OA
ATOM     19  H   UNL     1      -0.995   0.068  -2.355  0.00  0.00    +0.149 HD
BRANCH  16  20
ATOM     20  C   UNL     1       0.737  -0.455  -1.244  0.00  0.00    +0.070 C 
ATOM     21  C   UNL     1       0.873  -1.978  -1.183  0.00  0.00    +0.028 C 
BRANCH  20  23
ATOM     22  C   UNL     1      -0.004   1.574   0.011  0.00  0.00    +0.005 C 
ATOM     23  C   UNL     1       0.021   0.044   0.013  0.00  0.00    +0.018 C 
ENDBRANCH  20  23
ENDBRANCH  16  20
ENDBRANCH  14  17
ENDBRANCH   1  14
TORSDOF 5
