REMARK  Name = ZINC00584773
REMARK  5 active torsions:
REMARK  status: ('A' for Active; 'I' for Inactive)
REMARK    1  A    between atoms: C_1  and  S_2
REMARK    2  A    between atoms: S_2  and  C_3
REMARK    3  A    between atoms: C_6  and  C_9
REMARK    4  A    between atoms: C_22  and  N_26
REMARK    5  A    between atoms: C_23  and  C_24
REMARK                            x       y       z     vdW  Elec       q    Type
REMARK                         _______ _______ _______ _____ _____    ______ ____
ROOT
ATOM      1  C   UNL     1      -1.319   2.115   0.032  0.00  0.00    +0.098 C 
ATOM      2  C   UNL     1      -0.016   1.360   0.009  0.00  0.00    +0.015 A 
ATOM      3  C   UNL     1       1.195   2.074   0.002  0.00  0.00    -0.010 A 
ATOM      4  C   UNL     1       1.210   3.480   0.007  0.00  0.00    +0.009 A 
ATOM      5  C   UNL     1       2.399   4.141   0.002  0.00  0.00    +0.001 A 
ATOM      6  C   UNL     1       3.607   3.445  -0.009  0.00  0.00    +0.001 A 
ATOM      7  C   UNL     1       3.631   2.084  -0.016  0.00  0.00    +0.008 A 
ATOM      8  C   UNL     1       2.423   1.367  -0.012  0.00  0.00    -0.017 A 
ATOM      9  C   UNL     1       2.408  -0.039  -0.020  0.00  0.00    +0.012 A 
ATOM     10  C   UNL     1       1.221  -0.699  -0.013  0.00  0.00    +0.047 A 
ATOM     11  C   UNL     1       0.002  -0.004   0.002  0.00  0.00    +0.135 A 
ATOM     12  O   UNL     1      -1.154  -0.715   0.010  0.00  0.00    -0.441 OA
ATOM     13  C   UNL     1      -2.304  -0.134  -0.368  0.00  0.00    +0.199 C 
ATOM     14  C   UNL     1      -2.449   1.213  -0.383  0.00  0.00    +0.098 C 
ENDROOT
BRANCH   1  18
ATOM     15  C   UNL     1      -2.028   3.595   3.979  0.00  0.00    +0.008 A 
ATOM     16  C   UNL     1      -1.923   4.479   2.912  0.00  0.00    +0.015 A 
ATOM     17  C   UNL     1      -1.694   3.998   1.638  0.00  0.00    +0.005 A 
ATOM     18  C   UNL     1      -1.569   2.637   1.424  0.00  0.00    -0.035 A 
ATOM     19  C   UNL     1      -1.678   1.754   2.482  0.00  0.00    +0.005 A 
ATOM     20  C   UNL     1      -1.902   2.228   3.760  0.00  0.00    +0.015 A 
BRANCH  15  22
ATOM     21  C   UNL     1      -2.378   2.710   6.631  0.00  0.00    +0.090 C 
ATOM     22  S   UNL     1      -2.321   4.205   5.606  0.00  0.00    -0.129 S 
ENDBRANCH  15  22
ENDBRANCH   1  18
BRANCH  13  23
ATOM     23  N   UNL     1      -3.360  -0.925  -0.749  0.00  0.00    -0.328 N 
ATOM     24  H   UNL     1      -3.269  -1.891  -0.743  0.00  0.00    +0.145 HD
ATOM     25  H   UNL     1      -4.196  -0.518  -1.024  0.00  0.00    +0.145 HD
ENDBRANCH  13  23
BRANCH  14  26
ATOM     26  C   UNL     1      -3.695   1.785  -0.795  0.00  0.00    +0.101 C 
ATOM     27  N   UNL     1      -4.684   2.239  -1.121  0.00  0.00    -0.191 NA
ENDBRANCH  14  26
TORSDOF 4
