REMARK  Name = ZINC00869707
REMARK  10 active torsions:
REMARK  status: ('A' for Active; 'I' for Inactive)
REMARK    1  A    between atoms: C_1  and  O_2
REMARK    2  A    between atoms: O_2  and  C_3
REMARK    3  A    between atoms: C_6  and  N_9
REMARK    4  A    between atoms: N_9  and  S_10
REMARK    5  A    between atoms: S_10  and  C_13
REMARK    6  A    between atoms: C_26  and  C_29
REMARK    7  A    between atoms: C_33  and  O_37
REMARK    8  A    between atoms: C_34  and  O_35
REMARK    9  A    between atoms: O_35  and  C_36
REMARK   10  A    between atoms: O_37  and  C_38
REMARK                            x       y       z     vdW  Elec       q    Type
REMARK                         _______ _______ _______ _____ _____    ______ ____
ROOT
ATOM      1  C   UNL     1       0.120  -0.111   5.199  0.00  0.00    +0.109 A 
ATOM      2  C   UNL     1      -0.632  -1.156   4.695  0.00  0.00    +0.030 A 
ATOM      3  C   UNL     1      -0.074  -2.415   4.596  0.00  0.00    +0.025 A 
ATOM      4  C   UNL     1       1.238  -2.628   5.000  0.00  0.00    +0.031 A 
ATOM      5  C   UNL     1       1.996  -1.582   5.504  0.00  0.00    -0.018 A 
ATOM      6  C   UNL     1       1.425  -0.320   5.596  0.00  0.00    +0.034 A 
ATOM      7  C   UNL     1       3.414  -1.762   5.946  0.00  0.00    +0.049 C 
ATOM      8  C   UNL     1       3.526  -1.767   7.452  0.00  0.00    -0.023 C 
ATOM      9  C   UNL     1       4.447  -2.617   7.836  0.00  0.00    -0.030 C 
ATOM     10  C   UNL     1       5.081  -3.291   6.634  0.00  0.00    +0.033 C 
ATOM     11  C   UNL     1       4.010  -3.116   5.517  0.00  0.00    +0.029 C 
ATOM     12  C   UNL     1       2.972  -4.226   5.704  0.00  0.00    +0.109 C 
ATOM     13  N   UNL     1       1.788  -3.910   4.898  0.00  0.00    -0.336 N 
ATOM     14  H   UNL     1       1.396  -4.573   4.309  0.00  0.00    +0.147 HD
ENDROOT
BRANCH  12  15
ATOM     15  C   UNL     1       2.584  -4.316   7.157  0.00  0.00    +0.018 A 
ATOM     16  C   UNL     1       1.804  -3.326   7.727  0.00  0.00    +0.009 A 
ATOM     17  C   UNL     1       1.446  -3.405   9.059  0.00  0.00    +0.004 A 
ATOM     18  C   UNL     1       1.866  -4.474   9.829  0.00  0.00    +0.049 A 
ATOM     19  C   UNL     1       2.648  -5.469   9.265  0.00  0.00    +0.162 A 
ATOM     20  C   UNL     1       3.004  -5.392   7.921  0.00  0.00    +0.166 A 
BRANCH  20  21
ATOM     21  O   UNL     1       3.766  -6.369   7.361  0.00  0.00    -0.491 OA
ATOM     22  C   UNL     1       5.129  -6.450   7.783  0.00  0.00    +0.277 C 
ENDBRANCH  20  21
BRANCH  19  23
ATOM     23  O   UNL     1       3.061  -6.521  10.020  0.00  0.00    -0.491 OA
ATOM     24  C   UNL     1       2.653  -6.537  11.389  0.00  0.00    +0.277 C 
ENDBRANCH  19  23
ENDBRANCH  12  15
BRANCH   1  25
ATOM     25  S   UNL     1      -0.589   1.497   5.328  0.00  0.00    +0.072 S 
ATOM     26  O   UNL     1       0.494   2.413   5.416  0.00  0.00    -0.150 OA
ATOM     27  O   UNL     1      -1.582   1.586   4.315  0.00  0.00    -0.150 OA
BRANCH  25  28
ATOM     28  N   UNL     1      -1.385   1.566   6.779  0.00  0.00    -0.216 N 
ATOM     29  H   UNL     1      -1.090   2.184   7.465  0.00  0.00    +0.174 HD
BRANCH  28  33
ATOM     30  C   UNL     1      -4.661  -0.915   7.478  0.00  0.00    +0.120 A 
ATOM     31  C   UNL     1      -3.439  -1.196   8.072  0.00  0.00    +0.047 A 
ATOM     32  C   UNL     1      -2.353  -0.375   7.841  0.00  0.00    +0.028 A 
ATOM     33  C   UNL     1      -2.485   0.733   7.013  0.00  0.00    +0.048 A 
ATOM     34  C   UNL     1      -3.710   1.017   6.424  0.00  0.00    +0.028 A 
ATOM     35  C   UNL     1      -4.793   0.191   6.652  0.00  0.00    +0.047 A 
BRANCH  30  37
ATOM     36  C   UNL     1      -6.957  -1.375   7.064  0.00  0.00    +0.277 C 
ATOM     37  O   UNL     1      -5.730  -1.724   7.707  0.00  0.00    -0.495 OA
ENDBRANCH  30  37
ENDBRANCH  28  33
ENDBRANCH  25  28
ENDBRANCH   1  25
TORSDOF 7
