REMARK  Name = ZINC35642737
REMARK  12 active torsions:
REMARK  status: ('A' for Active; 'I' for Inactive)
REMARK    1  A    between atoms: C_1  and  C_2
REMARK    2  A    between atoms: C_2  and  C_3
REMARK    3  A    between atoms: C_3  and  N_4
REMARK    4  A    between atoms: N_11  and  C_14
REMARK    5  A    between atoms: C_14  and  C_15
REMARK    6  A    between atoms: C_16  and  C_32
REMARK    7  A    between atoms: C_17  and  C_25
REMARK    8  A    between atoms: N_22  and  C_23
REMARK    9  A    between atoms: C_23  and  C_24
REMARK   10  A    between atoms: C_32  and  O_34
REMARK   11  A    between atoms: O_34  and  C_35
REMARK   12  A    between atoms: C_35  and  C_36
REMARK                            x       y       z     vdW  Elec       q    Type
REMARK                         _______ _______ _______ _____ _____    ______ ____
ROOT
ATOM      1  C   UNL     1      -5.265  -7.113   3.107  0.00  0.00    +0.010 C 
ATOM      2  C   UNL     1      -5.696  -8.338   3.475  0.00  0.00    +0.076 C 
ATOM      3  C   UNL     1      -7.171  -8.645   3.313  0.00  0.00    +0.143 C 
ATOM      4  N   UNL     1      -8.019  -7.574   2.763  0.00  0.00    -0.288 N 
ATOM      5  C   UNL     1      -7.441  -6.400   2.441  0.00  0.00    +0.307 C 
ATOM      6  O   UNL     1      -8.132  -5.509   1.987  0.00  0.00    -0.252 OA
ATOM      7  N   UNL     1      -6.131  -6.181   2.611  0.00  0.00    -0.261 N 
ATOM      8  H   UNL     1      -8.971  -7.710   2.636  0.00  0.00    +0.151 HD
ENDROOT
BRANCH   3   9
ATOM      9  C   UNL     1      -7.299  -9.847   2.412  0.00  0.00    -0.022 A 
ATOM     10  C   UNL     1      -7.190  -9.697   1.042  0.00  0.00    +0.008 A 
ATOM     11  C   UNL     1      -7.307 -10.798   0.215  0.00  0.00    +0.038 A 
ATOM     12  C   UNL     1      -7.534 -12.051   0.759  0.00  0.00    +0.123 A 
ATOM     13  C   UNL     1      -7.644 -12.199   2.131  0.00  0.00    +0.038 A 
ATOM     14  C   UNL     1      -7.521 -11.098   2.957  0.00  0.00    +0.008 A 
ATOM     15  F   UNL     1      -7.649 -13.128  -0.049  0.00  0.00    -0.205 F 
ENDBRANCH   3   9
BRANCH   7  16
ATOM     16  C   UNL     1      -5.595  -4.869   2.237  0.00  0.00    +0.111 C 
ATOM     17  C   UNL     1      -5.274  -4.857   0.741  0.00  0.00    +0.025 C 
ENDBRANCH   7  16
BRANCH   2  18
ATOM     18  C   UNL     1      -4.801  -9.303   3.994  0.00  0.00    +0.339 C 
ATOM     19  O   UNL     1      -3.647  -8.997   4.231  0.00  0.00    -0.245 OA
BRANCH  18  20
ATOM     20  O   UNL     1      -5.226 -10.563   4.225  0.00  0.00    -0.462 OA
BRANCH  20  21
ATOM     21  C   UNL     1      -4.269 -11.485   4.749  0.00  0.00    +0.229 C 
ATOM     22  C   UNL     1      -4.930 -12.851   4.944  0.00  0.00    +0.048 C 
ENDBRANCH  20  21
ENDBRANCH  18  20
ENDBRANCH   2  18
BRANCH   1  23
ATOM     23  C   UNL     1      -3.805  -6.766   3.251  0.00  0.00    -0.026 C 
BRANCH  23  31
ATOM     24  N   UNL     1      -2.562  -7.792   8.392  0.00  0.00    -0.299 N 
ATOM     25  C   UNL     1      -1.939  -6.649   8.044  0.00  0.00    +0.302 C 
ATOM     26  O   UNL     1      -0.812  -6.425   8.441  0.00  0.00    -0.253 OA
ATOM     27  N   UNL     1      -2.565  -5.753   7.254  0.00  0.00    -0.287 N 
ATOM     28  C   UNL     1      -1.815  -4.569   6.788  0.00  0.00    +0.107 C 
ATOM     29  C   UNL     1      -2.123  -4.265   5.311  0.00  0.00    +0.000 C 
ATOM     30  C   UNL     1      -2.211  -5.562   4.538  0.00  0.00    -0.077 C 
ATOM     31  N   UNL     1      -3.604  -6.001   4.489  0.00  0.00    +0.384 N 
ATOM     32  C   UNL     1      -4.016  -6.799   5.579  0.00  0.00    -0.059 C 
ATOM     33  C   UNL     1      -3.946  -5.990   6.888  0.00  0.00    +0.091 C 
ATOM     34  H   UNL     1      -3.486  -7.938   8.135  0.00  0.00    +0.150 HD
ATOM     35  H   UNL     1      -4.194  -5.183   4.452  0.00  0.00    -0.081 HD
BRANCH  24  36
ATOM     36  C   UNL     1      -1.845  -8.813   9.159  0.00  0.00    +0.105 C 
BRANCH  36  38
ATOM     37  C   UNL     1      -2.024 -11.067  10.221  0.00  0.00    +0.005 C 
ATOM     38  C   UNL     1      -2.774 -10.000   9.420  0.00  0.00    +0.015 C 
ENDBRANCH  36  38
ENDBRANCH  24  36
ENDBRANCH  23  31
ENDBRANCH   1  23
TORSDOF 9
