REMARK  Name = ZINC34716503
REMARK  7 active torsions:
REMARK  status: ('A' for Active; 'I' for Inactive)
REMARK    1  A    between atoms: C_1  and  C_2
REMARK    2  A    between atoms: C_4  and  C_9
REMARK    3  A    between atoms: C_13  and  C_27
REMARK    4  A    between atoms: N_19  and  C_20
REMARK    5  A    between atoms: C_20  and  C_21
REMARK    6  A    between atoms: N_29  and  C_30
REMARK    7  A    between atoms: C_30  and  C_31
REMARK                            x       y       z     vdW  Elec       q    Type
REMARK                         _______ _______ _______ _____ _____    ______ ____
ROOT
ATOM      1  C   UNL     1       0.040  -2.823  -2.511  0.00  0.00    +0.108 C 
ATOM      2  C   UNL     1       1.475  -3.186  -2.906  0.00  0.00    +0.028 C 
ATOM      3  C   UNL     1       1.449  -4.052  -4.167  0.00  0.00    +0.016 C 
ATOM      4  C   UNL     1       0.685  -5.347  -3.883  0.00  0.00    +0.092 C 
ATOM      5  C   UNL     1      -0.759  -5.009  -3.499  0.00  0.00    +0.122 C 
ATOM      6  N   UNL     1      -0.744  -4.059  -2.378  0.00  0.00    -0.278 N 
ATOM      7  C   UNL     1      -1.432  -4.318  -1.248  0.00  0.00    +0.303 C 
ATOM      8  O   UNL     1      -1.493  -3.481  -0.369  0.00  0.00    -0.253 OA
ATOM      9  N   UNL     1      -2.051  -5.505  -1.094  0.00  0.00    -0.295 N 
ATOM     10  H   UNL     1      -1.942  -6.199  -1.762  0.00  0.00    +0.151 HD
ENDROOT
BRANCH   1  14
ATOM     11  C   UNL     1      -0.949   1.294   0.155  0.00  0.00    +0.047 C 
ATOM     12  C   UNL     1      -0.425  -0.117   0.079  0.00  0.00    -0.015 A 
ATOM     13  C   UNL     1      -0.432  -0.793  -1.126  0.00  0.00    +0.011 A 
ATOM     14  C   UNL     1       0.049  -2.087  -1.196  0.00  0.00    -0.027 A 
ATOM     15  C   UNL     1       0.537  -2.707  -0.060  0.00  0.00    +0.008 A 
ATOM     16  C   UNL     1       0.545  -2.032   1.146  0.00  0.00    +0.039 A 
ATOM     17  C   UNL     1       0.069  -0.734   1.216  0.00  0.00    +0.126 A 
ATOM     18  F   UNL     1       0.081  -0.072   2.394  0.00  0.00    -0.205 F 
ENDBRANCH   1  14
BRANCH   4  19
ATOM     19  C   UNL     1       0.688  -6.214  -5.116  0.00  0.00    +0.218 C 
ATOM     20  O   UNL     1       1.248  -5.834  -6.123  0.00  0.00    -0.275 OA
ATOM     21  N   UNL     1       0.070  -7.412  -5.099  0.00  0.00    -0.311 N 
ATOM     22  H   UNL     1      -0.377  -7.716  -4.294  0.00  0.00    +0.149 HD
BRANCH  21  23
ATOM     23  C   UNL     1       0.074  -8.254  -6.298  0.00  0.00    +0.139 C 
BRANCH  23  24
ATOM     24  C   UNL     1      -0.679  -9.529  -6.017  0.00  0.00    -0.027 A 
ATOM     25  C   UNL     1      -0.010 -10.630  -5.516  0.00  0.00    +0.009 A 
ATOM     26  C   UNL     1      -0.696 -11.801  -5.256  0.00  0.00    +0.050 A 
ATOM     27  C   UNL     1      -2.058 -11.875  -5.500  0.00  0.00    +0.166 A 
ATOM     28  C   UNL     1      -2.733 -10.767  -6.005  0.00  0.00    +0.167 A 
ATOM     29  C   UNL     1      -2.039  -9.594  -6.257  0.00  0.00    +0.054 A 
ATOM     30  O   UNL     1      -4.051 -11.089  -6.156  0.00  0.00    -0.453 OA
ATOM     31  C   UNL     1      -4.100 -12.528  -6.125  0.00  0.00    +0.466 C 
ATOM     32  O   UNL     1      -2.954 -12.892  -5.334  0.00  0.00    -0.453 OA
ENDBRANCH  23  24
ENDBRANCH  21  23
ENDBRANCH   4  19
BRANCH   9  33
ATOM     33  C   UNL     1      -2.890  -5.745   0.083  0.00  0.00    +0.141 C 
BRANCH  33  34
ATOM     34  C   UNL     1      -3.462  -7.138   0.016  0.00  0.00    -0.030 A 
ATOM     35  C   UNL     1      -4.674  -7.357  -0.612  0.00  0.00    +0.005 A 
ATOM     36  C   UNL     1      -5.199  -8.634  -0.674  0.00  0.00    +0.000 A 
ATOM     37  C   UNL     1      -4.513  -9.692  -0.108  0.00  0.00    +0.000 A 
ATOM     38  C   UNL     1      -3.300  -9.473   0.519  0.00  0.00    +0.000 A 
ATOM     39  C   UNL     1      -2.773  -8.196   0.577  0.00  0.00    +0.005 A 
ENDBRANCH  33  34
ENDBRANCH   9  33
TORSDOF 6
