REMARK  Name = ZINC28368296
REMARK  5 active torsions:
REMARK  status: ('A' for Active; 'I' for Inactive)
REMARK    1  A    between atoms: C_1  and  C_2
REMARK    2  A    between atoms: C_2  and  C_4
REMARK    3  A    between atoms: C_2  and  N_15
REMARK    4  A    between atoms: N_6  and  C_7
REMARK    5  A    between atoms: N_15  and  C_16
REMARK                            x       y       z     vdW  Elec       q    Type
REMARK                         _______ _______ _______ _____ _____    ______ ____
ROOT
ATOM      1  N   UNL     1      -8.058   3.188   2.281  0.00  0.00    -0.333 N 
ATOM      2  H   UNL     1      -8.655   2.264   2.278  0.00  0.00    +0.147 HD
ENDROOT
BRANCH   1   3
ATOM      3  C   UNL     1      -6.766   3.189   1.744  0.00  0.00    +0.031 A 
ATOM      4  C   UNL     1      -6.012   4.355   1.749  0.00  0.00    +0.027 A 
ATOM      5  C   UNL     1      -4.736   4.357   1.219  0.00  0.00    +0.051 A 
ATOM      6  C   UNL     1      -4.204   3.196   0.682  0.00  0.00    +0.167 A 
ATOM      7  C   UNL     1      -4.957   2.024   0.677  0.00  0.00    +0.169 A 
ATOM      8  C   UNL     1      -6.237   2.023   1.208  0.00  0.00    +0.072 A 
ATOM      9  O   UNL     1      -4.219   1.032   0.098  0.00  0.00    -0.447 OA
ATOM     10  C   UNL     1      -2.866   1.510   0.101  0.00  0.00    +0.254 C 
ATOM     11  O   UNL     1      -2.991   2.939   0.106  0.00  0.00    -0.448 OA
ATOM     12  C   UNL     1      -2.139   1.045  -1.156  0.00  0.00    +0.093 C 
ATOM     13  C   UNL     1      -0.707   1.585  -1.150  0.00  0.00    +0.008 C 
ATOM     14  C   UNL     1       0.022   1.079   0.096  0.00  0.00    +0.000 C 
ATOM     15  C   UNL     1      -0.704   1.573   1.348  0.00  0.00    +0.008 C 
ATOM     16  C   UNL     1      -2.136   1.034   1.353  0.00  0.00    +0.093 C 
ENDBRANCH   1   3
BRANCH   1  18
ATOM     17  C   UNL     1      -9.239   5.258   1.730  0.00  0.00    +0.038 C 
ATOM     18  C   UNL     1      -8.617   4.419   2.848  0.00  0.00    +0.154 C 
BRANCH  18  19
ATOM     19  C   UNL     1      -9.674   4.069   3.862  0.00  0.00    +0.237 C 
ATOM     20  O   UNL     1      -9.936   2.907   4.090  0.00  0.00    -0.273 OA
ATOM     21  N   UNL     1     -10.329   5.049   4.517  0.00  0.00    -0.282 N 
ATOM     22  H   UNL     1     -10.042   6.099   4.365  0.00  0.00    +0.155 HD
BRANCH  21  23
ATOM     23  C   UNL     1     -11.377   4.728   5.391  0.00  0.00    +0.069 A 
ATOM     24  C   UNL     1     -11.323   3.562   6.142  0.00  0.00    +0.029 A 
ATOM     25  C   UNL     1     -12.356   3.248   7.004  0.00  0.00    +0.040 A 
ATOM     26  C   UNL     1     -13.445   4.095   7.120  0.00  0.00    +0.126 A 
ATOM     27  C   UNL     1     -13.503   5.259   6.372  0.00  0.00    +0.078 A 
ATOM     28  C   UNL     1     -12.469   5.580   5.512  0.00  0.00    +0.147 A 
ATOM     29  F   UNL     1     -12.522   6.718   4.787  0.00  0.00    -0.203 F 
ATOM     30  F   UNL     1     -14.454   3.784   7.963  0.00  0.00    -0.205 F 
ENDBRANCH  21  23
ENDBRANCH  18  19
ENDBRANCH   1  18
TORSDOF 4
