REMARK  Name = ZINC08739042
REMARK  6 active torsions:
REMARK  status: ('A' for Active; 'I' for Inactive)
REMARK    1  A    between atoms: C_1  and  C_2
REMARK    2  A    between atoms: C_5  and  C_21
REMARK    3  A    between atoms: C_7  and  N_8
REMARK    4  A    between atoms: N_8  and  C_9
REMARK    5  A    between atoms: C_9  and  N_11
REMARK    6  A    between atoms: C_12  and  C_14
REMARK                            x       y       z     vdW  Elec       q    Type
REMARK                         _______ _______ _______ _____ _____    ______ ____
ROOT
ATOM      1  C   UNL     1      -4.617  -3.328  -0.518  0.00  0.00    +0.045 C 
ATOM      2  C   UNL     1      -3.414  -2.467  -0.229  0.00  0.00    -0.029 A 
ATOM      3  C   UNL     1      -3.542  -1.090  -0.209  0.00  0.00    +0.006 A 
ATOM      4  C   UNL     1      -2.447  -0.295   0.060  0.00  0.00    +0.013 A 
ATOM      5  C   UNL     1      -1.202  -0.880   0.302  0.00  0.00    +0.039 A 
ATOM      6  C   UNL     1      -1.074  -2.268   0.283  0.00  0.00    +0.036 A 
ATOM      7  C   UNL     1      -2.181  -3.059   0.017  0.00  0.00    +0.036 A 
ENDROOT
BRANCH   5   8
ATOM      8  C   UNL     1      -0.026  -0.030   0.585  0.00  0.00    +0.230 A 
ATOM      9  N   UNL     1       1.181  -0.476   0.830  0.00  0.00    -0.189 NA
ATOM     10  C   UNL     1       2.004   0.581   1.043  0.00  0.00    +0.199 A 
ATOM     11  C   UNL     1       1.212   1.736   0.912  0.00  0.00    +0.174 A 
ATOM     12  O   UNL     1      -0.039   1.315   0.628  0.00  0.00    -0.434 OA
ATOM     13  C   UNL     1       1.797   2.982   1.080  0.00  0.00    +0.051 A 
ATOM     14  C   UNL     1       3.150   3.038   1.373  0.00  0.00    +0.023 A 
ATOM     15  C   UNL     1       3.872   1.862   1.488  0.00  0.00    +0.113 A 
ATOM     16  N   UNL     1       3.299   0.689   1.325  0.00  0.00    -0.233 NA
ENDBRANCH   5   8
BRANCH   7  17
ATOM     17  N   UNL     1      -2.058  -4.452  -0.004  0.00  0.00    -0.296 N 
ATOM     18  H   UNL     1      -2.698  -5.003   0.472  0.00  0.00    +0.154 HD
BRANCH  17  19
ATOM     19  C   UNL     1      -1.048  -5.029  -0.686  0.00  0.00    +0.141 C 
ATOM     20  S   UNL     1       0.145  -4.056  -1.434  0.00  0.00    -0.018 S 
BRANCH  19  21
ATOM     21  N   UNL     1      -0.978  -6.371  -0.779  0.00  0.00    -0.264 N 
ATOM     22  C   UNL     1       0.031  -6.948  -1.461  0.00  0.00    +0.250 C 
ATOM     23  O   UNL     1       0.878  -6.257  -1.992  0.00  0.00    -0.270 OA
ATOM     24  H   UNL     1      -1.655  -6.923  -0.355  0.00  0.00    +0.157 HD
BRANCH  22  25
ATOM     25  C   UNL     1       0.108  -8.420  -1.563  0.00  0.00    +0.038 A 
ATOM     26  C   UNL     1      -0.861  -9.217  -0.949  0.00  0.00    +0.013 A 
ATOM     27  C   UNL     1      -0.787 -10.590  -1.052  0.00  0.00    +0.002 A 
ATOM     28  C   UNL     1       0.251 -11.180  -1.753  0.00  0.00    +0.014 A 
ATOM     29  C   UNL     1       1.217 -10.396  -2.360  0.00  0.00    +0.014 A 
ATOM     30  C   UNL     1       1.152  -9.021  -2.268  0.00  0.00    +0.027 A 
ATOM     31  I   UNL     1       2.784 -11.300  -3.417  0.00  0.00    -0.044 I 
ENDBRANCH  22  25
ENDBRANCH  19  21
ENDBRANCH  17  19
ENDBRANCH   7  17
TORSDOF 5
