REMARK  Name = ZINC40406375
REMARK  7 active torsions:
REMARK  status: ('A' for Active; 'I' for Inactive)
REMARK    1  A    between atoms: C_4  and  C_7
REMARK    2  A    between atoms: C_7  and  N_8
REMARK    3  A    between atoms: C_9  and  C_32
REMARK    4  A    between atoms: C_11  and  C_16
REMARK    5  A    between atoms: C_20  and  N_22
REMARK    6  A    between atoms: C_23  and  C_25
REMARK    7  A    between atoms: N_34  and  C_35
REMARK                            x       y       z     vdW  Elec       q    Type
REMARK                         _______ _______ _______ _____ _____    ______ ____
ROOT
ATOM      1  N   UNL     1       3.577  -0.159   1.683  0.00  0.00    -0.248 N 
ATOM      2  C   UNL     1       4.791   0.622   1.992  0.00  0.00    +0.211 C 
ATOM      3  C   UNL     1       4.846   0.542   3.537  0.00  0.00    +0.238 C 
ATOM      4  O   UNL     1       4.104  -0.664   3.801  0.00  0.00    -0.440 OA
ATOM      5  C   UNL     1       3.240  -0.849   2.789  0.00  0.00    +0.405 C 
ATOM      6  O   UNL     1       2.261  -1.565   2.862  0.00  0.00    -0.226 OA
ENDROOT
BRANCH   3   7
ATOM      7  C   UNL     1       6.269   0.416   4.018  0.00  0.00    -0.003 A 
ATOM      8  C   UNL     1       6.905  -0.812   3.978  0.00  0.00    +0.007 A 
ATOM      9  C   UNL     1       8.210  -0.932   4.419  0.00  0.00    +0.002 A 
ATOM     10  C   UNL     1       8.883   0.174   4.900  0.00  0.00    +0.023 A 
ATOM     11  C   UNL     1       8.247   1.408   4.941  0.00  0.00    +0.034 A 
ATOM     12  C   UNL     1       6.938   1.527   4.492  0.00  0.00    +0.030 A 
BRANCH  11  13
ATOM     13  N   UNL     1       8.925   2.530   5.428  0.00  0.00    -0.281 N 
ATOM     14  C   UNL     1      10.254   2.650   5.238  0.00  0.00    +0.248 C 
ATOM     15  O   UNL     1      10.848   1.831   4.563  0.00  0.00    -0.270 OA
ATOM     16  H   UNL     1       8.439   3.222   5.903  0.00  0.00    +0.155 HD
BRANCH  14  17
ATOM     17  C   UNL     1      10.989   3.776   5.848  0.00  0.00    +0.037 A 
ATOM     18  C   UNL     1      10.311   4.715   6.628  0.00  0.00    +0.016 A 
ATOM     19  C   UNL     1      11.002   5.763   7.197  0.00  0.00    +0.039 A 
ATOM     20  C   UNL     1      12.368   5.887   6.994  0.00  0.00    +0.123 A 
ATOM     21  C   UNL     1      13.046   4.957   6.221  0.00  0.00    +0.039 A 
ATOM     22  C   UNL     1      12.366   3.902   5.653  0.00  0.00    +0.016 A 
ATOM     23  F   UNL     1      13.040   6.917   7.553  0.00  0.00    -0.205 F 
ENDBRANCH  14  17
ENDBRANCH  11  13
ENDBRANCH   3   7
BRANCH   2  24
ATOM     24  C   UNL     1       6.009  -0.013   1.374  0.00  0.00    +0.242 C 
ATOM     25  O   UNL     1       5.977  -1.173   1.022  0.00  0.00    -0.273 OA
ATOM     26  N   UNL     1       7.136   0.709   1.211  0.00  0.00    -0.284 N 
ATOM     27  H   UNL     1       7.187   1.613   1.559  0.00  0.00    +0.155 HD
BRANCH  26  28
ATOM     28  C   UNL     1       8.231   0.155   0.540  0.00  0.00    +0.033 A 
ATOM     29  C   UNL     1       8.029  -0.742  -0.501  0.00  0.00    +0.023 A 
ATOM     30  C   UNL     1       9.112  -1.288  -1.161  0.00  0.00    +0.002 A 
ATOM     31  C   UNL     1      10.398  -0.942  -0.787  0.00  0.00    +0.000 A 
ATOM     32  C   UNL     1      10.603  -0.050   0.249  0.00  0.00    +0.002 A 
ATOM     33  C   UNL     1       9.524   0.504   0.910  0.00  0.00    +0.023 A 
ENDBRANCH  26  28
ENDBRANCH   2  24
BRANCH   1  34
ATOM     34  C   UNL     1       2.863  -0.176   0.404  0.00  0.00    +0.147 C 
BRANCH  34  38
ATOM     35  C   UNL     1      -0.110   2.891   0.390  0.00  0.00    +0.000 A 
ATOM     36  C   UNL     1       1.167   3.165  -0.061  0.00  0.00    +0.000 A 
ATOM     37  C   UNL     1       2.130   2.173  -0.057  0.00  0.00    +0.005 A 
ATOM     38  C   UNL     1       1.814   0.906   0.399  0.00  0.00    -0.030 A 
ATOM     39  C   UNL     1       0.537   0.633   0.851  0.00  0.00    +0.005 A 
ATOM     40  C   UNL     1      -0.426   1.625   0.845  0.00  0.00    +0.000 A 
ENDBRANCH  34  38
ENDBRANCH   1  34
TORSDOF 7
