REMARK  Name = ZINC12487491
REMARK  6 active torsions:
REMARK  status: ('A' for Active; 'I' for Inactive)
REMARK    1  A    between atoms: C_3  and  N_21
REMARK    2  A    between atoms: C_6  and  C_7
REMARK    3  A    between atoms: N_9  and  N_10
REMARK    4  A    between atoms: C_11  and  C_12
REMARK    5  A    between atoms: C_17  and  O_18
REMARK    6  A    between atoms: C_22  and  C_24
REMARK                            x       y       z     vdW  Elec       q    Type
REMARK                         _______ _______ _______ _____ _____    ______ ____
ROOT
ATOM      1  C   UNL     1      -0.014   1.380  -0.001  0.00  0.00    +0.015 A 
ATOM      2  C   UNL     1       1.167   2.088  -0.001  0.00  0.00    +0.024 A 
ATOM      3  C   UNL     1       2.384   1.413  -0.021  0.00  0.00    +0.033 A 
ATOM      4  C   UNL     1       2.411   0.022  -0.040  0.00  0.00    +0.024 A 
ATOM      5  C   UNL     1       1.234  -0.692  -0.040  0.00  0.00    +0.015 A 
ATOM      6  C   UNL     1       0.010  -0.017  -0.020  0.00  0.00    +0.038 A 
ENDROOT
BRANCH   6   7
ATOM      7  C   UNL     1      -1.254  -0.778  -0.019  0.00  0.00    +0.263 C 
ATOM      8  O   UNL     1      -2.318  -0.190  -0.002  0.00  0.00    -0.268 OA
ATOM      9  N   UNL     1      -1.229  -2.126  -0.037  0.00  0.00    -0.203 N 
ATOM     10  H   UNL     1      -0.380  -2.595  -0.051  0.00  0.00    +0.178 HD
BRANCH   9  11
ATOM     11  N   UNL     1      -2.429  -2.849  -0.037  0.00  0.00    -0.187 NA
ATOM     12  C   UNL     1      -2.405  -4.146  -0.054  0.00  0.00    +0.142 C 
BRANCH  12  13
ATOM     13  C   UNL     1      -3.668  -4.907  -0.054  0.00  0.00    +0.039 A 
ATOM     14  C   UNL     1      -3.646  -6.304  -0.067  0.00  0.00    +0.033 A 
ATOM     15  C   UNL     1      -4.832  -7.010  -0.065  0.00  0.00    +0.043 A 
ATOM     16  C   UNL     1      -6.044  -6.340  -0.052  0.00  0.00    +0.043 A 
ATOM     17  C   UNL     1      -6.078  -4.957  -0.039  0.00  0.00    +0.084 A 
ATOM     18  C   UNL     1      -4.896  -4.233  -0.034  0.00  0.00    +0.144 A 
ATOM     19 CL   UNL     1      -7.603  -4.128  -0.023  0.00  0.00    -0.080 Cl
ATOM     20 CL   UNL     1      -4.804  -8.746  -0.082  0.00  0.00    -0.083 Cl
BRANCH  18  21
ATOM     21  O   UNL     1      -4.928  -2.875  -0.016  0.00  0.00    -0.505 OA
ATOM     22  H   UNL     1      -4.945  -2.470  -0.894  0.00  0.00    +0.292 HD
ENDBRANCH  18  21
ENDBRANCH  12  13
ENDBRANCH   9  11
ENDBRANCH   6   7
BRANCH   3  23
ATOM     23  N   UNL     1       3.578   2.132  -0.022  0.00  0.00    -0.285 N 
ATOM     24  C   UNL     1       4.654   1.654   0.634  0.00  0.00    +0.220 C 
ATOM     25  O   UNL     1       4.609   0.560   1.155  0.00  0.00    -0.275 OA
ATOM     26  H   UNL     1       3.635   2.977  -0.495  0.00  0.00    +0.155 HD
BRANCH  24  27
ATOM     27  C   UNL     1       5.912   2.478   0.720  0.00  0.00    +0.075 C 
ATOM     28  C   UNL     1       6.435   2.760  -0.690  0.00  0.00    +0.013 C 
ATOM     29  C   UNL     1       7.713   3.597  -0.603  0.00  0.00    +0.001 C 
ATOM     30  C   UNL     1       8.772   2.829   0.190  0.00  0.00    +0.000 C 
ATOM     31  C   UNL     1       8.250   2.547   1.600  0.00  0.00    +0.001 C 
ATOM     32  C   UNL     1       6.972   1.710   1.513  0.00  0.00    +0.013 C 
ENDBRANCH  24  27
ENDBRANCH   3  23
TORSDOF 6
