REMARK  Name = ZINC15023230
REMARK  9 active torsions:
REMARK  status: ('A' for Active; 'I' for Inactive)
REMARK    1  A    between atoms: C_1  and  O_2
REMARK    2  A    between atoms: O_2  and  C_3
REMARK    3  A    between atoms: C_6  and  C_11
REMARK    4  A    between atoms: C_8  and  O_9
REMARK    5  A    between atoms: O_9  and  C_10
REMARK    6  A    between atoms: C_13  and  C_33
REMARK    7  A    between atoms: C_26  and  C_27
REMARK    8  A    between atoms: C_26  and  C_29
REMARK    9  A    between atoms: C_33  and  C_35
REMARK                            x       y       z     vdW  Elec       q    Type
REMARK                         _______ _______ _______ _____ _____    ______ ____
ROOT
ATOM      1  C   UNL     1      -2.558   1.253   0.336  0.00  0.00    +0.078 C 
ATOM      2  C   UNL     1      -2.511   0.741  -1.126  0.00  0.00    +0.155 C 
ATOM      3  N   UNL     1      -2.381  -0.710  -1.035  0.00  0.00    -0.310 N 
ATOM      4  C   UNL     1      -2.824  -1.500  -2.068  0.00  0.00    +0.038 A 
ATOM      5  C   UNL     1      -3.135  -1.017  -3.324  0.00  0.00    +0.026 A 
ATOM      6  C   UNL     1      -3.582  -1.882  -4.306  0.00  0.00    +0.040 A 
ATOM      7  C   UNL     1      -3.723  -3.236  -4.040  0.00  0.00    +0.124 A 
ATOM      8  C   UNL     1      -3.414  -3.737  -2.788  0.00  0.00    +0.048 A 
ATOM      9  C   UNL     1      -2.961  -2.879  -1.795  0.00  0.00    -0.001 A 
ATOM     10  C   UNL     1      -2.603  -3.372  -0.445  0.00  0.00    +0.007 C 
ATOM     11  C   UNL     1      -2.649  -2.495   0.573  0.00  0.00    -0.002 C 
ATOM     12  C   UNL     1      -3.061  -1.094   0.229  0.00  0.00    +0.127 C 
ATOM     13  C   UNL     1      -2.543  -0.031   1.212  0.00  0.00    +0.163 C 
ATOM     14  F   UNL     1      -4.163  -4.069  -5.008  0.00  0.00    -0.205 F 
ENDROOT
BRANCH   1  18
ATOM     15  C   UNL     1       0.876   3.662   1.169  0.00  0.00    +0.161 A 
ATOM     16  C   UNL     1       1.032   2.364   0.711  0.00  0.00    +0.049 A 
ATOM     17  C   UNL     1      -0.080   1.586   0.446  0.00  0.00    +0.008 A 
ATOM     18  C   UNL     1      -1.349   2.103   0.632  0.00  0.00    -0.036 A 
ATOM     19  C   UNL     1      -1.511   3.396   1.094  0.00  0.00    +0.053 A 
ATOM     20  C   UNL     1      -0.401   4.180   1.361  0.00  0.00    +0.162 A 
BRANCH  15  22
ATOM     21  C   UNL     1       3.248   3.830   1.210  0.00  0.00    +0.277 C 
ATOM     22  O   UNL     1       1.969   4.428   1.430  0.00  0.00    -0.491 OA
ENDBRANCH  15  22
BRANCH  20  23
ATOM     23  O   UNL     1      -0.559   5.454   1.811  0.00  0.00    -0.491 OA
ATOM     24  C   UNL     1      -1.899   5.919   1.985  0.00  0.00    +0.277 C 
ENDBRANCH  20  23
ENDBRANCH   1  18
BRANCH  13  25
ATOM     25  C   UNL     1      -1.144  -0.355   1.668  0.00  0.00    +0.233 C 
ATOM     26  O   UNL     1      -0.512  -1.229   1.112  0.00  0.00    -0.274 OA
ATOM     27  N   UNL     1      -0.595   0.325   2.693  0.00  0.00    -0.328 N 
ATOM     28  H   UNL     1      -1.123   0.976   3.182  0.00  0.00    +0.145 HD
ATOM     29  H   UNL     1       0.329   0.165   2.943  0.00  0.00    +0.145 HD
ENDBRANCH  13  25
BRANCH  13  30
ATOM     30  C   UNL     1      -3.450   0.108   2.363  0.00  0.00    +0.082 C 
ATOM     31  N   UNL     1      -4.151   0.215   3.251  0.00  0.00    -0.195 NA
ENDBRANCH  13  30
BRANCH   2  32
ATOM     32  C   UNL     1      -1.322   1.325  -1.844  0.00  0.00    +0.184 C 
ATOM     33  O   UNL     1      -0.348   0.638  -2.064  0.00  0.00    -0.290 OA
BRANCH  32  34
ATOM     34  C   UNL     1      -1.343   2.732  -2.278  0.00  0.00    +0.019 A 
ATOM     35  C   UNL     1      -2.467   3.526  -2.032  0.00  0.00    +0.011 A 
ATOM     36  C   UNL     1      -2.478   4.844  -2.438  0.00  0.00    +0.001 A 
ATOM     37  C   UNL     1      -1.384   5.378  -3.097  0.00  0.00    +0.000 A 
ATOM     38  C   UNL     1      -0.270   4.596  -3.349  0.00  0.00    +0.001 A 
ATOM     39  C   UNL     1      -0.242   3.278  -2.945  0.00  0.00    +0.011 A 
ENDBRANCH  32  34
ENDBRANCH   2  32
TORSDOF 7
