REMARK  Name = ZINC33006930
REMARK  10 active torsions:
REMARK  status: ('A' for Active; 'I' for Inactive)
REMARK    1  A    between atoms: C_1  and  C_2
REMARK    2  A    between atoms: C_2  and  C_3
REMARK    3  A    between atoms: C_2  and  N_4
REMARK    4  A    between atoms: C_5  and  C_7
REMARK    5  A    between atoms: C_7  and  N_8
REMARK    6  A    between atoms: N_11  and  C_14
REMARK    7  A    between atoms: C_17  and  N_23
REMARK    8  A    between atoms: C_18  and  C_20
REMARK    9  A    between atoms: N_23  and  S_24
REMARK   10  A    between atoms: S_24  and  C_27
REMARK                            x       y       z     vdW  Elec       q    Type
REMARK                         _______ _______ _______ _____ _____    ______ ____
ROOT
ATOM      1  C   UNL     1      -6.806  -0.857  -5.762  0.00  0.00    +0.031 A 
ATOM      2  C   UNL     1      -6.668   0.399  -6.346  0.00  0.00    +0.025 A 
ATOM      3  C   UNL     1      -7.745   1.008  -6.955  0.00  0.00    +0.027 A 
ATOM      4  C   UNL     1      -8.980   0.371  -6.988  0.00  0.00    +0.062 A 
ATOM      5  C   UNL     1      -9.127  -0.896  -6.401  0.00  0.00    +0.087 A 
ATOM      6  C   UNL     1      -8.026  -1.508  -5.791  0.00  0.00    +0.040 A 
ENDROOT
BRANCH   1  10
ATOM      7  N   UNL     1      -3.849  -2.096  -3.167  0.00  0.00    -0.291 NA
ATOM      8  C   UNL     1      -3.806  -0.766  -3.788  0.00  0.00    +0.104 C 
ATOM      9  C   UNL     1      -4.371  -0.852  -5.210  0.00  0.00    +0.120 C 
ATOM     10  N   UNL     1      -5.706  -1.466  -5.147  0.00  0.00    -0.327 N 
ATOM     11  C   UNL     1      -5.854  -2.736  -4.420  0.00  0.00    +0.120 C 
ATOM     12  C   UNL     1      -5.231  -2.575  -3.029  0.00  0.00    +0.104 C 
BRANCH   7  13
ATOM     13  C   UNL     1      -3.160  -2.093  -1.869  0.00  0.00    +0.180 C 
BRANCH  13  15
ATOM     14  N   UNL     1      -0.856  -1.788  -1.024  0.00  0.00    -0.312 N 
ATOM     15  C   UNL     1      -1.691  -1.835  -2.081  0.00  0.00    +0.227 C 
ATOM     16  O   UNL     1      -1.259  -1.670  -3.202  0.00  0.00    -0.274 OA
ATOM     17  H   UNL     1      -1.201  -1.920  -0.127  0.00  0.00    +0.149 HD
BRANCH  14  19
ATOM     18  C   UNL     1       0.820  -0.030  -1.306  0.00  0.00    +0.027 C 
ATOM     19  C   UNL     1       0.573  -1.538  -1.229  0.00  0.00    +0.067 C 
ATOM     20  C   UNL     1       1.367  -2.126  -0.062  0.00  0.00    +0.027 C 
ENDBRANCH  14  19
ENDBRANCH  13  15
ENDBRANCH   7  13
ENDBRANCH   1  10
BRANCH   5  21
ATOM     21  C   UNL     1     -10.429  -1.579  -6.431  0.00  0.00    +0.388 C 
ATOM     22  O   UNL     1     -10.554  -2.683  -5.918  0.00  0.00    -0.241 OA
ATOM     23  O   UNL     1     -11.389  -1.042  -6.970  0.00  0.00    -0.241 OA
ENDBRANCH   5  21
BRANCH   4  24
ATOM     24  N   UNL     1     -10.065   0.986  -7.601  0.00  0.00    -0.215 N 
ATOM     25  H   UNL     1     -10.956   0.875  -7.234  0.00  0.00    +0.174 HD
BRANCH  24  26
ATOM     26  S   UNL     1      -9.837   1.908  -8.958  0.00  0.00    +0.072 S 
ATOM     27  O   UNL     1     -11.129   2.281  -9.417  0.00  0.00    -0.150 OA
ATOM     28  O   UNL     1      -8.837   2.864  -8.636  0.00  0.00    -0.150 OA
BRANCH  26  29
ATOM     29  C   UNL     1      -9.149   0.856 -10.193  0.00  0.00    +0.109 A 
ATOM     30  C   UNL     1      -7.777   0.719 -10.298  0.00  0.00    +0.030 A 
ATOM     31  C   UNL     1      -7.237  -0.105 -11.266  0.00  0.00    +0.022 A 
ATOM     32  C   UNL     1      -8.069  -0.794 -12.130  0.00  0.00    +0.041 A 
ATOM     33  C   UNL     1      -9.442  -0.657 -12.025  0.00  0.00    +0.022 A 
ATOM     34  C   UNL     1      -9.981   0.164 -11.052  0.00  0.00    +0.030 A 
ATOM     35 CL   UNL     1      -7.391  -1.830 -13.348  0.00  0.00    -0.084 Cl
ENDBRANCH  26  29
ENDBRANCH  24  26
ENDBRANCH   4  24
TORSDOF 8
