REMARK  Name = ZINC35303103
REMARK  6 active torsions:
REMARK  status: ('A' for Active; 'I' for Inactive)
REMARK    1  A    between atoms: C_4  and  C_7
REMARK    2  A    between atoms: C_7  and  C_8
REMARK    3  A    between atoms: C_8  and  C_10
REMARK    4  A    between atoms: C_8  and  N_27
REMARK    5  A    between atoms: C_16  and  C_18
REMARK    6  A    between atoms: N_30  and  C_31
REMARK                            x       y       z     vdW  Elec       q    Type
REMARK                         _______ _______ _______ _____ _____    ______ ____
ROOT
ATOM      1  C   UNL     1       3.979  -0.986   1.112  0.00  0.00    +0.165 C 
ENDROOT
BRANCH   1   2
ATOM      2  C   UNL     1       5.392  -1.510   1.094  0.00  0.00    +0.239 C 
ATOM      3  O   UNL     1       5.671  -2.524   1.698  0.00  0.00    -0.273 OA
ATOM      4  N   UNL     1       6.346  -0.851   0.406  0.00  0.00    -0.262 N 
ATOM      5  C   UNL     1       7.649  -1.334   0.390  0.00  0.00    +0.188 A 
ATOM      6  N   UNL     1       8.167  -2.411   0.966  0.00  0.00    -0.125 NA
ATOM      7  N   UNL     1       9.387  -2.709   0.849  0.00  0.00    -0.140 NA
ATOM      8  C   UNL     1      10.226  -1.963   0.140  0.00  0.00    +0.134 A 
ATOM      9  S   UNL     1       9.107  -0.684  -0.423  0.00  0.00    -0.030 S 
ATOM     10  H   UNL     1       6.123  -0.040  -0.077  0.00  0.00    +0.157 HD
BRANCH   8  11
ATOM     11  C   UNL     1      11.671  -2.140  -0.115  0.00  0.00    +0.013 A 
ATOM     12  C   UNL     1      12.362  -1.214  -0.897  0.00  0.00    +0.014 A 
ATOM     13  C   UNL     1      13.710  -1.381  -1.134  0.00  0.00    +0.050 A 
ATOM     14  C   UNL     1      14.384  -2.468  -0.597  0.00  0.00    +0.166 A 
ATOM     15  C   UNL     1      13.699  -3.398   0.184  0.00  0.00    +0.167 A 
ATOM     16  C   UNL     1      12.348  -3.232   0.430  0.00  0.00    +0.060 A 
ATOM     17  O   UNL     1      14.579  -4.361   0.587  0.00  0.00    -0.453 OA
ATOM     18  C   UNL     1      15.714  -4.236  -0.289  0.00  0.00    +0.466 C 
ATOM     19  O   UNL     1      15.692  -2.851  -0.682  0.00  0.00    -0.453 OA
ENDBRANCH   8  11
ENDBRANCH   1   2
BRANCH   1  20
ATOM     20  N   UNL     1       3.140  -1.873   1.922  0.00  0.00    -0.288 N 
ATOM     21  C   UNL     1       2.021  -1.397   2.503  0.00  0.00    +0.304 C 
ATOM     22  O   UNL     1       1.707  -0.232   2.354  0.00  0.00    -0.252 OA
ATOM     23  N   UNL     1       1.249  -2.213   3.248  0.00  0.00    -0.269 N 
ATOM     24  H   UNL     1       3.391  -2.803   2.041  0.00  0.00    +0.151 HD
ATOM     25  H   UNL     1       1.456  -3.159   3.304  0.00  0.00    +0.156 HD
BRANCH  23  26
ATOM     26  C   UNL     1       0.149  -1.695   3.941  0.00  0.00    +0.035 A 
ATOM     27  C   UNL     1      -0.988  -2.472   4.121  0.00  0.00    +0.023 A 
ATOM     28  C   UNL     1      -2.072  -1.958   4.806  0.00  0.00    +0.002 A 
ATOM     29  C   UNL     1      -2.025  -0.672   5.312  0.00  0.00    +0.000 A 
ATOM     30  C   UNL     1      -0.894   0.104   5.134  0.00  0.00    +0.002 A 
ATOM     31  C   UNL     1       0.195  -0.406   4.455  0.00  0.00    +0.023 A 
ENDBRANCH  23  26
ENDBRANCH   1  20
BRANCH   1  32
ATOM     32  C   UNL     1       3.436  -0.935  -0.317  0.00  0.00    +0.067 C 
BRANCH  32  36
ATOM     33  C   UNL     1      -0.435   0.871  -0.307  0.00  0.00    +0.000 A 
ATOM     34  C   UNL     1       0.693   1.655  -0.460  0.00  0.00    +0.000 A 
ATOM     35  C   UNL     1       1.946   1.071  -0.463  0.00  0.00    +0.004 A 
ATOM     36  C   UNL     1       2.070  -0.298  -0.313  0.00  0.00    -0.045 A 
ATOM     37  C   UNL     1       0.942  -1.082  -0.159  0.00  0.00    +0.004 A 
ATOM     38  C   UNL     1      -0.311  -0.498  -0.157  0.00  0.00    +0.000 A 
ENDBRANCH  32  36
ENDBRANCH   1  32
TORSDOF 6
