REMARK  Name = ZINC10556737
REMARK  7 active torsions:
REMARK  status: ('A' for Active; 'I' for Inactive)
REMARK    1  A    between atoms: C_1  and  C_2
REMARK    2  A    between atoms: C_2  and  C_3
REMARK    3  A    between atoms: C_2  and  C_4
REMARK    4  A    between atoms: C_10  and  C_12
REMARK    5  A    between atoms: C_15  and  N_18
REMARK    6  A    between atoms: N_18  and  S_19
REMARK    7  A    between atoms: S_19  and  C_22
REMARK                            x       y       z     vdW  Elec       q    Type
REMARK                         _______ _______ _______ _____ _____    ______ ____
ROOT
ATOM      1  C   UNL     1       2.450  -1.634   2.641  0.00  0.00    +0.037 A 
ATOM      2  C   UNL     1       1.255  -2.246   2.252  0.00  0.00    +0.015 A 
ATOM      3  C   UNL     1       0.459  -1.654   1.299  0.00  0.00    +0.025 A 
ATOM      4  C   UNL     1       0.843  -0.447   0.721  0.00  0.00    +0.048 A 
ATOM      5  C   UNL     1       2.035   0.162   1.102  0.00  0.00    +0.025 A 
ATOM      6  C   UNL     1       2.833  -0.422   2.059  0.00  0.00    +0.015 A 
ENDROOT
BRANCH   1  13
ATOM      7  C   UNL     1       7.055  -2.545   6.411  0.00  0.00    +0.053 A 
ATOM      8  C   UNL     1       6.507  -3.707   6.844  0.00  0.00    +0.072 A 
ATOM      9  S   UNL     1       5.015  -3.756   5.862  0.00  0.00    -0.060 S 
ATOM     10  C   UNL     1       5.263  -2.270   4.999  0.00  0.00    +0.165 A 
ATOM     11  N   UNL     1       6.416  -1.854   5.487  0.00  0.00    -0.229 NA
ATOM     12  N   UNL     1       4.457  -1.675   4.037  0.00  0.00    -0.261 N 
ATOM     13  C   UNL     1       3.305  -2.266   3.663  0.00  0.00    +0.250 C 
ATOM     14  O   UNL     1       2.971  -3.321   4.168  0.00  0.00    -0.270 OA
ATOM     15  H   UNL     1       4.724  -0.834   3.634  0.00  0.00    +0.157 HD
BRANCH   7  17
ATOM     16  C   UNL     1       8.116  -1.278   8.260  0.00  0.00    +0.014 C 
ATOM     17  C   UNL     1       8.368  -2.057   6.968  0.00  0.00    +0.032 C 
ATOM     18  C   UNL     1       9.274  -3.255   7.262  0.00  0.00    +0.014 C 
ENDBRANCH   7  17
ENDBRANCH   1  13
BRANCH   4  19
ATOM     19  N   UNL     1       0.037   0.148  -0.243  0.00  0.00    -0.216 N 
ATOM     20  H   UNL     1       0.292   0.113  -1.178  0.00  0.00    +0.174 HD
BRANCH  19  21
ATOM     21  S   UNL     1      -1.359   0.918   0.205  0.00  0.00    +0.072 S 
ATOM     22  O   UNL     1      -1.922   1.462  -0.981  0.00  0.00    -0.150 OA
ATOM     23  O   UNL     1      -2.070   0.015   1.042  0.00  0.00    -0.150 OA
BRANCH  21  24
ATOM     24  C   UNL     1      -0.898   2.285   1.217  0.00  0.00    +0.112 A 
ATOM     25  C   UNL     1      -0.903   2.156   2.594  0.00  0.00    +0.032 A 
ATOM     26  C   UNL     1      -0.538   3.223   3.394  0.00  0.00    +0.051 A 
ATOM     27  C   UNL     1      -0.176   4.426   2.812  0.00  0.00    +0.162 A 
ATOM     28  C   UNL     1      -0.176   4.557   1.430  0.00  0.00    +0.164 A 
ATOM     29  C   UNL     1      -0.537   3.485   0.632  0.00  0.00    +0.078 A 
ATOM     30  O   UNL     1       0.183   5.747   0.866  0.00  0.00    -0.488 OA
ATOM     31  C   UNL     1      -0.719   6.835   1.074  0.00  0.00    +0.232 C 
ATOM     32  C   UNL     1      -0.448   7.513   2.408  0.00  0.00    +0.082 C 
ATOM     33  C   UNL     1      -0.720   6.596   3.590  0.00  0.00    +0.232 C 
ATOM     34  O   UNL     1       0.182   5.488   3.590  0.00  0.00    -0.488 OA
ENDBRANCH  21  24
ENDBRANCH  19  21
ENDBRANCH   4  19
TORSDOF 5
