REMARK  Name = ZINC22921522
REMARK  7 active torsions:
REMARK  status: ('A' for Active; 'I' for Inactive)
REMARK    1  A    between atoms: C_6  and  C_7
REMARK    2  A    between atoms: C_7  and  C_8
REMARK    3  A    between atoms: C_7  and  N_15
REMARK    4  A    between atoms: N_18  and  C_21
REMARK    5  A    between atoms: C_21  and  C_22
REMARK    6  A    between atoms: N_24  and  C_25
REMARK    7  A    between atoms: C_26  and  C_34
REMARK                            x       y       z     vdW  Elec       q    Type
REMARK                         _______ _______ _______ _____ _____    ______ ____
ROOT
ATOM      1  N   UNL     1       1.363   1.656  -0.208  0.00  0.00    -0.295 NA
ATOM      2  C   UNL     1       2.117   1.034  -1.305  0.00  0.00    +0.067 C 
ATOM      3  C   UNL     1       3.530   1.621  -1.346  0.00  0.00    -0.063 C 
ATOM      4  N   UNL     1       4.193   1.387  -0.056  0.00  0.00    +0.387 N 
ATOM      5  C   UNL     1       3.439   2.009   1.041  0.00  0.00    -0.063 C 
ATOM      6  C   UNL     1       2.026   1.422   1.083  0.00  0.00    +0.067 C 
ATOM      7  H   UNL     1       4.218   0.302   0.122  0.00  0.00    -0.081 HD
ENDROOT
BRANCH   1   8
ATOM      8  C   UNL     1      -0.024   1.173  -0.182  0.00  0.00    +0.117 C 
BRANCH   8  14
ATOM      9  C   UNL     1      -0.426   2.615  -2.188  0.00  0.00    +0.008 A 
ATOM     10  C   UNL     1      -1.014   2.850  -3.416  0.00  0.00    +0.038 A 
ATOM     11  C   UNL     1      -1.856   1.901  -3.973  0.00  0.00    +0.123 A 
ATOM     12  C   UNL     1      -2.103   0.717  -3.300  0.00  0.00    +0.038 A 
ATOM     13  C   UNL     1      -1.510   0.482  -2.074  0.00  0.00    +0.008 A 
ATOM     14  C   UNL     1      -0.670   1.430  -1.520  0.00  0.00    -0.026 A 
ATOM     15  F   UNL     1      -2.435   2.132  -5.172  0.00  0.00    -0.205 F 
ENDBRANCH   8  14
BRANCH   8  16
ATOM     16  C   UNL     1      -0.789   1.900   0.893  0.00  0.00    -0.026 A 
ATOM     17  C   UNL     1      -0.581   3.252   1.096  0.00  0.00    +0.008 A 
ATOM     18  C   UNL     1      -1.285   3.921   2.079  0.00  0.00    +0.038 A 
ATOM     19  C   UNL     1      -2.193   3.234   2.867  0.00  0.00    +0.123 A 
ATOM     20  C   UNL     1      -2.398   1.880   2.667  0.00  0.00    +0.038 A 
ATOM     21  C   UNL     1      -1.696   1.214   1.680  0.00  0.00    +0.008 A 
ATOM     22  F   UNL     1      -2.880   3.886   3.831  0.00  0.00    -0.205 F 
ENDBRANCH   8  16
ENDBRANCH   1   8
BRANCH   4  23
ATOM     23  C   UNL     1       5.580   1.870  -0.081  0.00  0.00    +0.019 C 
BRANCH  23  24
ATOM     24  C   UNL     1       6.300   1.395   1.155  0.00  0.00    +0.201 C 
ATOM     25  O   UNL     1       5.753   0.628   1.918  0.00  0.00    -0.278 OA
ATOM     26  N   UNL     1       7.553   1.822   1.411  0.00  0.00    -0.281 N 
ATOM     27  H   UNL     1       8.049   2.518   0.719  0.00  0.00    +0.155 HD
BRANCH  26  28
ATOM     28  C   UNL     1       8.215   1.385   2.548  0.00  0.00    +0.084 A 
ATOM     29  C   UNL     1       9.495   1.705   2.977  0.00  0.00    +0.068 A 
ATOM     30  C   UNL     1       9.956   1.110   4.219  0.00  0.00    -0.023 A 
ATOM     31  C   UNL     1       9.073   0.286   4.825  0.00  0.00    -0.004 A 
ATOM     32  S   UNL     1       7.648   0.301   3.775  0.00  0.00    -0.077 S 
ATOM     33  C   UNL     1       9.271  -0.467   6.104  0.00  0.00    +0.043 C 
ATOM     34  C   UNL     1      10.770  -0.463   6.440  0.00  0.00    +0.005 C 
ATOM     35  C   UNL     1      11.303   0.966   6.300  0.00  0.00    +0.005 C 
ATOM     36  C   UNL     1      11.331   1.367   4.824  0.00  0.00    +0.037 C 
BRANCH  29  37
ATOM     37  C   UNL     1      10.350   2.614   2.206  0.00  0.00    +0.244 C 
ATOM     38  O   UNL     1      10.320   3.811   2.426  0.00  0.00    -0.270 OA
ATOM     39  N   UNL     1      11.169   2.124   1.254  0.00  0.00    -0.325 N 
ATOM     40  H   UNL     1      11.810   2.805   0.676  0.00  0.00    +0.145 HD
ATOM     41  H   UNL     1      11.196   1.042   1.056  0.00  0.00    +0.145 HD
ENDBRANCH  29  37
ENDBRANCH  26  28
ENDBRANCH  23  24
ENDBRANCH   4  23
TORSDOF 7
