REMARK  Name = ZINC17301968
REMARK  5 active torsions:
REMARK  status: ('A' for Active; 'I' for Inactive)
REMARK    1  A    between atoms: C_3  and  C_19
REMARK    2  A    between atoms: C_5  and  N_7
REMARK    3  A    between atoms: N_7  and  S_8
REMARK    4  A    between atoms: S_8  and  C_11
REMARK    5  A    between atoms: N_21  and  C_22
REMARK                            x       y       z     vdW  Elec       q    Type
REMARK                         _______ _______ _______ _____ _____    ______ ____
ROOT
ATOM      1  C   UNL     1       1.206  -0.684   0.011  0.00  0.00    +0.003 A 
ATOM      2  C   UNL     1       2.397   0.013  -0.005  0.00  0.00    +0.013 A 
ATOM      3  C   UNL     1       2.389   1.409  -0.007  0.00  0.00    +0.039 A 
ATOM      4  C   UNL     1       1.174   2.095   0.006  0.00  0.00    +0.037 A 
ATOM      5  C   UNL     1      -0.017   1.385   0.021  0.00  0.00    +0.049 A 
ATOM      6  C   UNL     1       0.003  -0.005   0.024  0.00  0.00    +0.024 A 
ENDROOT
BRANCH   3   7
ATOM      7  C   UNL     1       3.663   2.158  -0.025  0.00  0.00    +0.248 C 
ATOM      8  O   UNL     1       3.654   3.374  -0.027  0.00  0.00    -0.270 OA
ATOM      9  N   UNL     1       4.836   1.493  -0.038  0.00  0.00    -0.281 N 
ATOM     10  H   UNL     1       4.846   0.526   0.032  0.00  0.00    +0.155 HD
BRANCH   9  11
ATOM     11  C   UNL     1       6.040   2.199  -0.152  0.00  0.00    +0.037 A 
ATOM     12  C   UNL     1       7.102   1.650  -0.858  0.00  0.00    +0.027 A 
ATOM     13  C   UNL     1       8.289   2.347  -0.975  0.00  0.00    +0.051 A 
ATOM     14  C   UNL     1       8.426   3.592  -0.382  0.00  0.00    +0.166 A 
ATOM     15  C   UNL     1       7.364   4.143   0.331  0.00  0.00    +0.168 A 
ATOM     16  C   UNL     1       6.173   3.446   0.444  0.00  0.00    +0.072 A 
ATOM     17  O   UNL     1       7.747   5.362   0.812  0.00  0.00    -0.453 OA
ATOM     18  C   UNL     1       9.185   5.372   0.734  0.00  0.00    +0.466 C 
ATOM     19  O   UNL     1       9.475   4.467  -0.347  0.00  0.00    -0.453 OA
ENDBRANCH   9  11
ENDBRANCH   3   7
BRANCH   5  20
ATOM     20  N   UNL     1      -1.236   2.067   0.029  0.00  0.00    -0.216 N 
ATOM     21  H   UNL     1      -1.373   2.821  -0.565  0.00  0.00    +0.174 HD
BRANCH  20  22
ATOM     22  S   UNL     1      -2.446   1.588   1.052  0.00  0.00    +0.072 S 
ATOM     23  O   UNL     1      -3.531   2.482   0.845  0.00  0.00    -0.150 OA
ATOM     24  O   UNL     1      -2.578   0.182   0.896  0.00  0.00    -0.150 OA
BRANCH  22  25
ATOM     25  C   UNL     1      -1.877   1.861   2.697  0.00  0.00    +0.110 A 
ATOM     26  C   UNL     1      -1.199   0.860   3.369  0.00  0.00    +0.030 A 
ATOM     27  C   UNL     1      -0.747   1.074   4.657  0.00  0.00    +0.023 A 
ATOM     28  C   UNL     1      -0.981   2.287   5.279  0.00  0.00    +0.059 A 
ATOM     29  C   UNL     1      -1.664   3.288   4.609  0.00  0.00    +0.061 A 
ATOM     30  C   UNL     1      -2.111   3.073   3.317  0.00  0.00    +0.050 A 
ATOM     31 CL   UNL     1      -1.959   4.811   5.388  0.00  0.00    -0.082 Cl
ATOM     32 CL   UNL     1      -0.419   2.555   6.900  0.00  0.00    -0.082 Cl
ENDBRANCH  22  25
ENDBRANCH  20  22
ENDBRANCH   5  20
TORSDOF 5
