REMARK  Name = ZINC20371094
REMARK  11 active torsions:
REMARK  status: ('A' for Active; 'I' for Inactive)
REMARK    1  A    between atoms: C_1  and  C_2
REMARK    2  A    between atoms: N_4  and  C_5
REMARK    3  A    between atoms: C_8  and  N_11
REMARK    4  A    between atoms: C_13  and  C_18
REMARK    5  A    between atoms: N_20  and  C_21
REMARK    6  A    between atoms: C_23  and  O_38
REMARK    7  A    between atoms: C_24  and  N_29
REMARK    8  A    between atoms: C_26  and  O_27
REMARK    9  A    between atoms: O_27  and  C_28
REMARK   10  A    between atoms: C_30  and  C_32
REMARK   11  A    between atoms: O_38  and  C_39
REMARK                            x       y       z     vdW  Elec       q    Type
REMARK                         _______ _______ _______ _____ _____    ______ ____
ROOT
ATOM      1  C   UNL     1       1.108  -1.556   3.009  0.00  0.00    +0.222 C 
ATOM      2  O   UNL     1       2.169  -1.410   3.577  0.00  0.00    -0.275 OA
ATOM      3  N   UNL     1       0.048  -2.053   3.677  0.00  0.00    -0.282 N 
ATOM      4  H   UNL     1      -0.933  -2.117   3.183  0.00  0.00    +0.155 HD
ENDROOT
BRANCH   1   7
ATOM      5  N   UNL     1       2.034   0.941   1.219  0.00  0.00    -0.271 N 
ATOM      6  C   UNL     1       2.259  -0.498   1.039  0.00  0.00    +0.127 C 
ATOM      7  C   UNL     1       0.974  -1.183   1.555  0.00  0.00    +0.102 C 
ATOM      8  C   UNL     1      -0.078  -0.066   1.364  0.00  0.00    +0.110 C 
ATOM      9  C   UNL     1       0.730   1.213   1.398  0.00  0.00    +0.221 C 
ATOM     10  O   UNL     1       0.267   2.323   1.558  0.00  0.00    -0.275 OA
BRANCH   5  14
ATOM     11  C   UNL     1       5.053   3.817   1.181  0.00  0.00    +0.033 A 
ATOM     12  C   UNL     1       3.723   4.208   1.260  0.00  0.00    +0.025 A 
ATOM     13  C   UNL     1       2.724   3.256   1.273  0.00  0.00    +0.025 A 
ATOM     14  C   UNL     1       3.048   1.907   1.206  0.00  0.00    +0.036 A 
ATOM     15  C   UNL     1       4.379   1.516   1.132  0.00  0.00    +0.025 A 
ATOM     16  C   UNL     1       5.378   2.469   1.114  0.00  0.00    +0.025 A 
BRANCH  11  20
ATOM     17  C   UNL     1       8.327   5.557   0.524  0.00  0.00    +0.109 C 
ATOM     18  C   UNL     1       7.184   4.579   0.441  0.00  0.00    +0.214 C 
ATOM     19  O   UNL     1       7.268   3.607  -0.280  0.00  0.00    -0.276 OA
ATOM     20  N   UNL     1       6.068   4.783   1.168  0.00  0.00    -0.286 N 
ATOM     21  H   UNL     1       5.953   5.709   1.752  0.00  0.00    +0.155 HD
ENDBRANCH  11  20
ENDBRANCH   5  14
ENDBRANCH   1   7
BRANCH   3  22
ATOM     22  C   UNL     1       0.196  -2.487   5.002  0.00  0.00    +0.079 A 
ATOM     23  C   UNL     1       1.073  -1.831   5.854  0.00  0.00    +0.074 A 
ATOM     24  C   UNL     1       1.215  -2.256   7.164  0.00  0.00    +0.143 A 
ATOM     25  C   UNL     1       0.485  -3.351   7.624  0.00  0.00    +0.079 A 
ATOM     26  C   UNL     1      -0.388  -4.010   6.771  0.00  0.00    +0.074 A 
ATOM     27  C   UNL     1      -0.534  -3.581   5.462  0.00  0.00    +0.143 A 
BRANCH  25  28
ATOM     28  N   UNL     1       0.633  -3.785   8.948  0.00  0.00    -0.278 N 
ATOM     29  C   UNL     1       0.547  -5.098   9.240  0.00  0.00    +0.248 C 
ATOM     30  O   UNL     1       0.442  -5.914   8.346  0.00  0.00    -0.270 OA
ATOM     31  H   UNL     1       0.820  -3.054   9.749  0.00  0.00    +0.155 HD
BRANCH  29  32
ATOM     32  C   UNL     1       0.580  -5.545  10.649  0.00  0.00    +0.037 A 
ATOM     33  C   UNL     1       0.706  -4.611  11.678  0.00  0.00    +0.013 A 
ATOM     34  C   UNL     1       0.729  -5.035  12.991  0.00  0.00    +0.001 A 
ATOM     35  C   UNL     1       0.641  -6.383  13.288  0.00  0.00    +0.000 A 
ATOM     36  C   UNL     1       0.522  -7.315  12.272  0.00  0.00    +0.001 A 
ATOM     37  C   UNL     1       0.490  -6.904  10.955  0.00  0.00    +0.013 A 
ENDBRANCH  29  32
ENDBRANCH  25  28
BRANCH  27  38
ATOM     38  O   UNL     1      -1.390  -4.228   4.625  0.00  0.00    -0.493 OA
ATOM     39  C   UNL     1      -2.105  -5.341   5.163  0.00  0.00    +0.277 C 
ENDBRANCH  27  38
BRANCH  24  40
ATOM     40  O   UNL     1       2.071  -1.610   8.001  0.00  0.00    -0.493 OA
ATOM     41  C   UNL     1       2.786  -0.496   7.462  0.00  0.00    +0.277 C 
ENDBRANCH  24  40
ENDBRANCH   3  22
TORSDOF 8
