REMARK  Name = ZINC30943590
REMARK  6 active torsions:
REMARK  status: ('A' for Active; 'I' for Inactive)
REMARK    1  A    between atoms: C_1  and  C_2
REMARK    2  A    between atoms: N_4  and  C_5
REMARK    3  A    between atoms: C_9  and  N_11
REMARK    4  A    between atoms: C_12  and  C_14
REMARK    5  A    between atoms: N_17  and  S_25
REMARK    6  A    between atoms: S_25  and  C_28
REMARK                            x       y       z     vdW  Elec       q    Type
REMARK                         _______ _______ _______ _____ _____    ______ ____
ROOT
ATOM      1  N   UNL     1      -1.516   2.350   1.415  0.00  0.00    -0.282 N 
ATOM      2  C   UNL     1      -0.209   2.426   1.098  0.00  0.00    +0.260 C 
ATOM      3  O   UNL     1       0.560   3.012   1.831  0.00  0.00    -0.271 OA
ATOM      4  H   UNL     1      -2.198   1.746   0.797  0.00  0.00    +0.155 HD
ENDROOT
BRANCH   2   5
ATOM      5  C   UNL     1       0.298   1.783  -0.167  0.00  0.00    +0.278 C 
ATOM      6  C   UNL     1       0.129   0.260  -0.074  0.00  0.00    +0.185 C 
ATOM      7  N   UNL     1       0.681  -0.325  -1.308  0.00  0.00    -0.200 N 
ATOM      8  C   UNL     1       1.888   0.200  -1.796  0.00  0.00    +0.093 A 
ATOM      9  C   UNL     1       2.598  -0.481  -2.773  0.00  0.00    +0.028 A 
ATOM     10  C   UNL     1       3.784   0.042  -3.253  0.00  0.00    +0.002 A 
ATOM     11  C   UNL     1       4.263   1.241  -2.759  0.00  0.00    +0.004 A 
ATOM     12  C   UNL     1       3.560   1.924  -1.784  0.00  0.00    +0.047 A 
ATOM     13  C   UNL     1       2.369   1.407  -1.296  0.00  0.00    +0.144 A 
ATOM     14  O   UNL     1       1.686   2.083  -0.334  0.00  0.00    -0.476 OA
BRANCH   7  15
ATOM     15  S   UNL     1      -0.095  -1.560  -2.092  0.00  0.00    +0.043 S 
ATOM     16  O   UNL     1      -1.428  -1.519  -1.603  0.00  0.00    -0.155 OA
ATOM     17  O   UNL     1       0.178  -1.344  -3.470  0.00  0.00    -0.155 OA
ATOM     18  C   UNL     1       0.734  -3.069  -1.520  0.00  0.00    +0.218 C 
ENDBRANCH   7  15
ENDBRANCH   2   5
BRANCH   1  23
ATOM     19  C   UNL     1      -1.955   4.946   3.988  0.00  0.00    +0.035 A 
ATOM     20  C   UNL     1      -2.986   4.395   4.739  0.00  0.00    +0.023 A 
ATOM     21  C   UNL     1      -3.523   3.173   4.386  0.00  0.00    +0.004 A 
ATOM     22  C   UNL     1      -3.041   2.496   3.282  0.00  0.00    +0.023 A 
ATOM     23  C   UNL     1      -2.007   3.038   2.530  0.00  0.00    +0.035 A 
ATOM     24  C   UNL     1      -1.465   4.266   2.882  0.00  0.00    +0.046 A 
BRANCH  19  28
ATOM     25  C   UNL     1      -1.638   8.509   5.159  0.00  0.00    +0.109 C 
ATOM     26  C   UNL     1      -2.203   7.144   4.864  0.00  0.00    +0.214 C 
ATOM     27  O   UNL     1      -3.371   6.908   5.092  0.00  0.00    -0.276 OA
ATOM     28  N   UNL     1      -1.411   6.184   4.346  0.00  0.00    -0.286 N 
ATOM     29  H   UNL     1      -0.337   6.375   4.205  0.00  0.00    +0.155 HD
ENDBRANCH  19  28
ENDBRANCH   1  23
TORSDOF 4
