REMARK  Name = ZINC27318047
REMARK  9 active torsions:
REMARK  status: ('A' for Active; 'I' for Inactive)
REMARK    1  A    between atoms: C_1  and  C_2
REMARK    2  A    between atoms: C_2  and  C_41
REMARK    3  A    between atoms: C_7  and  C_23
REMARK    4  A    between atoms: C_8  and  N_11
REMARK    5  A    between atoms: C_12  and  C_14
REMARK    6  A    between atoms: C_14  and  C_15
REMARK    7  A    between atoms: C_15  and  C_16
REMARK    8  A    between atoms: C_23  and  S_24
REMARK    9  A    between atoms: S_24  and  N_27
REMARK                            x       y       z     vdW  Elec       q    Type
REMARK                         _______ _______ _______ _____ _____    ______ ____
ROOT
ATOM      1  C   UNL     1      -8.695   0.966  -7.418  0.00  0.00    +0.012 C 
ATOM      2  C   UNL     1      -7.234   1.416  -7.341  0.00  0.00    -0.023 C 
ATOM      3  C   UNL     1      -6.247   0.293  -7.817  0.00  0.00    -0.003 C 
ATOM      4  C   UNL     1      -6.524  -0.807  -6.748  0.00  0.00    +0.005 C 
ATOM      5  C   UNL     1      -6.833  -0.024  -5.452  0.00  0.00    +0.011 C 
ATOM      6  C   UNL     1      -6.715   1.476  -5.861  0.00  0.00    +0.015 C 
ATOM      7  C   UNL     1      -5.190   1.697  -6.100  0.00  0.00    +0.081 C 
ATOM      8  C   UNL     1      -4.880   0.913  -7.395  0.00  0.00    +0.027 C 
ATOM      9  C   UNL     1      -7.008   2.734  -8.083  0.00  0.00    +0.012 C 
ENDROOT
BRANCH   7  10
ATOM     10  N   UNL     1      -4.414   1.158  -4.979  0.00  0.00    -0.312 N 
ATOM     11  C   UNL     1      -3.124   1.512  -4.821  0.00  0.00    +0.213 C 
ATOM     12  O   UNL     1      -2.604   2.277  -5.606  0.00  0.00    -0.276 OA
ATOM     13  H   UNL     1      -4.886   0.465  -4.267  0.00  0.00    +0.149 HD
BRANCH  11  14
ATOM     14  C   UNL     1      -2.326   0.959  -3.668  0.00  0.00    +0.096 C 
BRANCH  14  15
ATOM     15  C   UNL     1      -0.902   1.515  -3.720  0.00  0.00    +0.011 C 
BRANCH  15  16
ATOM     16  C   UNL     1      -0.092   0.953  -2.550  0.00  0.00    -0.028 C 
ATOM     17  C   UNL     1       1.365   1.409  -2.670  0.00  0.00    -0.000 C 
ATOM     18  C   UNL     1       2.154   0.892  -1.464  0.00  0.00    -0.019 C 
ATOM     19  C   UNL     1       1.506   1.408  -0.177  0.00  0.00    -0.083 C 
ATOM     20  N   UNL     1       0.114   0.944  -0.109  0.00  0.00    +0.379 N 
ATOM     21  C   UNL     1      -0.675   1.466  -1.231  0.00  0.00    -0.079 C 
ATOM     22  H   UNL     1       0.092  -0.155  -0.146  0.00  0.00    -0.086 HD
ATOM     23  H   UNL     1      -0.341   1.289   0.831  0.00  0.00    -0.086 HD
ENDBRANCH  15  16
ENDBRANCH  14  15
ENDBRANCH  11  14
ENDBRANCH   7  10
BRANCH   6  24
ATOM     24  C   UNL     1      -7.402   2.491  -4.944  0.00  0.00    +0.194 C 
BRANCH  24  25
ATOM     25  S   UNL     1      -6.643   2.429  -3.298  0.00  0.00    +0.032 S 
ATOM     26  O   UNL     1      -6.938   1.189  -2.669  0.00  0.00    -0.158 OA
ATOM     27  O   UNL     1      -5.308   2.912  -3.355  0.00  0.00    -0.158 OA
BRANCH  25  28
ATOM     28  N   UNL     1      -7.463   3.559  -2.408  0.00  0.00    -0.181 NA
ATOM     29  C   UNL     1      -6.995   4.951  -2.353  0.00  0.00    +0.110 C 
ATOM     30  C   UNL     1      -6.831   5.362  -0.890  0.00  0.00    +0.028 C 
ATOM     31  C   UNL     1      -8.130   5.093  -0.137  0.00  0.00    -0.001 C 
ATOM     32  C   UNL     1      -9.271   5.931  -0.743  0.00  0.00    +0.016 C 
ATOM     33  C   UNL     1     -10.122   6.274   0.499  0.00  0.00    +0.036 C 
ATOM     34  C   UNL     1      -9.157   6.230   1.665  0.00  0.00    -0.044 A 
ATOM     35  C   UNL     1      -8.010   5.549   1.298  0.00  0.00    -0.038 A 
ATOM     36  C   UNL     1      -6.984   5.386   2.213  0.00  0.00    +0.004 A 
ATOM     37  C   UNL     1      -7.102   5.899   3.490  0.00  0.00    +0.000 A 
ATOM     38  C   UNL     1      -8.248   6.578   3.857  0.00  0.00    +0.000 A 
ATOM     39  C   UNL     1      -9.273   6.743   2.946  0.00  0.00    +0.004 A 
ATOM     40  C   UNL     1      -8.487   3.610  -0.193  0.00  0.00    +0.028 C 
ATOM     41  C   UNL     1      -8.669   3.187  -1.655  0.00  0.00    +0.110 C 
ENDBRANCH  25  28
ENDBRANCH  24  25
ENDBRANCH   6  24
TORSDOF 7
