REMARK  Name = ZINC36072034
REMARK  10 active torsions:
REMARK  status: ('A' for Active; 'I' for Inactive)
REMARK    1  A    between atoms: C_1  and  C_2
REMARK    2  A    between atoms: C_3  and  C_31
REMARK    3  A    between atoms: C_4  and  C_24
REMARK    4  A    between atoms: C_7  and  C_12
REMARK    5  A    between atoms: C_13  and  N_15
REMARK    6  A    between atoms: N_15  and  C_16
REMARK    7  A    between atoms: C_16  and  C_17
REMARK    8  A    between atoms: C_17  and  C_18
REMARK    9  A    between atoms: N_33  and  C_34
REMARK   10  A    between atoms: N_33  and  C_35
REMARK                            x       y       z     vdW  Elec       q    Type
REMARK                         _______ _______ _______ _____ _____    ______ ____
ROOT
ATOM      1  C   UNL     1       0.042   1.882   0.290  0.00  0.00    +0.066 C 
ATOM      2  C   UNL     1       0.052   0.376   0.333  0.00  0.00    +0.051 C 
ATOM      3  C   UNL     1      -1.122  -0.323   0.136  0.00  0.00    +0.060 C 
ATOM      4  C   UNL     1      -1.062  -1.833   0.188  0.00  0.00    +0.148 C 
ATOM      5  N   UNL     1       0.267  -2.449   0.449  0.00  0.00    -0.267 N 
ATOM      6  C   UNL     1       0.556  -3.796   0.539  0.00  0.00    +0.048 C 
ATOM      7  C   UNL     1       1.837  -4.147   0.784  0.00  0.00    +0.072 C 
ATOM      8  S   UNL     1       2.641  -2.561   0.889  0.00  0.00    -0.060 S 
ATOM      9  C   UNL     1       1.307  -1.578   0.617  0.00  0.00    +0.166 C 
ATOM     10  N   UNL     1       1.187  -0.269   0.554  0.00  0.00    -0.230 NA
ENDROOT
BRANCH   4  11
ATOM     11  C   UNL     1      -1.567  -2.364  -1.129  0.00  0.00    -0.022 A 
ATOM     12  C   UNL     1      -0.712  -2.453  -2.212  0.00  0.00    +0.007 A 
ATOM     13  C   UNL     1      -1.174  -2.939  -3.420  0.00  0.00    +0.020 A 
ATOM     14  C   UNL     1      -2.493  -3.337  -3.546  0.00  0.00    +0.041 A 
ATOM     15  C   UNL     1      -3.348  -3.248  -2.462  0.00  0.00    +0.020 A 
ATOM     16  C   UNL     1      -2.883  -2.766  -1.253  0.00  0.00    +0.007 A 
ATOM     17 CL   UNL     1      -3.075  -3.947  -5.063  0.00  0.00    -0.084 Cl
ENDBRANCH   4  11
BRANCH   3  18
ATOM     18  C   UNL     1      -2.332   0.346  -0.105  0.00  0.00    +0.246 C 
ATOM     19  O   UNL     1      -2.739   0.477  -1.247  0.00  0.00    -0.270 OA
ATOM     20  N   UNL     1      -3.043   0.844   0.925  0.00  0.00    -0.304 N 
ATOM     21  C   UNL     1      -4.350   1.461   0.683  0.00  0.00    +0.132 C 
ATOM     22  C   UNL     1      -2.510   0.768   2.288  0.00  0.00    +0.132 C 
ENDBRANCH   3  18
BRANCH   6  23
ATOM     23  C   UNL     1      -0.493  -4.812   0.374  0.00  0.00    +0.091 C 
ATOM     24  C   UNL     1      -0.213  -6.111   0.592  0.00  0.00    +0.239 C 
ATOM     25  O   UNL     1       1.060  -6.495   0.853  0.00  0.00    -0.271 OA
BRANCH  24  26
ATOM     26  N   UNL     1      -1.226  -7.055   0.550  0.00  0.00    -0.311 N 
ATOM     27  H   UNL     1      -2.123  -6.792   0.292  0.00  0.00    +0.149 HD
BRANCH  26  28
ATOM     28  C   UNL     1      -0.942  -8.450   0.895  0.00  0.00    +0.110 C 
BRANCH  28  29
ATOM     29  C   UNL     1      -2.191  -9.300   0.650  0.00  0.00    +0.074 C 
BRANCH  29  30
ATOM     30  C   UNL     1      -1.899 -10.735   1.005  0.00  0.00    +0.043 A 
ATOM     31  C   UNL     1      -2.710 -11.393   1.911  0.00  0.00    +0.023 A 
ATOM     32  C   UNL     1      -2.433 -12.713   2.231  0.00  0.00    +0.003 A 
ATOM     33  C   UNL     1      -1.345 -13.325   1.626  0.00  0.00    +0.020 A 
ATOM     34  C   UNL     1      -0.580 -12.603   0.730  0.00  0.00    +0.111 A 
ATOM     35  N   UNL     1      -0.876 -11.350   0.445  0.00  0.00    -0.260 NA
ENDBRANCH  29  30
ENDBRANCH  28  29
ENDBRANCH  26  28
ENDBRANCH  24  26
ENDBRANCH   6  23
TORSDOF 7
