REMARK  Name = ZINC25460073
REMARK  6 active torsions:
REMARK  status: ('A' for Active; 'I' for Inactive)
REMARK    1  A    between atoms: C_1  and  C_2
REMARK    2  A    between atoms: C_3  and  C_7
REMARK    3  A    between atoms: C_10  and  S_13
REMARK    4  A    between atoms: N_11  and  N_12
REMARK    5  A    between atoms: S_13  and  C_14
REMARK    6  A    between atoms: C_14  and  C_15
REMARK                            x       y       z     vdW  Elec       q    Type
REMARK                         _______ _______ _______ _____ _____    ______ ____
ROOT
ATOM      1  C   UNL     1      -3.207   4.016  -0.954  0.00  0.00    +0.234 C 
ATOM      2  O   UNL     1      -4.213   4.688  -0.872  0.00  0.00    -0.274 OA
ATOM      3  N   UNL     1      -2.383   3.903   0.107  0.00  0.00    -0.239 N 
ATOM      4  C   UNL     1      -1.214   3.131   0.036  0.00  0.00    +0.044 A 
ATOM      5  C   UNL     1      -1.224   1.748   0.017  0.00  0.00    +0.024 A 
ATOM      6  C   UNL     1      -0.013   1.076   0.008  0.00  0.00    +0.002 A 
ATOM      7  C   UNL     1       1.178   1.779   0.000  0.00  0.00    +0.000 A 
ATOM      8  C   UNL     1       1.175   3.167  -0.006  0.00  0.00    +0.005 A 
ATOM      9  C   UNL     1      -0.033   3.826   0.008  0.00  0.00    -0.025 A 
ATOM     10  C   UNL     1      -0.145   5.328  -0.041  0.00  0.00    +0.042 C 
ATOM     11  C   UNL     1      -0.448   5.904   1.331  0.00  0.00    +0.042 C 
ATOM     12  C   UNL     1      -1.767   5.431   1.897  0.00  0.00    -0.025 A 
ATOM     13  C   UNL     1      -2.669   4.552   1.317  0.00  0.00    +0.044 A 
ATOM     14  C   UNL     1      -3.873   4.249   1.944  0.00  0.00    +0.024 A 
ATOM     15  C   UNL     1      -4.179   4.794   3.174  0.00  0.00    +0.002 A 
ATOM     16  C   UNL     1      -3.274   5.649   3.776  0.00  0.00    +0.000 A 
ATOM     17  C   UNL     1      -2.091   5.963   3.147  0.00  0.00    +0.005 A 
ENDROOT
BRANCH   1  18
ATOM     18  C   UNL     1      -2.877   3.309  -2.243  0.00  0.00    +0.174 C 
BRANCH  18  19
ATOM     19  S   UNL     1      -4.164   3.654  -3.468  0.00  0.00    -0.075 S 
BRANCH  19  23
ATOM     20  C   UNL     1      -3.283   1.808  -6.797  0.00  0.00    +0.185 A 
ATOM     21  N   UNL     1      -2.286   1.477  -6.011  0.00  0.00    -0.127 NA
ATOM     22  N   UNL     1      -2.438   2.020  -4.856  0.00  0.00    -0.121 NA
ATOM     23  C   UNL     1      -3.542   2.731  -4.834  0.00  0.00    +0.209 A 
ATOM     24  N   UNL     1      -4.122   2.616  -6.067  0.00  0.00    -0.224 N 
BRANCH  20  27
ATOM     25  C   UNL     1      -1.366  -0.036  -8.457  0.00  0.00    +0.087 C 
ATOM     26  C   UNL     1      -2.651   0.587  -8.937  0.00  0.00    +0.112 A 
ATOM     27  C   UNL     1      -3.472   1.386  -8.202  0.00  0.00    +0.061 A 
ATOM     28  C   UNL     1      -4.580   1.746  -9.095  0.00  0.00    +0.053 A 
ATOM     29  C   UNL     1      -4.329   1.136 -10.264  0.00  0.00    +0.196 A 
ATOM     30  O   UNL     1      -3.182   0.447 -10.161  0.00  0.00    -0.467 OA
ENDBRANCH  20  27
BRANCH  24  31
ATOM     31  N   UNL     1      -5.289   3.188  -6.487  0.00  0.00    -0.295 N 
ATOM     32  H   UNL     1      -5.871   3.819  -5.798  0.00  0.00    +0.163 HD
ATOM     33  H   UNL     1      -5.647   3.018  -7.513  0.00  0.00    +0.163 HD
ENDBRANCH  24  31
ENDBRANCH  19  23
ENDBRANCH  18  19
ENDBRANCH   1  18
TORSDOF 5
