REMARK  Name = ZINC24785013
REMARK  6 active torsions:
REMARK  status: ('A' for Active; 'I' for Inactive)
REMARK    1  A    between atoms: C_1  and  C_2
REMARK    2  A    between atoms: C_5  and  N_8
REMARK    3  A    between atoms: N_8  and  S_9
REMARK    4  A    between atoms: S_9  and  C_12
REMARK    5  A    between atoms: C_16  and  C_18
REMARK    6  A    between atoms: C_23  and  C_26
REMARK                            x       y       z     vdW  Elec       q    Type
REMARK                         _______ _______ _______ _____ _____    ______ ____
ROOT
ATOM      1  C   UNL     1      -2.693  -0.406   0.388  0.00  0.00    +0.109 A 
ATOM      2  C   UNL     1      -3.331   0.761   0.769  0.00  0.00    +0.029 A 
ATOM      3  C   UNL     1      -4.596   1.052   0.291  0.00  0.00    +0.003 A 
ATOM      4  C   UNL     1      -5.234   0.175  -0.562  0.00  0.00    +0.013 A 
ATOM      5  C   UNL     1      -4.597  -1.006  -0.947  0.00  0.00    +0.039 A 
ATOM      6  C   UNL     1      -3.319  -1.292  -0.464  0.00  0.00    +0.042 A 
ENDROOT
BRANCH   5   7
ATOM      7  C   UNL     1      -5.274  -1.950  -1.860  0.00  0.00    +0.250 C 
ATOM      8  O   UNL     1      -4.718  -2.979  -2.193  0.00  0.00    -0.270 OA
ATOM      9  N   UNL     1      -6.509  -1.671  -2.324  0.00  0.00    -0.261 N 
ATOM     10  C   UNL     1      -7.145  -2.559  -3.182  0.00  0.00    +0.165 A 
ATOM     11  N   UNL     1      -8.338  -2.471  -3.740  0.00  0.00    -0.225 NA
ATOM     12  C   UNL     1      -8.793  -3.421  -4.543  0.00  0.00    +0.080 A 
ATOM     13  C   UNL     1      -8.012  -4.513  -4.799  0.00  0.00    +0.076 A 
ATOM     14  S   UNL     1      -6.562  -4.119  -3.830  0.00  0.00    -0.060 S 
ATOM     15  H   UNL     1      -7.012  -0.741  -2.023  0.00  0.00    +0.157 HD
BRANCH  12  16
ATOM     16  C   UNL     1     -10.137  -3.300  -5.158  0.00  0.00    +0.005 A 
ATOM     17  C   UNL     1     -10.654  -4.348  -5.918  0.00  0.00    +0.014 A 
ATOM     18  C   UNL     1     -11.905  -4.235  -6.490  0.00  0.00    +0.050 A 
ATOM     19  C   UNL     1     -12.651  -3.081  -6.312  0.00  0.00    +0.166 A 
ATOM     20  C   UNL     1     -12.140  -2.030  -5.553  0.00  0.00    +0.167 A 
ATOM     21  C   UNL     1     -10.888  -2.141  -4.973  0.00  0.00    +0.059 A 
ATOM     22  O   UNL     1     -13.059  -1.020  -5.530  0.00  0.00    -0.453 OA
ATOM     23  C   UNL     1     -14.301  -1.622  -5.939  0.00  0.00    +0.466 C 
ATOM     24  O   UNL     1     -13.891  -2.728  -6.764  0.00  0.00    -0.453 OA
ENDBRANCH  12  16
ENDBRANCH   5   7
BRANCH   1  25
ATOM     25  S   UNL     1      -1.079  -0.765   0.999  0.00  0.00    +0.072 S 
ATOM     26  O   UNL     1      -0.879  -2.161   0.820  0.00  0.00    -0.150 OA
ATOM     27  O   UNL     1      -0.977  -0.138   2.269  0.00  0.00    -0.150 OA
BRANCH  25  28
ATOM     28  N   UNL     1       0.002  -0.001   0.004  0.00  0.00    -0.216 N 
ATOM     29  H   UNL     1       0.669   0.774   0.410  0.00  0.00    +0.174 HD
BRANCH  28  34
ATOM     30  C   UNL     1       0.265  -1.375  -5.491  0.00  0.00    +0.044 C 
ATOM     31  C   UNL     1       0.195  -1.010  -4.031  0.00  0.00    -0.050 A 
ATOM     32  C   UNL     1       0.174   0.320  -3.652  0.00  0.00    +0.005 A 
ATOM     33  C   UNL     1       0.110   0.658  -2.315  0.00  0.00    +0.025 A 
ATOM     34  C   UNL     1       0.066  -0.339  -1.349  0.00  0.00    +0.048 A 
ATOM     35  C   UNL     1       0.093  -1.674  -1.732  0.00  0.00    +0.025 A 
ATOM     36  C   UNL     1       0.152  -2.006  -3.072  0.00  0.00    +0.005 A 
ENDBRANCH  28  34
ENDBRANCH  25  28
ENDBRANCH   1  25
TORSDOF 5
