REMARK  Name = ZINC13395772
REMARK  8 active torsions:
REMARK  status: ('A' for Active; 'I' for Inactive)
REMARK    1  A    between atoms: C_1  and  S_2
REMARK    2  A    between atoms: S_2  and  C_3
REMARK    3  A    between atoms: C_6  and  C_9
REMARK    4  A    between atoms: C_10  and  C_11
REMARK    5  A    between atoms: N_13  and  C_14
REMARK    6  A    between atoms: C_17  and  S_20
REMARK    7  A    between atoms: S_20  and  N_23
REMARK    8  A    between atoms: C_27  and  C_30
REMARK                            x       y       z     vdW  Elec       q    Type
REMARK                         _______ _______ _______ _____ _____    ______ ____
ROOT
ATOM      1  C   UNL     1      -2.350   2.659   3.688  0.00  0.00    +0.034 A 
ATOM      2  C   UNL     1      -2.672   1.486   3.018  0.00  0.00    +0.025 A 
ATOM      3  C   UNL     1      -1.952   1.110   1.901  0.00  0.00    +0.030 A 
ATOM      4  C   UNL     1      -0.912   1.901   1.449  0.00  0.00    +0.106 A 
ATOM      5  C   UNL     1      -0.585   3.067   2.116  0.00  0.00    +0.030 A 
ATOM      6  C   UNL     1      -1.304   3.451   3.231  0.00  0.00    +0.025 A 
ENDROOT
BRANCH   1   9
ATOM      7  C   UNL     1      -3.281   4.350   5.077  0.00  0.00    +0.241 C 
ATOM      8  O   UNL     1      -2.916   5.193   4.278  0.00  0.00    -0.270 OA
ATOM      9  N   UNL     1      -3.077   3.043   4.819  0.00  0.00    -0.282 N 
ATOM     10  H   UNL     1      -3.434   2.369   5.417  0.00  0.00    +0.155 HD
BRANCH   7  12
ATOM     11  C   UNL     1      -4.144   6.065   6.577  0.00  0.00    +0.013 C 
ATOM     12  C   UNL     1      -3.939   4.755   6.317  0.00  0.00    +0.068 C 
BRANCH  11  16
ATOM     13  C   UNL     1      -6.052   7.239  10.166  0.00  0.00    +0.008 A 
ATOM     14  C   UNL     1      -5.635   8.205   9.253  0.00  0.00    +0.015 A 
ATOM     15  C   UNL     1      -5.019   7.830   8.094  0.00  0.00    +0.009 A 
ATOM     16  C   UNL     1      -4.806   6.473   7.823  0.00  0.00    -0.025 A 
ATOM     17  C   UNL     1      -5.231   5.504   8.741  0.00  0.00    +0.009 A 
ATOM     18  C   UNL     1      -5.842   5.887   9.901  0.00  0.00    +0.015 A 
BRANCH  13  20
ATOM     19  C   UNL     1      -7.194   6.160  12.506  0.00  0.00    +0.090 C 
ATOM     20  S   UNL     1      -6.846   7.728  11.662  0.00  0.00    -0.129 S 
ENDBRANCH  13  20
ENDBRANCH  11  16
ENDBRANCH   7  12
ENDBRANCH   1   9
BRANCH   4  21
ATOM     21  S   UNL     1       0.004   1.418   0.023  0.00  0.00    +0.061 S 
ATOM     22  O   UNL     1      -0.142   0.009  -0.096  0.00  0.00    -0.153 OA
ATOM     23  O   UNL     1       1.274   2.046   0.124  0.00  0.00    -0.153 OA
BRANCH  21  24
ATOM     24  N   UNL     1      -0.750   2.084  -1.292  0.00  0.00    -0.176 NA
ATOM     25  C   UNL     1      -1.806   1.349  -2.002  0.00  0.00    +0.109 C 
ATOM     26  C   UNL     1      -3.053   2.243  -2.084  0.00  0.00    +0.018 C 
ATOM     27  C   UNL     1      -2.675   3.579  -2.728  0.00  0.00    +0.017 C 
ATOM     28  C   UNL     1      -1.631   4.287  -1.863  0.00  0.00    +0.118 C 
ATOM     29  C   UNL     1      -0.371   3.419  -1.775  0.00  0.00    +0.124 C 
BRANCH  28  30
ATOM     30  C   UNL     1      -1.283   5.617  -2.481  0.00  0.00    +0.360 C 
ATOM     31  O   UNL     1      -0.146   5.848  -2.818  0.00  0.00    -0.246 OA
ATOM     32  O   UNL     1      -2.237   6.545  -2.658  0.00  0.00    -0.246 OA
ENDBRANCH  28  30
ENDBRANCH  21  24
ENDBRANCH   4  21
TORSDOF 7
