REMARK  Name = ZINC36716934
REMARK  9 active torsions:
REMARK  status: ('A' for Active; 'I' for Inactive)
REMARK    1  A    between atoms: C_1  and  C_2
REMARK    2  A    between atoms: C_4  and  N_12
REMARK    3  A    between atoms: C_7  and  N_8
REMARK    4  A    between atoms: C_9  and  C_11
REMARK    5  A    between atoms: C_13  and  C_15
REMARK    6  A    between atoms: C_17  and  C_25
REMARK    7  A    between atoms: C_21  and  C_24
REMARK    8  A    between atoms: C_27  and  C_31
REMARK    9  A    between atoms: C_29  and  C_30
REMARK                            x       y       z     vdW  Elec       q    Type
REMARK                         _______ _______ _______ _____ _____    ______ ____
ROOT
ATOM      1  C   UNL     1      -0.150  -5.047  -3.735  0.00  0.00    +0.053 A 
ATOM      2  C   UNL     1      -0.429  -4.367  -4.915  0.00  0.00    +0.042 A 
ATOM      3  C   UNL     1      -0.377  -5.060  -6.129  0.00  0.00    +0.076 A 
ATOM      4  N   UNL     1      -0.069  -6.348  -6.175  0.00  0.00    -0.210 NA
ATOM      5  C   UNL     1       0.205  -7.041  -5.081  0.00  0.00    +0.260 A 
ATOM      6  C   UNL     1       0.180  -6.416  -3.823  0.00  0.00    +0.076 A 
ATOM      7  C   UNL     1       0.530  -7.439  -2.839  0.00  0.00    +0.091 A 
ATOM      8  N   UNL     1       0.740  -8.544  -3.488  0.00  0.00    -0.080 NA
ATOM      9  O   UNL     1       0.538  -8.331  -4.871  0.00  0.00    -0.334 OA
ATOM     10  C   UNL     1       0.630  -7.246  -1.348  0.00  0.00    +0.070 C 
ENDROOT
BRANCH   3  11
ATOM     11  C   UNL     1      -0.673  -4.340  -7.388  0.00  0.00    +0.011 A 
ATOM     12  C   UNL     1      -0.997  -2.983  -7.379  0.00  0.00    +0.021 A 
ATOM     13  C   UNL     1      -1.250  -2.418  -8.581  0.00  0.00    -0.012 A 
ATOM     14  S   UNL     1      -1.033  -3.789  -9.699  0.00  0.00    -0.098 S 
ATOM     15  C   UNL     1      -0.632  -4.984  -8.589  0.00  0.00    -0.004 A 
ATOM     16  C   UNL     1      -0.306  -6.431  -8.858  0.00  0.00    +0.052 C 
ATOM     17  C   UNL     1      -1.622  -0.993  -8.896  0.00  0.00    +0.051 C 
ENDBRANCH   3  11
BRANCH   1  19
ATOM     18  N   UNL     1       0.192  -3.066  -2.334  0.00  0.00    -0.281 N 
ATOM     19  C   UNL     1      -0.192  -4.355  -2.427  0.00  0.00    +0.249 C 
ATOM     20  O   UNL     1      -0.573  -4.949  -1.438  0.00  0.00    -0.270 OA
ATOM     21  H   UNL     1       0.561  -2.613  -3.109  0.00  0.00    +0.155 HD
BRANCH  18  25
ATOM     22  C   UNL     1       1.871   0.301   0.829  0.00  0.00    +0.046 C 
ATOM     23  C   UNL     1       0.859  -0.744   0.437  0.00  0.00    -0.027 A 
ATOM     24  C   UNL     1       0.991  -1.419  -0.760  0.00  0.00    +0.028 A 
ATOM     25  C   UNL     1       0.058  -2.382  -1.121  0.00  0.00    +0.034 A 
ATOM     26  C   UNL     1      -1.009  -2.666  -0.278  0.00  0.00    +0.025 A 
ATOM     27  C   UNL     1      -1.141  -1.990   0.919  0.00  0.00    +0.025 A 
ATOM     28  C   UNL     1      -0.205  -1.031   1.282  0.00  0.00    +0.036 A 
BRANCH  28  29
ATOM     29  N   UNL     1      -0.336  -0.350   2.499  0.00  0.00    -0.285 N 
ATOM     30  C   UNL     1      -1.554  -0.189   3.053  0.00  0.00    +0.214 C 
ATOM     31  O   UNL     1      -2.526  -0.702   2.541  0.00  0.00    -0.276 OA
ATOM     32  C   UNL     1      -1.708   0.631   4.308  0.00  0.00    +0.109 C 
ATOM     33  H   UNL     1       0.450   0.004   2.943  0.00  0.00    +0.155 HD
ENDBRANCH  28  29
ENDBRANCH  18  25
ENDBRANCH   1  19
TORSDOF 4
