REMARK  Name = ZINC20978075
REMARK  9 active torsions:
REMARK  status: ('A' for Active; 'I' for Inactive)
REMARK    1  A    between atoms: C_1  and  C_2
REMARK    2  A    between atoms: C_5  and  C_8
REMARK    3  A    between atoms: C_8  and  N_9
REMARK    4  A    between atoms: C_12  and  C_15
REMARK    5  A    between atoms: C_15  and  N_16
REMARK    6  A    between atoms: N_16  and  S_17
REMARK    7  A    between atoms: S_17  and  C_20
REMARK    8  A    between atoms: C_23  and  C_25
REMARK    9  A    between atoms: C_27  and  C_30
REMARK                            x       y       z     vdW  Elec       q    Type
REMARK                         _______ _______ _______ _____ _____    ______ ____
ROOT
ATOM      1  N   UNL     1       4.171  -6.101  -1.649  0.00  0.00    -0.189 NA
ATOM      2  H   UNL     1       3.658  -6.970  -2.088  0.00  0.00    +0.148 HD
ENDROOT
BRANCH   1   3
ATOM      3  S   UNL     1       3.895  -5.715  -0.063  0.00  0.00    +0.065 S 
ATOM      4  O   UNL     1       5.142  -5.304   0.478  0.00  0.00    -0.153 OA
ATOM      5  O   UNL     1       3.140  -6.785   0.490  0.00  0.00    -0.153 OA
BRANCH   3   6
ATOM      6  C   UNL     1       2.847  -4.299  -0.046  0.00  0.00    +0.143 A 
ATOM      7  C   UNL     1       1.489  -4.241  -0.033  0.00  0.00    +0.037 A 
ATOM      8  C   UNL     1       0.871  -3.011  -0.021  0.00  0.00    +0.020 A 
ATOM      9  C   UNL     1       1.648  -1.883  -0.023  0.00  0.00    +0.043 A 
ATOM     10  S   UNL     1       3.295  -2.571  -0.050  0.00  0.00    -0.067 S 
BRANCH   9  11
ATOM     11  C   UNL     1       1.231  -0.465  -0.012  0.00  0.00    +0.120 A 
ATOM     12  C   UNL     1       2.081   0.678  -0.014  0.00  0.00    +0.085 A 
ATOM     13  C   UNL     1       1.223   1.722  -0.000  0.00  0.00    +0.240 A 
ATOM     14  O   UNL     1      -0.014   1.205   0.009  0.00  0.00    -0.350 OA
ATOM     15  N   UNL     1       0.002  -0.004   0.002  0.00  0.00    -0.077 NA
BRANCH  13  16
ATOM     16  C   UNL     1       1.586   3.184   0.003  0.00  0.00    +0.453 C 
ATOM     17  F   UNL     1       1.686   3.643  -1.315  0.00  0.00    -0.163 F 
ATOM     18  F   UNL     1       0.597   3.909   0.676  0.00  0.00    -0.163 F 
ATOM     19  F   UNL     1       2.814   3.358   0.652  0.00  0.00    -0.163 F 
ENDBRANCH  13  16
ENDBRANCH   9  11
ENDBRANCH   3   6
ENDBRANCH   1   3
BRANCH   1  20
ATOM     20  C   UNL     1       4.912  -5.176  -2.510  0.00  0.00    +0.107 C 
BRANCH  20  24
ATOM     21  N   UNL     1       7.419  -5.369  -4.938  0.00  0.00    +0.383 N 
ATOM     22  C   UNL     1       7.413  -6.827  -4.652  0.00  0.00    -0.078 C 
ATOM     23  C   UNL     1       6.440  -6.950  -3.453  0.00  0.00    -0.016 C 
ATOM     24  C   UNL     1       5.351  -5.903  -3.782  0.00  0.00    -0.014 C 
ATOM     25  C   UNL     1       6.022  -4.917  -4.757  0.00  0.00    -0.074 C 
ATOM     26  H   UNL     1       8.108  -4.826  -4.274  0.00  0.00    -0.081 HD
BRANCH  21  27
ATOM     27  C   UNL     1       7.886  -5.102  -6.304  0.00  0.00    -0.043 C 
BRANCH  27  32
ATOM     28  C   UNL     1      13.581  -6.032  -6.613  0.00  0.00    +0.044 C 
ATOM     29  C   UNL     1      12.096  -5.790  -6.532  0.00  0.00    -0.050 A 
ATOM     30  C   UNL     1      11.212  -6.822  -6.787  0.00  0.00    +0.003 A 
ATOM     31  C   UNL     1       9.850  -6.599  -6.714  0.00  0.00    +0.002 A 
ATOM     32  C   UNL     1       9.371  -5.345  -6.385  0.00  0.00    -0.064 A 
ATOM     33  C   UNL     1      10.255  -4.312  -6.134  0.00  0.00    +0.002 A 
ATOM     34  C   UNL     1      11.617  -4.535  -6.203  0.00  0.00    +0.003 A 
ENDBRANCH  27  32
ENDBRANCH  21  27
ENDBRANCH  20  24
ENDBRANCH   1  20
TORSDOF 8
