REMARK  Name = ZINC12468861
REMARK  6 active torsions:
REMARK  status: ('A' for Active; 'I' for Inactive)
REMARK    1  A    between atoms: C_1  and  O_2
REMARK    2  A    between atoms: O_2  and  C_3
REMARK    3  A    between atoms: C_6  and  C_9
REMARK    4  A    between atoms: C_12  and  C_32
REMARK    5  A    between atoms: C_17  and  C_19
REMARK    6  A    between atoms: N_21  and  C_22
REMARK                            x       y       z     vdW  Elec       q    Type
REMARK                         _______ _______ _______ _____ _____    ______ ____
ROOT
ATOM      1  C   UNL     1       2.481  -2.520  -4.375  0.00  0.00    +0.104 C 
ATOM      2  C   UNL     1       1.418  -2.996  -5.371  0.00  0.00    +0.063 C 
ATOM      3  C   UNL     1       2.094  -3.612  -6.601  0.00  0.00    +0.215 C 
ATOM      4  N   UNL     1       3.091  -4.589  -6.155  0.00  0.00    -0.238 N 
ATOM      5  C   UNL     1       3.617  -4.614  -4.894  0.00  0.00    +0.119 A 
ATOM      6  C   UNL     1       4.494  -5.635  -4.825  0.00  0.00    +0.078 A 
ATOM      7  C   UNL     1       4.515  -6.266  -6.089  0.00  0.00    +0.149 A 
ATOM      8  N   UNL     1       3.669  -5.630  -6.881  0.00  0.00    -0.164 NA
ATOM      9  N   UNL     1       3.252  -3.690  -3.909  0.00  0.00    -0.322 N 
ATOM     10  H   UNL     1       3.487  -3.812  -2.976  0.00  0.00    +0.148 HD
ENDROOT
BRANCH   1  14
ATOM     11  C   UNL     1       0.582  -0.634  -1.043  0.00  0.00    +0.120 A 
ATOM     12  C   UNL     1       1.141   0.137  -2.052  0.00  0.00    +0.046 A 
ATOM     13  C   UNL     1       1.754  -0.475  -3.128  0.00  0.00    +0.009 A 
ATOM     14  C   UNL     1       1.812  -1.855  -3.200  0.00  0.00    -0.027 A 
ATOM     15  C   UNL     1       1.256  -2.625  -2.195  0.00  0.00    +0.009 A 
ATOM     16  C   UNL     1       0.646  -2.018  -1.114  0.00  0.00    +0.046 A 
BRANCH  11  18
ATOM     17  C   UNL     1      -0.050   1.395   0.024  0.00  0.00    +0.277 C 
ATOM     18  O   UNL     1      -0.021  -0.034   0.017  0.00  0.00    -0.495 OA
ENDBRANCH  11  18
ENDBRANCH   1  14
BRANCH   7  19
ATOM     19  C   UNL     1       5.340  -7.433  -6.462  0.00  0.00    +0.268 C 
ATOM     20  O   UNL     1       6.086  -7.936  -5.644  0.00  0.00    -0.268 OA
ATOM     21  N   UNL     1       5.265  -7.941  -7.708  0.00  0.00    -0.280 N 
ATOM     22  H   UNL     1       4.622  -7.583  -8.340  0.00  0.00    +0.155 HD
BRANCH  21  23
ATOM     23  C   UNL     1       6.116  -8.985  -8.091  0.00  0.00    +0.037 A 
ATOM     24  C   UNL     1       6.603  -9.043  -9.390  0.00  0.00    +0.027 A 
ATOM     25  C   UNL     1       7.443 -10.073  -9.769  0.00  0.00    +0.051 A 
ATOM     26  C   UNL     1       7.802 -11.050  -8.854  0.00  0.00    +0.166 A 
ATOM     27  C   UNL     1       7.315 -10.994  -7.550  0.00  0.00    +0.168 A 
ATOM     28  C   UNL     1       6.478  -9.959  -7.170  0.00  0.00    +0.072 A 
ATOM     29  O   UNL     1       7.810 -12.059  -6.854  0.00  0.00    -0.453 OA
ATOM     30  C   UNL     1       8.272 -12.989  -7.851  0.00  0.00    +0.466 C 
ATOM     31  O   UNL     1       8.601 -12.151  -8.974  0.00  0.00    -0.453 OA
ENDBRANCH  21  23
ENDBRANCH   7  19
BRANCH   3  32
ATOM     32  C   UNL     1       1.044  -4.307  -7.469  0.00  0.00    +0.412 C 
ATOM     33  F   UNL     1       0.088  -3.373  -7.882  0.00  0.00    -0.168 F 
ATOM     34  F   UNL     1       1.663  -4.869  -8.591  0.00  0.00    -0.168 F 
ATOM     35  F   UNL     1       0.419  -5.316  -6.727  0.00  0.00    -0.168 F 
ENDBRANCH   3  32
TORSDOF 5
