REMARK  Name = ZINC36586620
REMARK  20 active torsions:
REMARK  status: ('A' for Active; 'I' for Inactive)
REMARK    1  A    between atoms: C_1  and  C_2
REMARK    2  A    between atoms: C_5  and  C_9
REMARK    3  A    between atoms: C_6  and  C_8
REMARK    4  A    between atoms: C_9  and  C_11
REMARK    5  A    between atoms: C_9  and  N_22
REMARK    6  A    between atoms: N_13  and  C_14
REMARK    7  A    between atoms: C_14  and  C_15
REMARK    8  A    between atoms: C_14  and  C_16
REMARK    9  A    between atoms: C_14  and  C_17
REMARK   10  A    between atoms: C_17  and  C_18
REMARK   11  A    between atoms: C_18  and  C_19
REMARK   12  A    between atoms: C_18  and  C_20
REMARK   13  A    between atoms: C_18  and  C_21
REMARK   14  A    between atoms: N_22  and  C_33
REMARK   15  A    between atoms: C_23  and  C_25
REMARK   16  A    between atoms: C_26  and  O_32
REMARK   17  A    between atoms: C_30  and  O_31
REMARK   18  A    between atoms: C_33  and  C_34
REMARK   19  A    between atoms: C_33  and  C_35
REMARK   20  A    between atoms: C_33  and  C_36
REMARK                            x       y       z     vdW  Elec       q    Type
REMARK                         _______ _______ _______ _____ _____    ______ ____
ROOT
ATOM      1  C   UNL     1       1.174  -4.862  -1.063  0.00  0.00    +0.193 C 
ENDROOT
BRANCH   1   6
ATOM      2  C   UNL     1       3.775  -0.161  -3.193  0.00  0.00    +0.044 C 
ATOM      3  C   UNL     1       3.096  -1.387  -2.637  0.00  0.00    -0.050 A 
ATOM      4  C   UNL     1       3.768  -2.206  -1.749  0.00  0.00    +0.004 A 
ATOM      5  C   UNL     1       3.146  -3.330  -1.240  0.00  0.00    +0.006 A 
ATOM      6  C   UNL     1       1.852  -3.635  -1.618  0.00  0.00    -0.015 A 
ATOM      7  C   UNL     1       1.180  -2.816  -2.505  0.00  0.00    -0.045 A 
ATOM      8  C   UNL     1       1.801  -1.689  -3.011  0.00  0.00    +0.007 A 
ATOM      9  C   UNL     1      -0.231  -3.149  -2.918  0.00  0.00    +0.044 C 
ENDBRANCH   1   6
BRANCH   1  10
ATOM     10  C   UNL     1       1.801  -5.228   0.257  0.00  0.00    +0.239 C 
ATOM     11  O   UNL     1       2.561  -6.170   0.327  0.00  0.00    -0.273 OA
ATOM     12  N   UNL     1       1.516  -4.508   1.361  0.00  0.00    -0.308 N 
ATOM     13  H   UNL     1       0.868  -3.788   1.316  0.00  0.00    +0.149 HD
BRANCH  12  14
ATOM     14  C   UNL     1       2.185  -4.814   2.628  0.00  0.00    +0.030 C 
ATOM     15  C   UNL     1       1.816  -6.232   3.070  0.00  0.00    +0.031 C 
ATOM     16  C   UNL     1       3.701  -4.717   2.441  0.00  0.00    +0.031 C 
BRANCH  14  17
ATOM     17  C   UNL     1       1.738  -3.814   3.696  0.00  0.00    +0.031 C 
BRANCH  17  18
ATOM     18  C   UNL     1       1.602  -2.425   3.069  0.00  0.00    -0.036 C 
ATOM     19  C   UNL     1       0.207  -2.274   2.460  0.00  0.00    +0.010 C 
ATOM     20  C   UNL     1       1.807  -1.358   4.145  0.00  0.00    +0.010 C 
ATOM     21  C   UNL     1       2.658  -2.255   1.974  0.00  0.00    +0.010 C 
ENDBRANCH  17  18
ENDBRANCH  14  17
ENDBRANCH  12  14
ENDBRANCH   1  10
BRANCH   1  22
ATOM     22  N   UNL     1       1.332  -5.974  -2.004  0.00  0.00    -0.277 N 
ATOM     23  C   UNL     1       2.534  -6.220  -2.561  0.00  0.00    +0.255 C 
ATOM     24  O   UNL     1       3.510  -5.587  -2.206  0.00  0.00    -0.270 OA
BRANCH  23  25
ATOM     25  C   UNL     1       2.665  -7.255  -3.600  0.00  0.00    +0.119 A 
ATOM     26  C   UNL     1       2.367  -6.955  -4.937  0.00  0.00    +0.133 A 
ATOM     27  C   UNL     1       2.495  -7.937  -5.907  0.00  0.00    +0.046 A 
ATOM     28  C   UNL     1       2.914  -9.208  -5.560  0.00  0.00    +0.007 A 
ATOM     29  C   UNL     1       3.211  -9.514  -4.245  0.00  0.00    +0.046 A 
ATOM     30  C   UNL     1       3.095  -8.546  -3.260  0.00  0.00    +0.133 A 
BRANCH  30  31
ATOM     31  O   UNL     1       3.393  -8.847  -1.972  0.00  0.00    -0.506 OA
ATOM     32  H   UNL     1       2.641  -9.178  -1.461  0.00  0.00    +0.292 HD
ENDBRANCH  30  31
BRANCH  26  33
ATOM     33  O   UNL     1       1.954  -5.710  -5.280  0.00  0.00    -0.506 OA
ATOM     34  H   UNL     1       2.674  -5.107  -5.513  0.00  0.00    +0.292 HD
ENDBRANCH  26  33
ENDBRANCH  23  25
BRANCH  22  35
ATOM     35  C   UNL     1       0.182  -6.819  -2.338  0.00  0.00    +0.030 C 
ATOM     36  C   UNL     1      -1.031  -6.377  -1.518  0.00  0.00    +0.031 C 
ATOM     37  C   UNL     1      -0.133  -6.684  -3.829  0.00  0.00    +0.031 C 
ATOM     38  C   UNL     1       0.511  -8.278  -2.015  0.00  0.00    +0.031 C 
ENDBRANCH  22  35
ENDBRANCH   1  22
TORSDOF 10
