REMARK  Name = ZINC13255369
REMARK  4 active torsions:
REMARK  status: ('A' for Active; 'I' for Inactive)
REMARK    1  A    between atoms: C_6  and  C_7
REMARK    2  A    between atoms: N_9  and  N_10
REMARK    3  A    between atoms: C_11  and  C_13
REMARK    4  A    between atoms: C_19  and  C_21
REMARK                            x       y       z     vdW  Elec       q    Type
REMARK                         _______ _______ _______ _____ _____    ______ ____
ROOT
ATOM      1  N   UNL     1      -1.202  -0.721   0.010  0.00  0.00    -0.234 N 
ATOM      2  C   UNL     1      -1.183  -2.069   0.002  0.00  0.00    +0.233 C 
ATOM      3  O   UNL     1      -0.125  -2.661  -0.011  0.00  0.00    -0.274 OA
ATOM      4  H   UNL     1      -2.048  -0.247   0.020  0.00  0.00    +0.173 HD
ENDROOT
BRANCH   2   5
ATOM      5  C   UNL     1      -2.478  -2.840   0.011  0.00  0.00    +0.094 C 
ATOM      6  C   UNL     1      -3.265  -2.511   1.281  0.00  0.00    +0.040 C 
ATOM      7  C   UNL     1      -4.418  -3.458   1.435  0.00  0.00    -0.030 C 
ATOM      8  C   UNL     1      -4.520  -4.585   0.806  0.00  0.00    -0.030 C 
ATOM      9  C   UNL     1      -3.503  -5.097  -0.172  0.00  0.00    +0.042 C 
ATOM     10  C   UNL     1      -2.182  -4.345  -0.000  0.00  0.00    +0.118 C 
BRANCH  10  11
ATOM     11  C   UNL     1      -1.256  -4.671  -1.144  0.00  0.00    +0.360 C 
ATOM     12  O   UNL     1      -0.871  -3.792  -1.879  0.00  0.00    -0.246 OA
ATOM     13  O   UNL     1      -0.861  -5.937  -1.348  0.00  0.00    -0.246 OA
ENDBRANCH  10  11
ENDBRANCH   2   5
BRANCH   1  16
ATOM     14  C   UNL     1      -0.016   1.344   0.009  0.00  0.00    +0.260 C 
ATOM     15  O   UNL     1      -1.077   1.937   0.018  0.00  0.00    -0.269 OA
ATOM     16  N   UNL     1       0.002  -0.004   0.002  0.00  0.00    -0.230 N 
ATOM     17  H   UNL     1       0.849  -0.478  -0.009  0.00  0.00    +0.173 HD
BRANCH  14  23
ATOM     18  C   UNL     1       2.473   1.420  -0.008  0.00  0.00    +0.016 A 
ATOM     19  C   UNL     1       3.654   2.131  -0.021  0.00  0.00    +0.039 A 
ATOM     20  C   UNL     1       3.633   3.517  -0.013  0.00  0.00    +0.123 A 
ATOM     21  C   UNL     1       2.424   4.196   0.002  0.00  0.00    +0.039 A 
ATOM     22  C   UNL     1       1.237   3.496   0.009  0.00  0.00    +0.016 A 
ATOM     23  C   UNL     1       1.253   2.099   0.001  0.00  0.00    +0.038 A 
ATOM     24  F   UNL     1       4.793   4.208  -0.021  0.00  0.00    -0.205 F 
ENDBRANCH  14  23
ENDBRANCH   1  16
TORSDOF 4
