REMARK  Name = ZINC22348642
REMARK  2 active torsions:
REMARK  status: ('A' for Active; 'I' for Inactive)
REMARK    1  A    between atoms: C_12  and  N_16
REMARK    2  A    between atoms: C_17  and  C_19
REMARK                            x       y       z     vdW  Elec       q    Type
REMARK                         _______ _______ _______ _____ _____    ______ ____
ROOT
ATOM      1  C   UNL     1      -5.611   0.781   2.252  0.00  0.00    +0.046 A 
ATOM      2  C   UNL     1      -5.543   1.027   3.613  0.00  0.00    +0.044 A 
ATOM      3  C   UNL     1      -4.358   1.370   4.245  0.00  0.00    +0.040 A 
ATOM      4  C   UNL     1      -3.167   1.489   3.550  0.00  0.00    +0.052 A 
ATOM      5  C   UNL     1      -3.213   1.244   2.174  0.00  0.00    +0.022 A 
ATOM      6  C   UNL     1      -4.426   0.892   1.528  0.00  0.00    +0.050 A 
ATOM      7  N   UNL     1      -4.145   0.721   0.203  0.00  0.00    -0.358 N 
ATOM      8  H   UNL     1      -4.946   0.441  -0.497  0.00  0.00    +0.166 HD
ATOM      9  C   UNL     1      -2.812   0.949  -0.023  0.00  0.00    +0.020 A 
ATOM     10  C   UNL     1      -2.201   1.268   1.138  0.00  0.00    -0.016 A 
ATOM     11  C   UNL     1      -0.732   1.581   1.268  0.00  0.00    +0.059 C 
ATOM     12  C   UNL     1      -0.013   1.086   0.008  0.00  0.00    +0.078 C 
ATOM     13  C   UNL     1      -0.755   1.594  -1.232  0.00  0.00    +0.028 C 
ATOM     14  C   UNL     1      -2.100   0.868  -1.352  0.00  0.00    +0.055 C 
ATOM     15 CL   UNL     1      -1.687   1.919   4.349  0.00  0.00    -0.083 Cl
ATOM     16 CL   UNL     1      -6.993   0.902   4.561  0.00  0.00    -0.083 Cl
ENDROOT
BRANCH  12  17
ATOM     17  N   UNL     1       1.361   1.593  -0.002  0.00  0.00    -0.312 N 
ATOM     18  C   UNL     1       2.318   0.934  -0.685  0.00  0.00    +0.217 C 
ATOM     19  O   UNL     1       2.042  -0.080  -1.290  0.00  0.00    -0.275 OA
ATOM     20  H   UNL     1       1.612   2.513   0.547  0.00  0.00    +0.149 HD
BRANCH  18  21
ATOM     21  C   UNL     1       3.732   1.456  -0.695  0.00  0.00    +0.079 C 
ATOM     22  C   UNL     1       4.616   0.535  -1.546  0.00  0.00    +0.017 C 
ATOM     23  C   UNL     1       6.070   0.987  -1.399  0.00  0.00    +0.027 C 
ATOM     24  C   UNL     1       6.178   2.468  -1.612  0.00  0.00    -0.031 C 
ATOM     25  C   UNL     1       5.173   3.283  -1.567  0.00  0.00    -0.030 C 
ATOM     26  C   UNL     1       3.758   2.859  -1.307  0.00  0.00    +0.039 C 
ENDBRANCH  18  21
ENDBRANCH  12  17
TORSDOF 2
