REMARK  Name = ZINC20720128
REMARK  4 active torsions:
REMARK  status: ('A' for Active; 'I' for Inactive)
REMARK    1  A    between atoms: C_1  and  N_2
REMARK    2  A    between atoms: N_5  and  S_8
REMARK    3  A    between atoms: S_8  and  C_11
REMARK    4  A    between atoms: C_24  and  C_27
REMARK                            x       y       z     vdW  Elec       q    Type
REMARK                         _______ _______ _______ _____ _____    ______ ____
ROOT
ATOM      1  C   UNL     1      -1.750   3.942   2.530  0.00  0.00    +0.106 A 
ATOM      2  C   UNL     1      -2.072   3.107   3.585  0.00  0.00    +0.030 A 
ATOM      3  C   UNL     1      -1.746   1.767   3.521  0.00  0.00    +0.025 A 
ATOM      4  C   UNL     1      -1.097   1.262   2.401  0.00  0.00    +0.031 A 
ATOM      5  C   UNL     1      -0.773   2.095   1.341  0.00  0.00    -0.018 A 
ATOM      6  C   UNL     1      -1.106   3.440   1.417  0.00  0.00    +0.034 A 
ATOM      7  C   UNL     1      -0.077   1.595   0.115  0.00  0.00    +0.049 C 
ATOM      8  C   UNL     1       1.374   2.012   0.097  0.00  0.00    -0.023 C 
ATOM      9  C   UNL     1       2.112   1.063  -0.425  0.00  0.00    -0.030 C 
ATOM     10  C   UNL     1       1.250  -0.116  -0.834  0.00  0.00    +0.033 C 
ATOM     11  C   UNL     1      -0.031   0.057   0.033  0.00  0.00    +0.029 C 
ATOM     12  C   UNL     1       0.270  -0.531   1.415  0.00  0.00    +0.107 C 
ATOM     13  N   UNL     1      -0.771  -0.098   2.353  0.00  0.00    -0.336 N 
ATOM     14  H   UNL     1      -1.274  -0.836   2.995  0.00  0.00    +0.147 HD
ENDROOT
BRANCH  12  15
ATOM     15  C   UNL     1       1.613  -0.040   1.890  0.00  0.00    -0.002 A 
ATOM     16  C   UNL     1       1.846   1.050   2.638  0.00  0.00    +0.089 A 
ATOM     17  N   UNL     1       3.188   1.176   2.873  0.00  0.00    -0.360 N 
ATOM     18  H   UNL     1       3.565   2.018   3.473  0.00  0.00    +0.165 HD
ATOM     19  C   UNL     1       3.869   0.145   2.266  0.00  0.00    +0.047 A 
ATOM     20  C   UNL     1       2.912  -0.666   1.628  0.00  0.00    +0.005 A 
ATOM     21  C   UNL     1       3.318  -1.803   0.928  0.00  0.00    +0.010 A 
ATOM     22  C   UNL     1       4.644  -2.126   0.869  0.00  0.00    +0.001 A 
ATOM     23  C   UNL     1       5.592  -1.332   1.499  0.00  0.00    +0.002 A 
ATOM     24  C   UNL     1       5.214  -0.200   2.189  0.00  0.00    +0.026 A 
ENDBRANCH  12  15
BRANCH   1  25
ATOM     25  S   UNL     1      -2.163   5.653   2.608  0.00  0.00    +0.061 S 
ATOM     26  O   UNL     1      -2.243   6.113   1.266  0.00  0.00    -0.153 OA
ATOM     27  O   UNL     1      -3.247   5.768   3.519  0.00  0.00    -0.153 OA
BRANCH  25  32
ATOM     28  C   UNL     1       2.953   6.490   5.014  0.00  0.00    -0.096 C 
ATOM     29  N   UNL     1       1.625   6.802   4.470  0.00  0.00    +0.380 N 
ATOM     30  C   UNL     1       1.547   6.462   3.043  0.00  0.00    -0.062 C 
ATOM     31  C   UNL     1       0.217   6.967   2.473  0.00  0.00    +0.091 C 
ATOM     32  N   UNL     1      -0.878   6.436   3.300  0.00  0.00    -0.180 NA
ATOM     33  C   UNL     1      -0.804   6.623   4.757  0.00  0.00    +0.091 C 
ATOM     34  C   UNL     1       0.569   6.127   5.237  0.00  0.00    -0.062 C 
ATOM     35  H   UNL     1       1.465   7.887   4.565  0.00  0.00    -0.082 HD
ENDBRANCH  25  32
ENDBRANCH   1  25
TORSDOF 3
