REMARK  Name = ZINC57316321
REMARK  12 active torsions:
REMARK  status: ('A' for Active; 'I' for Inactive)
REMARK    1  A    between atoms: C_1  and  O_2
REMARK    2  A    between atoms: O_2  and  C_3
REMARK    3  A    between atoms: C_5  and  C_13
REMARK    4  A    between atoms: C_7  and  O_11
REMARK    5  A    between atoms: C_8  and  O_9
REMARK    6  A    between atoms: O_9  and  C_10
REMARK    7  A    between atoms: O_11  and  C_12
REMARK    8  A    between atoms: N_15  and  C_16
REMARK    9  A    between atoms: C_16  and  N_18
REMARK   10  A    between atoms: N_18  and  C_19
REMARK   11  A    between atoms: C_19  and  C_20
REMARK   12  A    between atoms: C_23  and  C_25
REMARK                            x       y       z     vdW  Elec       q    Type
REMARK                         _______ _______ _______ _____ _____    ______ ____
ROOT
ATOM      1  C   UNL     1      -7.188   0.319   0.056  0.00  0.00    +0.137 C 
ATOM      2  S   UNL     1      -7.124   2.030   0.058  0.00  0.00    -0.018 S 
ENDROOT
BRANCH   1   5
ATOM      3  C   UNL     1      -4.855   0.232   0.038  0.00  0.00    +0.250 C 
ATOM      4  O   UNL     1      -4.810   1.447   0.040  0.00  0.00    -0.270 OA
ATOM      5  N   UNL     1      -6.047  -0.398   0.046  0.00  0.00    -0.264 N 
ATOM      6  H   UNL     1      -6.083  -1.367   0.045  0.00  0.00    +0.157 HD
BRANCH   3   9
ATOM      7  C   UNL     1      -1.201  -0.638   0.010  0.00  0.00    +0.166 A 
ATOM      8  C   UNL     1      -2.370   0.100   0.019  0.00  0.00    +0.062 A 
ATOM      9  C   UNL     1      -3.606  -0.552   0.028  0.00  0.00    +0.044 A 
ATOM     10  C   UNL     1      -3.657  -1.949   0.027  0.00  0.00    +0.062 A 
ATOM     11  C   UNL     1      -2.485  -2.682   0.017  0.00  0.00    +0.166 A 
ATOM     12  C   UNL     1      -1.254  -2.029   0.003  0.00  0.00    +0.204 A 
BRANCH   7  14
ATOM     13  C   UNL     1      -0.017   1.425   0.010  0.00  0.00    +0.277 C 
ATOM     14  O   UNL     1       0.002  -0.004   0.002  0.00  0.00    -0.491 OA
ENDBRANCH   7  14
BRANCH  12  15
ATOM     15  O   UNL     1      -0.104  -2.752  -0.012  0.00  0.00    -0.488 OA
ATOM     16  C   UNL     1       0.458  -3.104   1.254  0.00  0.00    +0.277 C 
ENDBRANCH  12  15
BRANCH  11  17
ATOM     17  O   UNL     1      -2.533  -4.041   0.016  0.00  0.00    -0.491 OA
ATOM     18  C   UNL     1      -3.829  -4.644   0.026  0.00  0.00    +0.277 C 
ENDBRANCH  11  17
ENDBRANCH   3   9
ENDBRANCH   1   5
BRANCH   1  19
ATOM     19  N   UNL     1      -8.380  -0.311   0.064  0.00  0.00    -0.319 N 
ATOM     20  H   UNL     1      -8.416  -1.280   0.063  0.00  0.00    +0.148 HD
BRANCH  19  21
ATOM     21  C   UNL     1      -9.620   0.468   0.074  0.00  0.00    +0.177 C 
BRANCH  21  22
ATOM     22  C   UNL     1     -10.801  -0.468   0.082  0.00  0.00    +0.123 A 
ATOM     23  C   UNL     1     -11.412  -0.953   1.181  0.00  0.00    +0.047 A 
ATOM     24  C   UNL     1     -12.460  -1.784   0.737  0.00  0.00    +0.050 A 
ATOM     25  C   UNL     1     -12.431  -1.759  -0.622  0.00  0.00    +0.135 A 
ATOM     26  O   UNL     1     -11.423  -0.952  -1.005  0.00  0.00    -0.458 OA
BRANCH  25  27
ATOM     27  C   UNL     1     -13.350  -2.486  -1.523  0.00  0.00    +0.017 A 
ATOM     28  C   UNL     1     -14.366  -3.284  -0.992  0.00  0.00    +0.012 A 
ATOM     29  C   UNL     1     -15.220  -3.960  -1.838  0.00  0.00    +0.016 A 
ATOM     30  C   UNL     1     -15.072  -3.849  -3.210  0.00  0.00    +0.018 A 
ATOM     31  C   UNL     1     -14.067  -3.060  -3.742  0.00  0.00    +0.016 A 
ATOM     32  C   UNL     1     -13.210  -2.373  -2.907  0.00  0.00    +0.012 A 
ATOM     33 BR   UNL     1     -16.247  -4.781  -4.362  0.00  0.00    -0.050 Br
ENDBRANCH  25  27
ENDBRANCH  21  22
ENDBRANCH  19  21
ENDBRANCH   1  19
TORSDOF 9
