REMARK  Name = ZINC66109719
REMARK  13 active torsions:
REMARK  status: ('A' for Active; 'I' for Inactive)
REMARK    1  A    between atoms: C_1  and  C_2
REMARK    2  A    between atoms: C_2  and  N_3
REMARK    3  A    between atoms: N_3  and  C_4
REMARK    4  A    between atoms: C_10  and  C_12
REMARK    5  A    between atoms: C_15  and  N_18
REMARK    6  A    between atoms: C_19  and  C_21
REMARK    7  A    between atoms: C_21  and  N_22
REMARK    8  A    between atoms: N_22  and  C_23
REMARK    9  A    between atoms: C_23  and  C_24
REMARK   10  A    between atoms: C_27  and  O_30
REMARK   11  A    between atoms: O_30  and  C_31
REMARK   12  A    between atoms: C_31  and  C_32
REMARK   13  A    between atoms: C_31  and  C_33
REMARK                            x       y       z     vdW  Elec       q    Type
REMARK                         _______ _______ _______ _____ _____    ______ ____
ROOT
ATOM      1  N   UNL     1      -4.695  -0.802  -4.106  0.00  0.00    -0.287 N 
ATOM      2  C   UNL     1      -5.651  -0.978  -5.039  0.00  0.00    +0.200 C 
ATOM      3  O   UNL     1      -5.454  -1.720  -5.977  0.00  0.00    -0.278 OA
ATOM      4  H   UNL     1      -4.878  -0.264  -3.319  0.00  0.00    +0.155 HD
ENDROOT
BRANCH   1   8
ATOM      5  C   UNL     1      -0.954  -2.566  -4.598  0.00  0.00    +0.037 A 
ATOM      6  C   UNL     1      -1.675  -2.132  -5.713  0.00  0.00    +0.015 A 
ATOM      7  C   UNL     1      -2.912  -1.549  -5.547  0.00  0.00    +0.024 A 
ATOM      8  C   UNL     1      -3.443  -1.393  -4.270  0.00  0.00    +0.033 A 
ATOM      9  C   UNL     1      -2.727  -1.825  -3.158  0.00  0.00    +0.024 A 
ATOM     10  C   UNL     1      -1.493  -2.413  -3.317  0.00  0.00    +0.015 A 
BRANCH   5  12
ATOM     11  N   UNL     1       1.145  -2.850  -5.822  0.00  0.00    -0.268 N 
ATOM     12  C   UNL     1       0.371  -3.192  -4.772  0.00  0.00    +0.251 C 
ATOM     13  O   UNL     1       0.765  -4.015  -3.968  0.00  0.00    -0.270 OA
BRANCH  11  14
ATOM     14  C   UNL     1       2.357  -3.513  -6.042  0.00  0.00    +0.037 A 
ATOM     15  C   UNL     1       3.236  -3.050  -7.012  0.00  0.00    +0.023 A 
ATOM     16  C   UNL     1       4.433  -3.706  -7.226  0.00  0.00    +0.002 A 
ATOM     17  C   UNL     1       4.755  -4.822  -6.477  0.00  0.00    +0.000 A 
ATOM     18  C   UNL     1       3.881  -5.286  -5.510  0.00  0.00    +0.002 A 
ATOM     19  C   UNL     1       2.686  -4.631  -5.286  0.00  0.00    +0.023 A 
ENDBRANCH  11  14
BRANCH  11  21
ATOM     20  C   UNL     1       0.366  -2.390  -8.094  0.00  0.00    +0.025 C 
ATOM     21  C   UNL     1       0.716  -1.786  -6.732  0.00  0.00    +0.110 C 
ENDBRANCH  11  21
ENDBRANCH   5  12
ENDBRANCH   1   8
BRANCH   2  22
ATOM     22  C   UNL     1      -6.966  -0.252  -4.917  0.00  0.00    +0.016 C 
BRANCH  22  23
ATOM     23  N   UNL     1      -7.830  -0.609  -6.050  0.00  0.00    +0.387 N 
ATOM     24  H   UNL     1      -7.379  -0.346  -6.913  0.00  0.00    -0.085 HD
ATOM     25  H   UNL     1      -7.994  -1.605  -6.046  0.00  0.00    -0.085 HD
BRANCH  23  26
ATOM     26  C   UNL     1      -9.112   0.099  -5.931  0.00  0.00    -0.046 C 
BRANCH  26  27
ATOM     27  C   UNL     1      -9.998  -0.269  -7.093  0.00  0.00    -0.064 A 
ATOM     28  C   UNL     1      -9.953   0.475  -8.257  0.00  0.00    +0.005 A 
ATOM     29  C   UNL     1     -10.765   0.141  -9.324  0.00  0.00    +0.046 A 
ATOM     30  C   UNL     1     -11.626  -0.942  -9.226  0.00  0.00    +0.121 A 
ATOM     31  C   UNL     1     -11.669  -1.688  -8.056  0.00  0.00    +0.046 A 
ATOM     32  C   UNL     1     -10.851  -1.352  -6.995  0.00  0.00    +0.005 A 
BRANCH  30  33
ATOM     33  O   UNL     1     -12.426  -1.273 -10.274  0.00  0.00    -0.489 OA
BRANCH  33  34
ATOM     34  C   UNL     1     -12.356  -0.439 -11.432  0.00  0.00    +0.167 C 
ATOM     35  C   UNL     1     -11.181  -0.880 -12.308  0.00  0.00    +0.051 C 
ATOM     36  C   UNL     1     -13.658  -0.559 -12.226  0.00  0.00    +0.051 C 
ENDBRANCH  33  34
ENDBRANCH  30  33
ENDBRANCH  26  27
ENDBRANCH  23  26
ENDBRANCH  22  23
ENDBRANCH   2  22
TORSDOF 10
