REMARK  Name = ZINC02880205
REMARK  6 active torsions:
REMARK  status: ('A' for Active; 'I' for Inactive)
REMARK    1  A    between atoms: C_3  and  C_10
REMARK    2  A    between atoms: C_5  and  N_7
REMARK    3  A    between atoms: C_13  and  C_15
REMARK    4  A    between atoms: N_17  and  C_18
REMARK    5  A    between atoms: C_18  and  N_20
REMARK    6  A    between atoms: N_20  and  C_21
REMARK                            x       y       z     vdW  Elec       q    Type
REMARK                         _______ _______ _______ _____ _____    ______ ____
ROOT
ATOM      1  C   UNL     1       1.543   8.496  -0.441  0.00  0.00    +0.285 C 
ATOM      2  O   UNL     1       1.068   9.594  -0.667  0.00  0.00    -0.266 OA
ATOM      3  N   UNL     1       2.864   8.369  -0.207  0.00  0.00    -0.261 N 
ATOM      4  H   UNL     1       3.243   7.494  -0.026  0.00  0.00    +0.157 HD
ENDROOT
BRANCH   1   8
ATOM      5  C   UNL     1       0.012   5.228  -0.248  0.00  0.00    +0.136 A 
ATOM      6  C   UNL     1      -1.097   5.973  -0.531  0.00  0.00    +0.050 A 
ATOM      7  C   UNL     1      -0.681   7.303  -0.643  0.00  0.00    +0.055 A 
ATOM      8  C   UNL     1       0.679   7.315  -0.422  0.00  0.00    +0.190 A 
ATOM      9  O   UNL     1       1.075   6.047  -0.180  0.00  0.00    -0.450 OA
BRANCH   5  12
ATOM     10  C   UNL     1      -1.109   1.657   0.049  0.00  0.00    +0.003 A 
ATOM     11  C   UNL     1      -1.141   3.024  -0.137  0.00  0.00    +0.012 A 
ATOM     12  C   UNL     1       0.038   3.765  -0.045  0.00  0.00    +0.019 A 
ATOM     13  C   UNL     1       1.243   3.118   0.239  0.00  0.00    +0.044 A 
ATOM     14  C   UNL     1       1.260   1.752   0.428  0.00  0.00    +0.127 A 
ATOM     15  C   UNL     1       0.087   1.023   0.336  0.00  0.00    +0.033 A 
BRANCH  14  16
ATOM     16  N   UNL     1       2.535   1.064   0.731  0.00  0.00    +0.056 N 
ATOM     17  O   UNL     1       2.551  -0.142   0.898  0.00  0.00    -0.126 OA
ATOM     18  O   UNL     1       3.568   1.704   0.812  0.00  0.00    -0.126 OA
ENDBRANCH  14  16
ENDBRANCH   5  12
ENDBRANCH   1   8
BRANCH   3  19
ATOM     19  C   UNL     1       3.660   9.457  -0.224  0.00  0.00    +0.141 C 
ATOM     20  S   UNL     1       2.992  11.001  -0.542  0.00  0.00    -0.018 S 
BRANCH  19  21
ATOM     21  N   UNL     1       4.981   9.330   0.009  0.00  0.00    -0.294 N 
ATOM     22  H   UNL     1       5.349   8.466   0.252  0.00  0.00    +0.154 HD
BRANCH  21  23
ATOM     23  C   UNL     1       5.822  10.445  -0.097  0.00  0.00    +0.068 A 
ATOM     24  C   UNL     1       5.466  11.644   0.504  0.00  0.00    +0.027 A 
ATOM     25  C   UNL     1       6.297  12.742   0.398  0.00  0.00    +0.017 A 
ATOM     26  C   UNL     1       7.484  12.649  -0.306  0.00  0.00    +0.021 A 
ATOM     27  C   UNL     1       7.843  11.455  -0.907  0.00  0.00    +0.055 A 
ATOM     28  C   UNL     1       7.017  10.351  -0.800  0.00  0.00    +0.146 A 
ATOM     29  F   UNL     1       7.370   9.184  -1.383  0.00  0.00    -0.204 F 
ATOM     30 BR   UNL     1       8.618  14.155  -0.448  0.00  0.00    -0.050 Br
ENDBRANCH  21  23
ENDBRANCH  19  21
ENDBRANCH   3  19
TORSDOF 6
