REMARK  Name = ZINC12929084
REMARK  7 active torsions:
REMARK  status: ('A' for Active; 'I' for Inactive)
REMARK    1  A    between atoms: C_1  and  N_2
REMARK    2  A    between atoms: C_4  and  S_10
REMARK    3  A    between atoms: C_6  and  C_7
REMARK    4  A    between atoms: S_10  and  N_13
REMARK    5  A    between atoms: C_19  and  C_21
REMARK    6  A    between atoms: C_24  and  S_27
REMARK    7  A    between atoms: S_27  and  C_28
REMARK                            x       y       z     vdW  Elec       q    Type
REMARK                         _______ _______ _______ _____ _____    ______ ____
ROOT
ATOM      1  N   UNL     1       0.226   3.565   1.793  0.00  0.00    -0.174 NA
ATOM      2  C   UNL     1       1.480   2.852   1.512  0.00  0.00    +0.128 C 
ATOM      3  C   UNL     1       1.338   2.119   0.173  0.00  0.00    +0.125 C 
ATOM      4  N   UNL     1       0.079   1.360   0.183  0.00  0.00    -0.295 N 
ATOM      5  C   UNL     1      -1.176   2.075   0.458  0.00  0.00    +0.125 C 
ATOM      6  C   UNL     1      -1.033   2.807   1.803  0.00  0.00    +0.128 C 
ATOM      7  C   UNL     1       0.075   0.035  -0.060  0.00  0.00    +0.247 C 
ATOM      8  O   UNL     1       1.107  -0.530  -0.367  0.00  0.00    -0.270 OA
ENDROOT
BRANCH   7   9
ATOM      9  C   UNL     1      -1.181  -0.730   0.046  0.00  0.00    +0.037 A 
ATOM     10  C   UNL     1      -1.203  -1.951   0.728  0.00  0.00    +0.014 A 
ATOM     11  C   UNL     1      -2.373  -2.657   0.829  0.00  0.00    +0.016 A 
ATOM     12  C   UNL     1      -3.538  -2.166   0.244  0.00  0.00    +0.016 A 
ATOM     13  C   UNL     1      -3.519  -0.953  -0.440  0.00  0.00    +0.016 A 
ATOM     14  C   UNL     1      -2.352  -0.239  -0.540  0.00  0.00    +0.014 A 
BRANCH  12  15
ATOM     15  S   UNL     1      -5.039  -3.079   0.371  0.00  0.00    -0.016 S 
BRANCH  15  16
ATOM     16  C   UNL     1      -4.578  -4.550   1.329  0.00  0.00    +0.448 C 
ATOM     17  F   UNL     1      -4.092  -4.158   2.580  0.00  0.00    -0.160 F 
ATOM     18  F   UNL     1      -5.702  -5.366   1.499  0.00  0.00    -0.160 F 
ATOM     19  F   UNL     1      -3.586  -5.259   0.644  0.00  0.00    -0.160 F 
ENDBRANCH  15  16
ENDBRANCH  12  15
ENDBRANCH   7   9
BRANCH   1  20
ATOM     20  S   UNL     1       0.231   5.194   2.092  0.00  0.00    +0.062 S 
ATOM     21  O   UNL     1      -0.941   5.472   2.846  0.00  0.00    -0.153 OA
ATOM     22  O   UNL     1       1.533   5.516   2.560  0.00  0.00    -0.153 OA
BRANCH  20  26
ATOM     23  C   UNL     1      -1.889   7.488  -2.146  0.00  0.00    +0.149 C 
ATOM     24  N   UNL     1      -0.882   6.964  -1.220  0.00  0.00    -0.344 N 
ATOM     25  C   UNL     1      -1.138   6.358  -0.035  0.00  0.00    +0.114 A 
ATOM     26  C   UNL     1       0.037   6.008   0.541  0.00  0.00    +0.124 A 
ATOM     27  C   UNL     1       1.069   6.415  -0.310  0.00  0.00    +0.061 A 
ATOM     28  C   UNL     1       0.481   7.004  -1.408  0.00  0.00    +0.106 A 
BRANCH  28  29
ATOM     29  C   UNL     1       1.179   7.577  -2.564  0.00  0.00    +0.258 C 
ATOM     30  O   UNL     1       0.544   7.989  -3.516  0.00  0.00    -0.269 OA
ATOM     31  N   UNL     1       2.525   7.647  -2.571  0.00  0.00    -0.324 N 
ATOM     32  H   UNL     1       3.035   7.253  -1.845  0.00  0.00    +0.145 HD
ATOM     33  H   UNL     1       2.984   8.090  -3.301  0.00  0.00    +0.145 HD
ENDBRANCH  28  29
ENDBRANCH  20  26
ENDBRANCH   1  20
TORSDOF 6
