REMARK  Name = ZINC61373365
REMARK  3 active torsions:
REMARK  status: ('A' for Active; 'I' for Inactive)
REMARK    1  A    between atoms: C_3  and  S_8
REMARK    2  A    between atoms: S_8  and  N_11
REMARK    3  A    between atoms: N_11  and  C_12
REMARK                            x       y       z     vdW  Elec       q    Type
REMARK                         _______ _______ _______ _____ _____    ______ ____
ROOT
ATOM      1  S   UNL     1       4.567   2.362  -0.220  0.00  0.00    +0.062 S 
ATOM      2  O   UNL     1       4.161   3.720  -0.129  0.00  0.00    -0.153 OA
ATOM      3  O   UNL     1       3.833   1.395  -0.959  0.00  0.00    -0.153 OA
ENDROOT
BRANCH   1   6
ATOM      4  C   UNL     1       7.825   1.586  -2.439  0.00  0.00    +0.022 A 
ATOM      5  C   UNL     1       6.527   1.548  -1.948  0.00  0.00    +0.033 A 
ATOM      6  C   UNL     1       6.200   2.368  -0.883  0.00  0.00    +0.145 A 
ATOM      7  C   UNL     1       7.177   3.197  -0.342  0.00  0.00    +0.143 A 
ATOM      8  N   UNL     1       8.405   3.204  -0.839  0.00  0.00    -0.239 NA
ATOM      9  C   UNL     1       8.745   2.433  -1.854  0.00  0.00    +0.113 A 
ATOM     10  N   UNL     1       6.862   4.026   0.728  0.00  0.00    -0.342 N 
ATOM     11  H   UNL     1       5.991   3.964   1.149  0.00  0.00    +0.144 HD
ATOM     12  H   UNL     1       7.514   4.666   1.054  0.00  0.00    +0.144 HD
ENDBRANCH   1   6
BRANCH   1  13
ATOM     13  N   UNL     1       4.671   1.793   1.332  0.00  0.00    -0.182 NA
ATOM     14  H   UNL     1       4.436   2.369   2.076  0.00  0.00    +0.149 HD
BRANCH  13  15
ATOM     15  C   UNL     1       5.117   0.420   1.581  0.00  0.00    +0.107 C 
ATOM     16  C   UNL     1       6.439   0.443   2.349  0.00  0.00    +0.025 C 
ATOM     17  C   UNL     1       6.822  -0.978   2.775  0.00  0.00    +0.007 C 
ATOM     18  C   UNL     1       5.854  -1.441   3.874  0.00  0.00    +0.043 C 
ATOM     19  C   UNL     1       4.460  -1.132   3.433  0.00  0.00    -0.005 A 
ATOM     20  C   UNL     1       4.072  -0.314   2.415  0.00  0.00    -0.019 A 
ATOM     21  C   UNL     1       2.700  -0.194   2.197  0.00  0.00    +0.013 A 
ATOM     22  C   UNL     1       1.828  -0.873   2.977  0.00  0.00    +0.046 A 
ATOM     23  S   UNL     1       2.931  -1.736   4.095  0.00  0.00    -0.101 S 
ENDBRANCH  13  15
ENDBRANCH   1  13
TORSDOF 3
