REMARK  Name = ZINC40303719
REMARK  5 active torsions:
REMARK  status: ('A' for Active; 'I' for Inactive)
REMARK    1  A    between atoms: C_1  and  C_2
REMARK    2  A    between atoms: C_2  and  C_4
REMARK    3  A    between atoms: C_2  and  N_10
REMARK    4  A    between atoms: C_11  and  C_13
REMARK    5  A    between atoms: C_15  and  N_21
REMARK                            x       y       z     vdW  Elec       q    Type
REMARK                         _______ _______ _______ _____ _____    ______ ____
ROOT
ATOM      1  N   UNL     1      -1.372  -0.511   0.012  0.00  0.00    -0.306 N 
ATOM      2  C   UNL     1      -2.051  -0.643  -1.145  0.00  0.00    +0.244 C 
ATOM      3  O   UNL     1      -1.522  -0.341  -2.197  0.00  0.00    -0.270 OA
ATOM      4  H   UNL     1      -1.794  -0.752   0.852  0.00  0.00    +0.149 HD
ENDROOT
BRANCH   2   5
ATOM      5  C   UNL     1      -3.438  -1.154  -1.134  0.00  0.00    +0.040 A 
ATOM      6  C   UNL     1      -4.140  -1.297  -2.332  0.00  0.00    +0.037 A 
ATOM      7  C   UNL     1      -5.439  -1.777  -2.315  0.00  0.00    +0.045 A 
ATOM      8  C   UNL     1      -6.041  -2.115  -1.107  0.00  0.00    +0.080 A 
ATOM      9  C   UNL     1      -5.344  -1.973   0.081  0.00  0.00    +0.062 A 
ATOM     10  C   UNL     1      -4.046  -1.502   0.073  0.00  0.00    +0.034 A 
ATOM     11 CL   UNL     1      -6.102  -2.397   1.585  0.00  0.00    -0.082 Cl
ATOM     12 CL   UNL     1      -7.670  -2.716  -1.089  0.00  0.00    -0.080 Cl
BRANCH   7  13
ATOM     13  N   UNL     1      -6.147  -1.921  -3.512  0.00  0.00    -0.357 N 
ATOM     14  H   UNL     1      -5.728  -1.685  -4.354  0.00  0.00    +0.142 HD
ATOM     15  H   UNL     1      -7.056  -2.257  -3.501  0.00  0.00    +0.142 HD
ENDBRANCH   7  13
ENDBRANCH   2   5
BRANCH   1  17
ATOM     16  C   UNL     1      -0.019   1.526   0.010  0.00  0.00    +0.030 C 
ATOM     17  C   UNL     1       0.002  -0.004   0.002  0.00  0.00    +0.099 C 
BRANCH  17  18
ATOM     18  C   UNL     1       0.742  -0.511   1.242  0.00  0.00    +0.138 C 
ATOM     19  C   UNL     1       0.764  -2.055   1.244  0.00  0.00    +0.035 C 
ATOM     20  C   UNL     1       0.543  -2.385   2.745  0.00  0.00    +0.031 C 
ATOM     21  C   UNL     1      -0.399  -1.230   3.166  0.00  0.00    +0.160 C 
ATOM     22  O   UNL     1       0.057  -0.084   2.425  0.00  0.00    -0.375 OA
ENDBRANCH  17  18
ENDBRANCH   1  17
TORSDOF 4
