REMARK  Name = ZINC09692227
REMARK  11 active torsions:
REMARK  status: ('A' for Active; 'I' for Inactive)
REMARK    1  A    between atoms: C_1  and  C_2
REMARK    2  A    between atoms: C_2  and  C_3
REMARK    3  A    between atoms: C_12  and  S_14
REMARK    4  A    between atoms: S_14  and  N_17
REMARK    5  A    between atoms: N_17  and  C_18
REMARK    6  A    between atoms: C_18  and  C_20
REMARK    7  A    between atoms: C_18  and  C_24
REMARK    8  A    between atoms: C_20  and  C_21
REMARK    9  A    between atoms: C_21  and  C_22
REMARK   10  A    between atoms: C_21  and  C_23
REMARK   11  A    between atoms: C_32  and  C_36
REMARK                            x       y       z     vdW  Elec       q    Type
REMARK                         _______ _______ _______ _____ _____    ______ ____
ROOT
ATOM      1  C   UNL     1       1.039   1.837   0.481  0.00  0.00    +0.163 C 
ENDROOT
BRANCH   1   2
ATOM      2  C   UNL     1      -0.312   1.454  -0.064  0.00  0.00    +0.237 C 
ATOM      3  O   UNL     1      -0.481   0.356  -0.551  0.00  0.00    -0.274 OA
ATOM      4  N   UNL     1      -1.333   2.334  -0.015  0.00  0.00    -0.263 N 
ATOM      5  C   UNL     1      -2.574   1.984  -0.521  0.00  0.00    +0.165 A 
ATOM      6  N   UNL     1      -2.947   0.857  -1.080  0.00  0.00    -0.225 NA
ATOM      7  C   UNL     1      -4.203   0.651  -1.533  0.00  0.00    +0.080 A 
ATOM      8  C   UNL     1      -4.730  -0.507  -2.150  0.00  0.00    +0.029 A 
ATOM      9  C   UNL     1      -6.039  -0.550  -2.554  0.00  0.00    +0.005 A 
ATOM     10  C   UNL     1      -6.889   0.531  -2.375  0.00  0.00    -0.049 A 
ATOM     11  C   UNL     1      -6.407   1.680  -1.775  0.00  0.00    +0.020 A 
ATOM     12  C   UNL     1      -5.098   1.733  -1.367  0.00  0.00    +0.041 A 
ATOM     13  S   UNL     1      -4.076   2.950  -0.572  0.00  0.00    -0.052 S 
ATOM     14  C   UNL     1      -8.324   0.455  -2.829  0.00  0.00    +0.044 C 
ATOM     15  H   UNL     1      -1.198   3.212   0.375  0.00  0.00    +0.157 HD
ENDBRANCH   1   2
BRANCH   1  16
ATOM     16  N   UNL     1       1.971   0.720   0.306  0.00  0.00    -0.178 NA
ATOM     17  H   UNL     1       2.016   0.017   0.972  0.00  0.00    +0.149 HD
BRANCH  16  18
ATOM     18  S   UNL     1       2.947   0.658  -1.031  0.00  0.00    +0.059 S 
ATOM     19  O   UNL     1       3.771  -0.489  -0.879  0.00  0.00    -0.153 OA
ATOM     20  O   UNL     1       2.103   0.846  -2.159  0.00  0.00    -0.153 OA
BRANCH  18  30
ATOM     21  C   UNL     1       6.593   6.512  -1.136  0.00  0.00    +0.220 C 
ATOM     22  O   UNL     1       5.600   6.875  -1.729  0.00  0.00    -0.275 OA
ATOM     23  N   UNL     1       6.685   5.244  -0.689  0.00  0.00    -0.271 N 
ATOM     24  C   UNL     1       7.831   4.690   0.038  0.00  0.00    +0.118 C 
ATOM     25  C   UNL     1       7.458   3.226   0.324  0.00  0.00    +0.056 C 
ATOM     26  C   UNL     1       6.083   3.058  -0.284  0.00  0.00    -0.023 A 
ATOM     27  C   UNL     1       5.701   4.263  -0.851  0.00  0.00    +0.040 A 
ATOM     28  C   UNL     1       4.457   4.354  -1.478  0.00  0.00    +0.026 A 
ATOM     29  C   UNL     1       3.626   3.255  -1.535  0.00  0.00    +0.030 A 
ATOM     30  C   UNL     1       4.014   2.058  -0.962  0.00  0.00    +0.106 A 
ATOM     31  C   UNL     1       5.245   1.961  -0.339  0.00  0.00    +0.034 A 
BRANCH  21  33
ATOM     32  C   UNL     1       7.369   8.838  -1.502  0.00  0.00    +0.013 C 
ATOM     33  C   UNL     1       7.725   7.478  -0.899  0.00  0.00    +0.093 C 
ENDBRANCH  21  33
ENDBRANCH  18  30
ENDBRANCH  16  18
ENDBRANCH   1  16
BRANCH   1  34
ATOM     34  C   UNL     1       0.914   2.167   1.970  0.00  0.00    +0.032 C 
BRANCH  34  35
ATOM     35  C   UNL     1       2.255   2.689   2.491  0.00  0.00    -0.015 C 
ATOM     36  C   UNL     1       2.568   4.034   1.834  0.00  0.00    +0.007 C 
ATOM     37  C   UNL     1       2.177   2.869   4.009  0.00  0.00    +0.007 C 
ENDBRANCH  34  35
ENDBRANCH   1  34
TORSDOF 7
