REMARK  Name = ZINC09236947
REMARK  4 active torsions:
REMARK  status: ('A' for Active; 'I' for Inactive)
REMARK    1  A    between atoms: C_4  and  C_7
REMARK    2  A    between atoms: C_13  and  C_28
REMARK    3  A    between atoms: C_15  and  C_18
REMARK    4  A    between atoms: N_20  and  C_21
REMARK                            x       y       z     vdW  Elec       q    Type
REMARK                         _______ _______ _______ _____ _____    ______ ____
ROOT
ATOM      1  C   UNL     1       3.679   2.158  -0.013  0.00  0.00    +0.182 A 
ATOM      2  N   UNL     1       4.875   1.684   0.259  0.00  0.00    -0.127 NA
ATOM      3  N   UNL     1       5.753   2.621   0.160  0.00  0.00    -0.121 NA
ATOM      4  C   UNL     1       5.167   3.742  -0.166  0.00  0.00    +0.210 A 
ATOM      5  N   UNL     1       3.829   3.494  -0.296  0.00  0.00    -0.221 N 
ATOM      6  N   UNL     1       2.861   4.382  -0.640  0.00  0.00    -0.272 N 
ATOM      7  C   UNL     1       3.228   5.777  -0.395  0.00  0.00    +0.140 C 
ATOM      8  C   UNL     1       4.486   6.149  -1.191  0.00  0.00    +0.166 C 
ATOM      9  S   UNL     1       5.906   5.327  -0.406  0.00  0.00    -0.069 S 
ATOM     10  H   UNL     1       2.571   4.247  -1.598  0.00  0.00    +0.167 HD
ENDROOT
BRANCH   1  14
ATOM     11  C   UNL     1       0.035  -0.025  -0.000  0.00  0.00    +0.000 A 
ATOM     12  C   UNL     1       0.009   1.358   0.004  0.00  0.00    +0.001 A 
ATOM     13  C   UNL     1       1.189   2.073  -0.000  0.00  0.00    +0.011 A 
ATOM     14  C   UNL     1       2.411   1.398  -0.008  0.00  0.00    +0.021 A 
ATOM     15  C   UNL     1       2.430   0.002  -0.012  0.00  0.00    +0.011 A 
ATOM     16  C   UNL     1       1.243  -0.701  -0.008  0.00  0.00    +0.001 A 
ENDBRANCH   1  14
BRANCH   7  17
ATOM     17  C   UNL     1       2.091   6.673  -0.813  0.00  0.00    -0.024 A 
ATOM     18  C   UNL     1       1.384   6.398  -1.969  0.00  0.00    +0.005 A 
ATOM     19  C   UNL     1       0.338   7.217  -2.350  0.00  0.00    +0.000 A 
ATOM     20  C   UNL     1       0.005   8.316  -1.581  0.00  0.00    +0.000 A 
ATOM     21  C   UNL     1       0.715   8.594  -0.428  0.00  0.00    +0.000 A 
ATOM     22  C   UNL     1       1.758   7.772  -0.044  0.00  0.00    +0.005 A 
ENDBRANCH   7  17
BRANCH   8  23
ATOM     23  C   UNL     1       4.682   7.643  -1.166  0.00  0.00    +0.233 C 
ATOM     24  O   UNL     1       4.384   8.277  -0.176  0.00  0.00    -0.274 OA
ATOM     25  N   UNL     1       5.189   8.274  -2.244  0.00  0.00    -0.285 N 
ATOM     26  H   UNL     1       5.490   7.760  -3.009  0.00  0.00    +0.155 HD
BRANCH  25  27
ATOM     27  C   UNL     1       5.282   9.670  -2.258  0.00  0.00    +0.033 A 
ATOM     28  C   UNL     1       5.090  10.368  -3.443  0.00  0.00    +0.024 A 
ATOM     29  C   UNL     1       5.176  11.746  -3.453  0.00  0.00    +0.017 A 
ATOM     30  C   UNL     1       5.463  12.431  -2.286  0.00  0.00    +0.018 A 
ATOM     31  C   UNL     1       5.661  11.738  -1.105  0.00  0.00    +0.017 A 
ATOM     32  C   UNL     1       5.570  10.360  -1.088  0.00  0.00    +0.024 A 
ATOM     33 BR   UNL     1       5.587  14.318  -2.305  0.00  0.00    -0.050 Br
ENDBRANCH  25  27
ENDBRANCH   8  23
TORSDOF 4
