REMARK  Name = ZINC58848166
REMARK  8 active torsions:
REMARK  status: ('A' for Active; 'I' for Inactive)
REMARK    1  A    between atoms: C_1  and  C_2
REMARK    2  A    between atoms: C_7  and  N_8
REMARK    3  A    between atoms: N_8  and  S_9
REMARK    4  A    between atoms: S_9  and  C_12
REMARK    5  A    between atoms: C_25  and  C_28
REMARK    6  A    between atoms: C_31  and  C_34
REMARK    7  A    between atoms: C_34  and  O_36
REMARK    8  A    between atoms: O_36  and  C_37
REMARK                            x       y       z     vdW  Elec       q    Type
REMARK                         _______ _______ _______ _____ _____    ______ ____
ROOT
ATOM      1  C   UNL     1       2.501  -0.640   3.443  0.00  0.00    +0.109 A 
ATOM      2  C   UNL     1       3.115  -1.709   2.816  0.00  0.00    +0.030 A 
ATOM      3  C   UNL     1       4.476  -1.680   2.590  0.00  0.00    +0.025 A 
ATOM      4  C   UNL     1       5.227  -0.580   2.989  0.00  0.00    +0.031 A 
ATOM      5  C   UNL     1       4.611   0.498   3.606  0.00  0.00    -0.018 A 
ATOM      6  C   UNL     1       3.242   0.457   3.831  0.00  0.00    +0.034 A 
ATOM      7  C   UNL     1       5.376   1.712   4.013  0.00  0.00    +0.049 C 
ATOM      8  C   UNL     1       5.621   1.757   5.499  0.00  0.00    -0.023 C 
ATOM      9  C   UNL     1       6.799   2.272   5.748  0.00  0.00    -0.030 C 
ATOM     10  C   UNL     1       7.512   2.638   4.465  0.00  0.00    +0.033 C 
ATOM     11  C   UNL     1       6.763   1.827   3.382  0.00  0.00    +0.029 C 
ATOM     12  C   UNL     1       7.469   0.498   3.213  0.00  0.00    +0.105 C 
ATOM     13  N   UNL     1       6.600  -0.573   2.772  0.00  0.00    -0.336 N 
ATOM     14  H   UNL     1       6.999  -1.335   2.322  0.00  0.00    +0.147 HD
ENDROOT
BRANCH  12  15
ATOM     15  C   UNL     1       8.107   0.125   4.527  0.00  0.00    -0.027 A 
ATOM     16  C   UNL     1       7.339  -0.441   5.529  0.00  0.00    +0.006 A 
ATOM     17  C   UNL     1       7.916  -0.785   6.734  0.00  0.00    +0.015 A 
ATOM     18  C   UNL     1       9.279  -0.561   6.940  0.00  0.00    +0.059 A 
ATOM     19  C   UNL     1      10.048   0.010   5.924  0.00  0.00    +0.015 A 
ATOM     20  C   UNL     1       9.459   0.344   4.723  0.00  0.00    +0.006 A 
BRANCH  18  21
ATOM     21  C   UNL     1       9.904  -0.927   8.228  0.00  0.00    +0.339 C 
ATOM     22  O   UNL     1       9.232  -1.423   9.110  0.00  0.00    -0.245 OA
BRANCH  21  23
ATOM     23  O   UNL     1      11.219  -0.710   8.424  0.00  0.00    -0.464 OA
ATOM     24  C   UNL     1      11.757  -1.087   9.693  0.00  0.00    +0.280 C 
ENDBRANCH  21  23
ENDBRANCH  18  21
ENDBRANCH  12  15
BRANCH   1  25
ATOM     25  S   UNL     1       0.764  -0.677   3.741  0.00  0.00    +0.072 S 
ATOM     26  O   UNL     1       0.520   0.208   4.826  0.00  0.00    -0.150 OA
ATOM     27  O   UNL     1       0.387  -2.046   3.776  0.00  0.00    -0.150 OA
BRANCH  25  28
ATOM     28  N   UNL     1       0.026  -0.016   2.415  0.00  0.00    -0.216 N 
ATOM     29  H   UNL     1      -0.521   0.780   2.511  0.00  0.00    +0.174 HD
BRANCH  28  36
ATOM     30  C   UNL     1       0.153   1.691   0.143  0.00  0.00    +0.046 C 
ATOM     31  C   UNL     1       0.258   0.193   0.022  0.00  0.00    -0.028 A 
ATOM     32  C   UNL     1       0.427  -0.390  -1.219  0.00  0.00    +0.006 A 
ATOM     33  C   UNL     1       0.523  -1.765  -1.331  0.00  0.00    +0.020 A 
ATOM     34  C   UNL     1       0.451  -2.562  -0.202  0.00  0.00    +0.043 A 
ATOM     35  C   UNL     1       0.281  -1.984   1.043  0.00  0.00    +0.044 A 
ATOM     36  C   UNL     1       0.190  -0.603   1.159  0.00  0.00    +0.052 A 
ATOM     37 CL   UNL     1       0.572  -4.287  -0.348  0.00  0.00    -0.083 Cl
ENDBRANCH  28  36
ENDBRANCH  25  28
ENDBRANCH   1  25
TORSDOF 6
