REMARK  Name = ZINC20503075
REMARK  8 active torsions:
REMARK  status: ('A' for Active; 'I' for Inactive)
REMARK    1  A    between atoms: C_4  and  N_7
REMARK    2  A    between atoms: C_8  and  S_12
REMARK    3  A    between atoms: S_12  and  C_13
REMARK    4  A    between atoms: C_13  and  C_14
REMARK    5  A    between atoms: C_19  and  N_21
REMARK    6  A    between atoms: N_24  and  C_25
REMARK    7  A    between atoms: C_28  and  O_31
REMARK    8  A    between atoms: O_31  and  C_32
REMARK                            x       y       z     vdW  Elec       q    Type
REMARK                         _______ _______ _______ _____ _____    ______ ____
ROOT
ATOM      1  C   UNL     1       3.158  -5.660   2.762  0.00  0.00    +0.061 A 
ATOM      2  C   UNL     1       3.447  -5.766   4.111  0.00  0.00    +0.096 A 
ATOM      3  C   UNL     1       2.699  -6.650   4.887  0.00  0.00    +0.275 A 
ATOM      4  O   UNL     1       2.950  -6.783   6.212  0.00  0.00    -0.266 OA
ATOM      5  N   UNL     1       1.736  -7.359   4.311  0.00  0.00    -0.172 NA
ATOM      6  C   UNL     1       1.486  -7.231   3.011  0.00  0.00    +0.257 A 
ATOM      7  N   UNL     1       2.182  -6.391   2.249  0.00  0.00    -0.215 NA
ENDROOT
BRANCH   6   8
ATOM      8  N   UNL     1       0.493  -7.971   2.449  0.00  0.00    -0.177 NA
ATOM      9  C   UNL     1      -0.226  -8.784   3.195  0.00  0.00    +0.203 C 
ATOM     10  N   UNL     1      -0.271  -8.608   4.553  0.00  0.00    -0.369 N 
ATOM     11  N   UNL     1      -0.928  -9.807   2.614  0.00  0.00    -0.326 N 
ATOM     12  H   UNL     1      -0.245  -7.713   4.926  0.00  0.00    +0.159 HD
ATOM     13  H   UNL     1      -1.377 -10.464   3.169  0.00  0.00    +0.169 HD
ATOM     14  H   UNL     1      -0.328  -9.377   5.140  0.00  0.00    +0.159 HD
BRANCH  11  15
ATOM     15  C   UNL     1      -0.999  -9.904   1.219  0.00  0.00    +0.042 A 
ATOM     16  C   UNL     1      -2.119 -10.461   0.617  0.00  0.00    +0.029 A 
ATOM     17  C   UNL     1      -2.188 -10.556  -0.759  0.00  0.00    +0.048 A 
ATOM     18  C   UNL     1      -1.138 -10.094  -1.540  0.00  0.00    +0.129 A 
ATOM     19  C   UNL     1      -0.018  -9.537  -0.939  0.00  0.00    +0.048 A 
ATOM     20  C   UNL     1       0.049  -9.437   0.436  0.00  0.00    +0.029 A 
BRANCH  18  21
ATOM     21  O   UNL     1      -1.206 -10.188  -2.895  0.00  0.00    -0.456 OA
BRANCH  21  22
ATOM     22  C   UNL     1      -2.365 -10.637  -3.445  0.00  0.00    +0.128 A 
ATOM     23  C   UNL     1      -3.458  -9.789  -3.551  0.00  0.00    +0.046 A 
ATOM     24  C   UNL     1      -4.635 -10.247  -4.112  0.00  0.00    +0.004 A 
ATOM     25  C   UNL     1      -4.724 -11.550  -4.566  0.00  0.00    +0.000 A 
ATOM     26  C   UNL     1      -3.636 -12.397  -4.462  0.00  0.00    +0.004 A 
ATOM     27  C   UNL     1      -2.455 -11.942  -3.908  0.00  0.00    +0.046 A 
ENDBRANCH  21  22
ENDBRANCH  18  21
ENDBRANCH  11  15
ENDBRANCH   6   8
BRANCH   1  28
ATOM     28  C   UNL     1       3.943  -4.716   1.888  0.00  0.00    +0.133 C 
BRANCH  28  29
ATOM     29  S   UNL     1       3.141  -3.089   1.882  0.00  0.00    -0.078 S 
BRANCH  29  31
ATOM     30  N   UNL     1       3.977  -0.808   0.508  0.00  0.00    -0.187 N 
ATOM     31  C   UNL     1       4.164  -2.113   0.830  0.00  0.00    +0.214 A 
ATOM     32  N   UNL     1       5.253  -2.512   0.210  0.00  0.00    -0.101 NA
ATOM     33  N   UNL     1       5.758  -1.550  -0.476  0.00  0.00    -0.022 NA
ATOM     34  N   UNL     1       5.041  -0.486  -0.352  0.00  0.00    -0.038 NA
BRANCH  30  38
ATOM     35  C   UNL     1       0.899   1.700   1.778  0.00  0.00    +0.000 A 
ATOM     36  C   UNL     1       2.169   2.211   1.582  0.00  0.00    +0.002 A 
ATOM     37  C   UNL     1       3.191   1.382   1.162  0.00  0.00    +0.028 A 
ATOM     38  C   UNL     1       2.942   0.035   0.935  0.00  0.00    +0.070 A 
ATOM     39  C   UNL     1       1.666  -0.475   1.133  0.00  0.00    +0.028 A 
ATOM     40  C   UNL     1       0.648   0.359   1.554  0.00  0.00    +0.002 A 
ENDBRANCH  30  38
ENDBRANCH  29  31
ENDBRANCH  28  29
ENDBRANCH   1  28
TORSDOF 8
