REMARK  Name = ZINC09404719
REMARK  9 active torsions:
REMARK  status: ('A' for Active; 'I' for Inactive)
REMARK    1  A    between atoms: C_1  and  N_2
REMARK    2  A    between atoms: N_2  and  C_3
REMARK    3  A    between atoms: N_2  and  S_4
REMARK    4  A    between atoms: S_4  and  C_7
REMARK    5  A    between atoms: C_10  and  C_13
REMARK    6  A    between atoms: N_15  and  C_16
REMARK    7  A    between atoms: C_16  and  N_18
REMARK    8  A    between atoms: N_18  and  C_19
REMARK    9  A    between atoms: C_23  and  C_25
REMARK                            x       y       z     vdW  Elec       q    Type
REMARK                         _______ _______ _______ _____ _____    ______ ____
ROOT
ATOM      1  C   UNL     1       2.421  -0.245   0.080  0.00  0.00    +0.141 C 
ATOM      2  S   UNL     1       0.952  -1.123   0.090  0.00  0.00    -0.018 S 
ENDROOT
BRANCH   1   5
ATOM      3  C   UNL     1       3.616  -2.242   0.262  0.00  0.00    +0.250 C 
ATOM      4  O   UNL     1       2.573  -2.865   0.269  0.00  0.00    -0.270 OA
ATOM      5  N   UNL     1       3.597  -0.897   0.168  0.00  0.00    -0.264 N 
ATOM      6  H   UNL     1       4.430  -0.400   0.162  0.00  0.00    +0.157 HD
BRANCH   3  10
ATOM      7  C   UNL     1       7.322  -4.299   0.537  0.00  0.00    +0.105 A 
ATOM      8  C   UNL     1       6.136  -5.012   0.545  0.00  0.00    +0.029 A 
ATOM      9  C   UNL     1       4.929  -4.350   0.456  0.00  0.00    +0.015 A 
ATOM     10  C   UNL     1       4.905  -2.958   0.358  0.00  0.00    +0.037 A 
ATOM     11  C   UNL     1       6.106  -2.245   0.345  0.00  0.00    +0.015 A 
ATOM     12  C   UNL     1       7.306  -2.919   0.440  0.00  0.00    +0.029 A 
BRANCH   7  13
ATOM     13  S   UNL     1       8.859  -5.153   0.651  0.00  0.00    +0.060 S 
ATOM     14  O   UNL     1       9.801  -4.225   1.172  0.00  0.00    -0.153 OA
ATOM     15  O   UNL     1       8.587  -6.397   1.281  0.00  0.00    -0.153 OA
BRANCH  13  17
ATOM     16  C   UNL     1      10.174  -4.548  -1.634  0.00  0.00    +0.131 C 
ATOM     17  N   UNL     1       9.342  -5.500  -0.895  0.00  0.00    -0.183 NA
ATOM     18  C   UNL     1       8.937  -6.761  -1.523  0.00  0.00    +0.131 C 
ENDBRANCH  13  17
ENDBRANCH   7  13
ENDBRANCH   3  10
ENDBRANCH   1   5
BRANCH   1  19
ATOM     19  N   UNL     1       2.403   1.100  -0.015  0.00  0.00    -0.297 N 
ATOM     20  H   UNL     1       3.235   1.593  -0.082  0.00  0.00    +0.154 HD
BRANCH  19  21
ATOM     21  C   UNL     1       1.182   1.784  -0.016  0.00  0.00    +0.033 A 
ATOM     22  C   UNL     1       1.020   2.918   0.771  0.00  0.00    +0.023 A 
ATOM     23  C   UNL     1      -0.185   3.594   0.777  0.00  0.00    +0.002 A 
ATOM     24  C   UNL     1      -1.232   3.154  -0.007  0.00  0.00    +0.010 A 
ATOM     25  C   UNL     1      -1.080   2.016  -0.801  0.00  0.00    +0.009 A 
ATOM     26  C   UNL     1       0.135   1.331  -0.803  0.00  0.00    +0.033 A 
BRANCH  25  27
ATOM     27  C   UNL     1      -2.202   1.540  -1.638  0.00  0.00    +0.109 A 
ATOM     28  N   UNL     1      -2.246   0.504  -2.447  0.00  0.00    -0.239 NA
ATOM     29  C   UNL     1      -3.348   0.181  -3.151  0.00  0.00    +0.079 A 
ATOM     30  C   UNL     1      -3.528  -0.901  -4.046  0.00  0.00    +0.029 A 
ATOM     31  C   UNL     1      -4.712  -1.085  -4.688  0.00  0.00    +0.002 A 
ATOM     32  C   UNL     1      -5.786  -0.226  -4.496  0.00  0.00    +0.001 A 
ATOM     33  C   UNL     1      -5.652   0.843  -3.631  0.00  0.00    +0.017 A 
ATOM     34  C   UNL     1      -4.460   1.038  -2.977  0.00  0.00    +0.040 A 
ATOM     35  S   UNL     1      -3.841   2.229  -1.814  0.00  0.00    -0.067 S 
ENDBRANCH  25  27
ENDBRANCH  19  21
ENDBRANCH   1  19
TORSDOF 7
