REMARK  Name = ZINC66789437
REMARK  5 active torsions:
REMARK  status: ('A' for Active; 'I' for Inactive)
REMARK    1  A    between atoms: C_3  and  N_24
REMARK    2  A    between atoms: C_6  and  N_7
REMARK    3  A    between atoms: C_8  and  C_10
REMARK    4  A    between atoms: N_15  and  C_19
REMARK    5  A    between atoms: C_25  and  C_27
REMARK                            x       y       z     vdW  Elec       q    Type
REMARK                         _______ _______ _______ _____ _____    ______ ____
ROOT
ATOM      1  N   UNL     1      -1.079  -0.545   0.085  0.00  0.00    -0.280 N 
ATOM      2  C   UNL     1      -1.031  -1.890   0.151  0.00  0.00    +0.250 C 
ATOM      3  O   UNL     1       0.038  -2.455   0.278  0.00  0.00    -0.270 OA
ATOM      4  H   UNL     1      -1.935  -0.090   0.062  0.00  0.00    +0.155 HD
ENDROOT
BRANCH   2   5
ATOM      5  C   UNL     1      -2.278  -2.677   0.068  0.00  0.00    +0.056 A 
ATOM      6  C   UNL     1      -2.239  -4.071   0.141  0.00  0.00    +0.027 A 
ATOM      7  C   UNL     1      -3.448  -4.764   0.058  0.00  0.00    +0.039 A 
ATOM      8  C   UNL     1      -3.814  -6.177   0.093  0.00  0.00    +0.144 A 
ATOM      9  N   UNL     1      -5.108  -6.251  -0.030  0.00  0.00    -0.177 NA
ATOM     10  N   UNL     1      -5.655  -4.970  -0.147  0.00  0.00    -0.243 N 
ATOM     11  C   UNL     1      -4.652  -4.043  -0.095  0.00  0.00    +0.158 A 
ATOM     12  N   UNL     1      -4.633  -2.716  -0.159  0.00  0.00    -0.235 NA
ATOM     13  C   UNL     1      -3.514  -2.035  -0.079  0.00  0.00    +0.126 A 
BRANCH  10  14
ATOM     14  C   UNL     1      -7.080  -4.668  -0.301  0.00  0.00    +0.109 C 
ATOM     15  C   UNL     1      -7.641  -5.387  -1.544  0.00  0.00    +0.027 C 
ATOM     16  C   UNL     1      -8.256  -6.693  -0.983  0.00  0.00    +0.002 C 
ATOM     17  C   UNL     1      -8.878  -6.229   0.358  0.00  0.00    +0.002 C 
ATOM     18  C   UNL     1      -7.866  -5.203   0.909  0.00  0.00    +0.027 C 
ENDBRANCH  10  14
ENDBRANCH   2   5
BRANCH   1  24
ATOM     19  C   UNL     1       1.232  -0.300  -0.610  0.00  0.00    +0.028 A 
ATOM     20  C   UNL     1       2.383   0.467  -0.619  0.00  0.00    +0.045 A 
ATOM     21  C   UNL     1       2.382   1.699   0.024  0.00  0.00    +0.125 A 
ATOM     22  N   UNL     1       1.297   2.140   0.640  0.00  0.00    -0.238 NA
ATOM     23  C   UNL     1       0.182   1.436   0.670  0.00  0.00    +0.136 A 
ATOM     24  C   UNL     1       0.109   0.197   0.050  0.00  0.00    +0.052 A 
BRANCH  21  25
ATOM     25  N   UNL     1       3.538   2.480   0.020  0.00  0.00    -0.270 N 
ATOM     26  C   UNL     1       3.517   3.719   0.550  0.00  0.00    +0.221 C 
ATOM     27  O   UNL     1       2.472   4.191   0.946  0.00  0.00    -0.275 OA
ATOM     28  H   UNL     1       4.358   2.131  -0.365  0.00  0.00    +0.156 HD
BRANCH  26  29
ATOM     29  C   UNL     1       4.791   4.518   0.651  0.00  0.00    +0.075 C 
ATOM     30  C   UNL     1       5.352   4.779   2.050  0.00  0.00    +0.013 C 
ATOM     31  C   UNL     1       4.700   5.917   1.263  0.00  0.00    +0.013 C 
ENDBRANCH  26  29
ENDBRANCH  21  25
ENDBRANCH   1  24
TORSDOF 5
