REMARK  Name = ZINC13175295
REMARK  10 active torsions:
REMARK  status: ('A' for Active; 'I' for Inactive)
REMARK    1  A    between atoms: C_1  and  C_2
REMARK    2  A    between atoms: C_12  and  C_14
REMARK    3  A    between atoms: C_14  and  S_15
REMARK    4  A    between atoms: S_15  and  C_16
REMARK    5  A    between atoms: C_17  and  C_38
REMARK    6  A    between atoms: C_18  and  C_30
REMARK    7  A    between atoms: C_23  and  C_27
REMARK    8  A    between atoms: C_23  and  C_28
REMARK    9  A    between atoms: C_33  and  O_36
REMARK   10  A    between atoms: O_36  and  C_37
REMARK                            x       y       z     vdW  Elec       q    Type
REMARK                         _______ _______ _______ _____ _____    ______ ____
ROOT
ATOM      1  C   UNL     1       1.595  -1.129   6.345  0.00  0.00    +0.112 C 
ATOM      2  C   UNL     1       1.323  -0.962   7.693  0.00  0.00    +0.073 C 
ATOM      3  C   UNL     1       2.275  -1.614   8.680  0.00  0.00    +0.097 C 
ATOM      4  C   UNL     1       3.431  -2.386   8.072  0.00  0.00    +0.029 C 
ATOM      5  C   UNL     1       4.321  -2.998   8.869  0.00  0.00    +0.162 C 
ATOM      6  C   UNL     1       5.481  -3.771   8.299  0.00  0.00    +0.086 C 
ATOM      7  C   UNL     1       5.086  -4.340   6.933  0.00  0.00    -0.023 C 
ATOM      8  C   UNL     1       4.662  -3.186   6.020  0.00  0.00    +0.062 C 
ATOM      9  C   UNL     1       3.526  -2.432   6.669  0.00  0.00    +0.050 C 
ATOM     10  N   UNL     1       2.641  -1.834   5.910  0.00  0.00    -0.244 NA
ATOM     11  C   UNL     1       3.920  -5.315   7.101  0.00  0.00    +0.011 C 
ATOM     12  C   UNL     1       6.282  -5.069   6.316  0.00  0.00    +0.011 C 
ATOM     13  O   UNL     1       4.174  -2.919  10.207  0.00  0.00    -0.292 OA
ENDROOT
BRANCH   3  14
ATOM     14  C   UNL     1       1.482  -2.563   9.542  0.00  0.00    -0.034 A 
ATOM     15  C   UNL     1       0.804  -3.619   8.963  0.00  0.00    +0.008 A 
ATOM     16  C   UNL     1       0.076  -4.489   9.751  0.00  0.00    +0.046 A 
ATOM     17  C   UNL     1       0.028  -4.303  11.125  0.00  0.00    +0.120 A 
ATOM     18  C   UNL     1       0.710  -3.243  11.704  0.00  0.00    +0.046 A 
ATOM     19  C   UNL     1       1.440  -2.378  10.912  0.00  0.00    +0.008 A 
BRANCH  17  20
ATOM     20  O   UNL     1      -0.688  -5.158  11.902  0.00  0.00    -0.495 OA
ATOM     21  C   UNL     1      -0.693  -4.906  13.309  0.00  0.00    +0.277 C 
ENDBRANCH  17  20
ENDBRANCH   3  14
BRANCH   2  22
ATOM     22  C   UNL     1       0.191  -0.206   8.137  0.00  0.00    +0.098 C 
ATOM     23  N   UNL     1      -0.707   0.394   8.489  0.00  0.00    -0.191 NA
ENDBRANCH   2  22
BRANCH   1  24
ATOM     24  S   UNL     1       0.516  -0.391   5.163  0.00  0.00    -0.096 S 
BRANCH  24  25
ATOM     25  C   UNL     1       1.231  -0.862   3.564  0.00  0.00    +0.172 C 
BRANCH  25  36
ATOM     26  C   UNL     1      -0.019   1.526   0.010  0.00  0.00    +0.029 C 
ATOM     27  C   UNL     1       0.002  -0.004   0.002  0.00  0.00    +0.083 C 
ATOM     28  C   UNL     1       0.778  -0.520  -1.221  0.00  0.00    +0.059 C 
ATOM     29  C   UNL     1       1.932  -1.304  -0.637  0.00  0.00    -0.024 A 
ATOM     30  C   UNL     1       2.960  -1.995  -1.249  0.00  0.00    +0.005 A 
ATOM     31  C   UNL     1       3.912  -2.643  -0.485  0.00  0.00    +0.000 A 
ATOM     32  C   UNL     1       3.833  -2.599   0.895  0.00  0.00    +0.002 A 
ATOM     33  C   UNL     1       2.809  -1.912   1.510  0.00  0.00    +0.024 A 
ATOM     34  C   UNL     1       1.844  -1.254   0.745  0.00  0.00    +0.040 A 
ATOM     35  N   UNL     1       0.735  -0.509   1.166  0.00  0.00    -0.267 N 
ATOM     36  C   UNL     1       0.393  -0.287   2.450  0.00  0.00    +0.230 C 
ATOM     37  O   UNL     1      -0.589   0.375   2.711  0.00  0.00    -0.274 OA
ENDBRANCH  25  36
ENDBRANCH  24  25
ENDBRANCH   1  24
TORSDOF 6
