REMARK  Name = ZINC03011834
REMARK  6 active torsions:
REMARK  status: ('A' for Active; 'I' for Inactive)
REMARK    1  A    between atoms: C_1  and  C_2
REMARK    2  A    between atoms: C_5  and  C_8
REMARK    3  A    between atoms: C_11  and  C_33
REMARK    4  A    between atoms: C_16  and  C_18
REMARK    5  A    between atoms: N_20  and  C_21
REMARK    6  A    between atoms: C_26  and  C_27
REMARK                            x       y       z     vdW  Elec       q    Type
REMARK                         _______ _______ _______ _____ _____    ______ ____
ROOT
ATOM      1  C   UNL     1       0.032  -4.291  -0.060  0.00  0.00    +0.104 C 
ATOM      2  C   UNL     1       1.462  -4.783   0.187  0.00  0.00    +0.063 C 
ATOM      3  C   UNL     1       1.506  -6.314   0.120  0.00  0.00    +0.215 C 
ATOM      4  N   UNL     1       0.445  -6.857   0.974  0.00  0.00    -0.238 N 
ATOM      5  C   UNL     1      -0.638  -6.135   1.388  0.00  0.00    +0.119 A 
ATOM      6  C   UNL     1      -1.406  -6.933   2.156  0.00  0.00    +0.078 A 
ATOM      7  C   UNL     1      -0.777  -8.197   2.220  0.00  0.00    +0.149 A 
ATOM      8  N   UNL     1       0.334  -8.140   1.507  0.00  0.00    -0.164 NA
ATOM      9  N   UNL     1      -0.837  -4.800   1.020  0.00  0.00    -0.322 N 
ATOM     10  H   UNL     1      -1.503  -4.241   1.450  0.00  0.00    +0.148 HD
ENDROOT
BRANCH   1  15
ATOM     11  C   UNL     1      -0.061   1.487  -0.061  0.00  0.00    +0.044 C 
ATOM     12  C   UNL     1      -0.037  -0.020  -0.060  0.00  0.00    -0.050 A 
ATOM     13  C   UNL     1      -0.036  -0.711  -1.258  0.00  0.00    +0.004 A 
ATOM     14  C   UNL     1      -0.013  -2.093  -1.257  0.00  0.00    +0.006 A 
ATOM     15  C   UNL     1       0.009  -2.784  -0.060  0.00  0.00    -0.027 A 
ATOM     16  C   UNL     1       0.009  -2.092   1.137  0.00  0.00    +0.006 A 
ATOM     17  C   UNL     1      -0.009  -0.710   1.137  0.00  0.00    +0.004 A 
ENDBRANCH   1  15
BRANCH   7  18
ATOM     18  C   UNL     1      -1.275  -9.376   2.957  0.00  0.00    +0.268 C 
ATOM     19  O   UNL     1      -2.316  -9.308   3.581  0.00  0.00    -0.268 OA
ATOM     20  N   UNL     1      -0.576 -10.528   2.936  0.00  0.00    -0.280 N 
ATOM     21  H   UNL     1       0.220 -10.603   2.386  0.00  0.00    +0.155 HD
BRANCH  20  22
ATOM     22  C   UNL     1      -0.997 -11.616   3.709  0.00  0.00    +0.045 A 
ATOM     23  C   UNL     1      -2.352 -11.848   3.903  0.00  0.00    +0.025 A 
ATOM     24  C   UNL     1      -2.765 -12.923   4.666  0.00  0.00    +0.022 A 
ATOM     25  C   UNL     1      -1.829 -13.767   5.238  0.00  0.00    +0.042 A 
ATOM     26  C   UNL     1      -0.478 -13.538   5.046  0.00  0.00    +0.034 A 
ATOM     27  C   UNL     1      -0.060 -12.468   4.279  0.00  0.00    +0.077 A 
ATOM     28 CL   UNL     1      -2.352 -15.116   6.198  0.00  0.00    -0.084 Cl
BRANCH  27  29
ATOM     29  C   UNL     1       1.411 -12.223   4.065  0.00  0.00    +0.419 C 
ATOM     30  F   UNL     1       2.150 -13.206   4.732  0.00  0.00    -0.166 F 
ATOM     31  F   UNL     1       1.698 -12.272   2.697  0.00  0.00    -0.166 F 
ATOM     32  F   UNL     1       1.752 -10.963   4.568  0.00  0.00    -0.166 F 
ENDBRANCH  27  29
ENDBRANCH  20  22
ENDBRANCH   7  18
BRANCH   3  33
ATOM     33  C   UNL     1       2.867  -6.810   0.612  0.00  0.00    +0.412 C 
ATOM     34  F   UNL     1       3.064  -6.396   1.934  0.00  0.00    -0.168 F 
ATOM     35  F   UNL     1       2.905  -8.207   0.551  0.00  0.00    -0.168 F 
ATOM     36  F   UNL     1       3.877  -6.280  -0.198  0.00  0.00    -0.168 F 
ENDBRANCH   3  33
TORSDOF 5
