REMARK  Name = ZINC20569457
REMARK  7 active torsions:
REMARK  status: ('A' for Active; 'I' for Inactive)
REMARK    1  A    between atoms: C_1  and  C_2
REMARK    2  A    between atoms: C_5  and  C_27
REMARK    3  A    between atoms: C_10  and  C_12
REMARK    4  A    between atoms: C_12  and  O_14
REMARK    5  A    between atoms: O_14  and  C_15
REMARK    6  A    between atoms: C_15  and  C_16
REMARK    7  A    between atoms: N_18  and  C_19
REMARK                            x       y       z     vdW  Elec       q    Type
REMARK                         _______ _______ _______ _____ _____    ______ ____
ROOT
ATOM      1  C   UNL     1       1.353  -2.547   2.575  0.00  0.00    +0.028 C 
ATOM      2  C   UNL     1       0.553  -2.029   1.378  0.00  0.00    +0.071 C 
ATOM      3  C   UNL     1       0.739  -0.513   1.251  0.00  0.00    +0.058 C 
ATOM      4  C   UNL     1      -0.001   0.002   0.011  0.00  0.00    +0.214 C 
ATOM      5  N   UNL     1      -1.373  -0.513   0.029  0.00  0.00    -0.238 N 
ATOM      6  C   UNL     1      -1.768  -1.592   0.768  0.00  0.00    +0.119 A 
ATOM      7  C   UNL     1      -3.084  -1.787   0.557  0.00  0.00    +0.079 A 
ATOM      8  C   UNL     1      -3.522  -0.794  -0.349  0.00  0.00    +0.171 A 
ATOM      9  N   UNL     1      -2.486  -0.034  -0.660  0.00  0.00    -0.162 NA
ATOM     10  N   UNL     1      -0.883  -2.311   1.577  0.00  0.00    -0.327 N 
ATOM     11  H   UNL     1      -1.199  -3.050   2.328  0.00  0.00    +0.148 HD
ENDROOT
BRANCH   4  12
ATOM     12  C   UNL     1      -0.027   1.532   0.029  0.00  0.00    +0.412 C 
ATOM     13  F   UNL     1       1.284   2.021   0.025  0.00  0.00    -0.168 F 
ATOM     14  F   UNL     1      -0.702   2.000  -1.104  0.00  0.00    -0.168 F 
ATOM     15  F   UNL     1      -0.686   1.974   1.181  0.00  0.00    -0.168 F 
ENDBRANCH   4  12
BRANCH   8  16
ATOM     16  C   UNL     1      -4.898  -0.635  -0.860  0.00  0.00    +0.360 C 
ATOM     17  O   UNL     1      -5.772  -1.399  -0.502  0.00  0.00    -0.243 OA
BRANCH  16  18
ATOM     18  O   UNL     1      -5.185   0.359  -1.724  0.00  0.00    -0.451 OA
BRANCH  18  19
ATOM     19  C   UNL     1      -6.558   0.456  -2.185  0.00  0.00    +0.328 C 
BRANCH  19  20
ATOM     20  C   UNL     1      -6.688   1.617  -3.137  0.00  0.00    +0.255 C 
ATOM     21  O   UNL     1      -5.718   2.296  -3.401  0.00  0.00    -0.272 OA
ATOM     22  N   UNL     1      -7.881   1.901  -3.695  0.00  0.00    -0.283 N 
ATOM     23  H   UNL     1      -8.743   1.241  -3.516  0.00  0.00    +0.155 HD
BRANCH  22  24
ATOM     24  C   UNL     1      -8.024   3.035  -4.502  0.00  0.00    +0.034 A 
ATOM     25  C   UNL     1      -9.216   3.748  -4.495  0.00  0.00    +0.024 A 
ATOM     26  C   UNL     1      -9.351   4.871  -5.288  0.00  0.00    +0.016 A 
ATOM     27  C   UNL     1      -8.307   5.278  -6.098  0.00  0.00    +0.013 A 
ATOM     28  C   UNL     1      -7.121   4.565  -6.112  0.00  0.00    +0.016 A 
ATOM     29  C   UNL     1      -6.977   3.446  -5.316  0.00  0.00    +0.024 A 
ATOM     30  I   UNL     1      -8.520   6.976  -7.306  0.00  0.00    -0.044 I 
ENDBRANCH  22  24
ENDBRANCH  19  20
ENDBRANCH  18  19
ENDBRANCH  16  18
ENDBRANCH   8  16
TORSDOF 6
