REMARK  Name = ZINC20116205
REMARK  6 active torsions:
REMARK  status: ('A' for Active; 'I' for Inactive)
REMARK    1  A    between atoms: C_3  and  C_30
REMARK    2  A    between atoms: C_5  and  N_7
REMARK    3  A    between atoms: C_8  and  C_10
REMARK    4  A    between atoms: C_13  and  N_16
REMARK    5  A    between atoms: C_17  and  C_19
REMARK    6  A    between atoms: C_25  and  C_27
REMARK                            x       y       z     vdW  Elec       q    Type
REMARK                         _______ _______ _______ _____ _____    ______ ____
ROOT
ATOM      1  C   UNL     1       1.545  -6.816  -2.038  0.00  0.00    +0.037 A 
ATOM      2  C   UNL     1       2.156  -6.143  -3.100  0.00  0.00    +0.015 A 
ATOM      3  C   UNL     1       2.073  -4.771  -3.181  0.00  0.00    +0.024 A 
ATOM      4  C   UNL     1       1.383  -4.055  -2.208  0.00  0.00    +0.033 A 
ATOM      5  C   UNL     1       0.778  -4.722  -1.148  0.00  0.00    +0.024 A 
ATOM      6  C   UNL     1       0.852  -6.094  -1.063  0.00  0.00    +0.015 A 
ENDROOT
BRANCH   1   8
ATOM      7  N   UNL     1       1.041  -8.935  -0.924  0.00  0.00    -0.281 N 
ATOM      8  C   UNL     1       1.631  -8.287  -1.948  0.00  0.00    +0.248 C 
ATOM      9  O   UNL     1       2.234  -8.914  -2.797  0.00  0.00    -0.270 OA
ATOM     10  H   UNL     1       0.432  -8.377  -0.198  0.00  0.00    +0.155 HD
BRANCH   7  15
ATOM     11  C   UNL     1       1.441 -12.490  -1.769  0.00  0.00    +0.002 A 
ATOM     12  C   UNL     1       1.526 -13.051  -0.508  0.00  0.00    +0.012 A 
ATOM     13  C   UNL     1       1.451 -12.248   0.615  0.00  0.00    +0.057 A 
ATOM     14  C   UNL     1       1.290 -10.883   0.481  0.00  0.00    +0.035 A 
ATOM     15  C   UNL     1       1.204 -10.317  -0.784  0.00  0.00    +0.034 A 
ATOM     16  C   UNL     1       1.275 -11.127  -1.911  0.00  0.00    +0.023 A 
BRANCH  13  17
ATOM     17  C   UNL     1       1.544 -12.863   1.988  0.00  0.00    +0.417 C 
ATOM     18  F   UNL     1       0.263 -13.206   2.433  0.00  0.00    -0.166 F 
ATOM     19  F   UNL     1       2.341 -14.012   1.931  0.00  0.00    -0.166 F 
ATOM     20  F   UNL     1       2.115 -11.943   2.874  0.00  0.00    -0.166 F 
ENDBRANCH  13  17
ENDBRANCH   7  15
ENDBRANCH   1   8
BRANCH   4  21
ATOM     21  N   UNL     1       1.302  -2.666  -2.293  0.00  0.00    -0.285 N 
ATOM     22  C   UNL     1       0.197  -2.027  -1.860  0.00  0.00    +0.221 C 
ATOM     23  O   UNL     1      -0.763  -2.665  -1.482  0.00  0.00    -0.275 OA
ATOM     24  H   UNL     1       2.140  -2.091  -2.714  0.00  0.00    +0.155 HD
BRANCH  22  25
ATOM     25  C   UNL     1       0.154  -0.521  -1.845  0.00  0.00    +0.089 C 
ATOM     26  C   UNL     1       1.267   0.012  -0.941  0.00  0.00    +0.013 C 
ATOM     27  C   UNL     1       1.223   1.541  -0.926  0.00  0.00    +0.001 C 
ATOM     28  C   UNL     1      -0.133   2.008  -0.394  0.00  0.00    +0.001 C 
ATOM     29  C   UNL     1      -1.246   1.474  -1.298  0.00  0.00    +0.015 C 
ATOM     30  C   UNL     1      -1.203  -0.055  -1.313  0.00  0.00    +0.114 C 
BRANCH  30  31
ATOM     31  C   UNL     1      -2.299  -0.580  -2.204  0.00  0.00    +0.360 C 
ATOM     32  O   UNL     1      -2.024  -1.257  -3.166  0.00  0.00    -0.246 OA
ATOM     33  O   UNL     1      -3.582  -0.295  -1.929  0.00  0.00    -0.246 OA
ENDBRANCH  30  31
ENDBRANCH  22  25
ENDBRANCH   4  21
TORSDOF 6
