REMARK  Name = ZINC15874291
REMARK  8 active torsions:
REMARK  status: ('A' for Active; 'I' for Inactive)
REMARK    1  A    between atoms: C_3  and  C_29
REMARK    2  A    between atoms: C_5  and  S_7
REMARK    3  A    between atoms: S_7  and  N_10
REMARK    4  A    between atoms: C_13  and  C_16
REMARK    5  A    between atoms: N_18  and  N_19
REMARK    6  A    between atoms: N_19  and  C_20
REMARK    7  A    between atoms: C_20  and  N_22
REMARK    8  A    between atoms: N_22  and  C_23
REMARK                            x       y       z     vdW  Elec       q    Type
REMARK                         _______ _______ _______ _____ _____    ______ ____
ROOT
ATOM      1  N   UNL     1      -3.146   0.590   1.602  0.00  0.00    -0.177 NA
ATOM      2  C   UNL     1      -2.691  -0.616   2.307  0.00  0.00    +0.110 C 
ATOM      3  C   UNL     1      -3.901  -1.325   2.912  0.00  0.00    +0.030 C 
ATOM      4  C   UNL     1      -4.681  -0.342   3.788  0.00  0.00    +0.079 C 
ATOM      5  C   UNL     1      -5.180   0.823   2.930  0.00  0.00    +0.030 C 
ATOM      6  C   UNL     1      -3.980   1.559   2.326  0.00  0.00    +0.110 C 
ENDROOT
BRANCH   4   7
ATOM      7  C   UNL     1      -5.858  -1.048   4.410  0.00  0.00    +0.232 C 
ATOM      8  O   UNL     1      -6.985  -0.658   4.190  0.00  0.00    -0.274 OA
ATOM      9  N   UNL     1      -5.658  -2.112   5.212  0.00  0.00    -0.235 N 
ATOM     10  H   UNL     1      -4.756  -2.424   5.389  0.00  0.00    +0.173 HD
BRANCH   9  11
ATOM     11  N   UNL     1      -6.752  -2.768   5.791  0.00  0.00    -0.246 N 
ATOM     12  H   UNL     1      -7.653  -2.457   5.615  0.00  0.00    +0.172 HD
BRANCH  11  13
ATOM     13  C   UNL     1      -6.552  -3.833   6.593  0.00  0.00    +0.147 C 
ATOM     14  S   UNL     1      -7.889  -4.635   7.301  0.00  0.00    -0.017 S 
BRANCH  13  15
ATOM     15  N   UNL     1      -5.300  -4.266   6.838  0.00  0.00    -0.323 N 
ATOM     16  H   UNL     1      -4.542  -3.812   6.438  0.00  0.00    +0.148 HD
BRANCH  15  17
ATOM     17  C   UNL     1      -5.082  -5.423   7.710  0.00  0.00    +0.072 C 
ATOM     18  C   UNL     1      -5.052  -4.964   9.169  0.00  0.00    +0.022 C 
ATOM     19  C   UNL     1      -4.825  -6.173  10.080  0.00  0.00    +0.002 C 
ATOM     20  C   UNL     1      -3.492  -6.835   9.726  0.00  0.00    +0.000 C 
ATOM     21  C   UNL     1      -3.522  -7.294   8.267  0.00  0.00    +0.002 C 
ATOM     22  C   UNL     1      -3.749  -6.086   7.356  0.00  0.00    +0.022 C 
ENDBRANCH  15  17
ENDBRANCH  13  15
ENDBRANCH  11  13
ENDBRANCH   9  11
ENDBRANCH   4   7
BRANCH   1  23
ATOM     23  S   UNL     1      -2.733   0.849   0.020  0.00  0.00    +0.061 S 
ATOM     24  O   UNL     1      -3.722   1.714  -0.522  0.00  0.00    -0.153 OA
ATOM     25  O   UNL     1      -2.447  -0.426  -0.540  0.00  0.00    -0.153 OA
BRANCH  23  30
ATOM     26  C   UNL     1       1.175   1.783   0.000  0.00  0.00    +0.002 A 
ATOM     27  C   UNL     1       1.156   3.166   0.008  0.00  0.00    +0.012 A 
ATOM     28  C   UNL     1      -0.050   3.840   0.022  0.00  0.00    +0.057 A 
ATOM     29  C   UNL     1      -1.238   3.133   0.030  0.00  0.00    +0.041 A 
ATOM     30  C   UNL     1      -1.219   1.751   0.017  0.00  0.00    +0.106 A 
ATOM     31  C   UNL     1      -0.013   1.076   0.008  0.00  0.00    +0.028 A 
BRANCH  28  32
ATOM     32  C   UNL     1      -0.070   5.347   0.030  0.00  0.00    +0.417 C 
ATOM     33  F   UNL     1       1.242   5.831   0.019  0.00  0.00    -0.166 F 
ATOM     34  F   UNL     1      -0.747   5.810  -1.104  0.00  0.00    -0.166 F 
ATOM     35  F   UNL     1      -0.725   5.799   1.180  0.00  0.00    -0.166 F 
ENDBRANCH  28  32
ENDBRANCH  23  30
ENDBRANCH   1  23
TORSDOF 8
