REMARK  Name = ZINC35136177
REMARK  13 active torsions:
REMARK  status: ('A' for Active; 'I' for Inactive)
REMARK    1  A    between atoms: C_1  and  C_2
REMARK    2  A    between atoms: C_2  and  C_3
REMARK    3  A    between atoms: C_3  and  N_4
REMARK    4  A    between atoms: N_4  and  C_5
REMARK    5  A    between atoms: C_5  and  C_6
REMARK    6  A    between atoms: N_8  and  C_9
REMARK    7  A    between atoms: C_11  and  C_21
REMARK    8  A    between atoms: N_13  and  C_14
REMARK    9  A    between atoms: C_17  and  C_20
REMARK   10  A    between atoms: C_21  and  C_22
REMARK   11  A    between atoms: C_21  and  C_23
REMARK   12  A    between atoms: C_21  and  C_24
REMARK   13  A    between atoms: C_25  and  C_27
REMARK                            x       y       z     vdW  Elec       q    Type
REMARK                         _______ _______ _______ _____ _____    ______ ____
ROOT
ATOM      1  C   UNL     1      -1.481  -2.788   2.171  0.00  0.00    +0.236 C 
ATOM      2  O   UNL     1      -2.636  -2.551   1.890  0.00  0.00    -0.274 OA
ATOM      3  N   UNL     1      -1.176  -3.336   3.364  0.00  0.00    -0.269 N 
ATOM      4  H   UNL     1      -0.252  -3.526   3.589  0.00  0.00    +0.156 HD
ENDROOT
BRANCH   3   5
ATOM      5  C   UNL     1      -2.190  -3.631   4.275  0.00  0.00    +0.129 A 
ATOM      6  C   UNL     1      -3.523  -3.425   4.091  0.00  0.00    +0.069 A 
ATOM      7  C   UNL     1      -4.186  -3.857   5.243  0.00  0.00    +0.071 A 
ATOM      8  N   UNL     1      -3.296  -4.306   6.091  0.00  0.00    -0.169 NA
ATOM      9  N   UNL     1      -2.029  -4.183   5.508  0.00  0.00    -0.218 N 
BRANCH   9  10
ATOM     10  C   UNL     1      -0.811  -4.558   6.093  0.00  0.00    +0.067 A 
ATOM     11  C   UNL     1       0.212  -5.067   5.303  0.00  0.00    +0.028 A 
ATOM     12  C   UNL     1       1.411  -5.436   5.882  0.00  0.00    +0.005 A 
ATOM     13  C   UNL     1       1.592  -5.299   7.246  0.00  0.00    -0.050 A 
ATOM     14  C   UNL     1       0.575  -4.793   8.035  0.00  0.00    +0.005 A 
ATOM     15  C   UNL     1      -0.623  -4.417   7.461  0.00  0.00    +0.028 A 
ATOM     16  C   UNL     1       2.901  -5.702   7.874  0.00  0.00    +0.044 C 
ENDBRANCH   9  10
BRANCH   7  17
ATOM     17  C   UNL     1      -5.676  -3.813   5.470  0.00  0.00    +0.006 C 
ATOM     18  C   UNL     1      -6.348  -4.923   4.660  0.00  0.00    +0.017 C 
ATOM     19  C   UNL     1      -5.971  -4.016   6.958  0.00  0.00    +0.017 C 
ATOM     20  C   UNL     1      -6.219  -2.454   5.024  0.00  0.00    +0.017 C 
ENDBRANCH   7  17
ENDBRANCH   3   5
BRANCH   1  21
ATOM     21  C   UNL     1      -0.385  -2.469   1.187  0.00  0.00    +0.204 C 
BRANCH  21  22
ATOM     22  N   UNL     1      -0.970  -1.885  -0.023  0.00  0.00    -0.289 N 
ATOM     23  C   UNL     1      -1.206  -2.661  -1.099  0.00  0.00    +0.247 C 
ATOM     24  O   UNL     1      -1.620  -2.163  -2.128  0.00  0.00    -0.270 OA
BRANCH  23  25
ATOM     25  C   UNL     1      -0.963  -4.115  -1.028  0.00  0.00    +0.041 A 
ATOM     26  C   UNL     1      -1.458  -4.856   0.047  0.00  0.00    +0.017 A 
ATOM     27  C   UNL     1      -1.230  -6.214   0.111  0.00  0.00    +0.050 A 
ATOM     28  C   UNL     1      -0.509  -6.849  -0.891  0.00  0.00    +0.166 A 
ATOM     29  C   UNL     1      -0.012  -6.114  -1.968  0.00  0.00    +0.167 A 
ATOM     30  C   UNL     1      -0.242  -4.755  -2.040  0.00  0.00    +0.062 A 
ATOM     31  O   UNL     1       0.652  -6.964  -2.805  0.00  0.00    -0.453 OA
ATOM     32  C   UNL     1       0.907  -8.148  -2.026  0.00  0.00    +0.466 C 
ATOM     33  O   UNL     1      -0.156  -8.156  -1.056  0.00  0.00    -0.453 OA
ENDBRANCH  23  25
BRANCH  22  34
ATOM     34  C   UNL     1      -1.298  -0.458  -0.062  0.00  0.00    +0.108 C 
BRANCH  34  36
ATOM     35  C   UNL     1      -0.397   1.831  -0.499  0.00  0.00    +0.005 C 
ATOM     36  C   UNL     1      -0.054   0.341  -0.458  0.00  0.00    +0.016 C 
ENDBRANCH  34  36
ENDBRANCH  22  34
ENDBRANCH  21  22
ENDBRANCH   1  21
TORSDOF 8
