REMARK  Name = ZINC39346845
REMARK  5 active torsions:
REMARK  status: ('A' for Active; 'I' for Inactive)
REMARK    1  A    between atoms: C_1  and  C_2
REMARK    2  A    between atoms: N_4  and  C_5
REMARK    3  A    between atoms: C_8  and  N_11
REMARK    4  A    between atoms: C_12  and  C_14
REMARK    5  A    between atoms: C_16  and  C_24
REMARK                            x       y       z     vdW  Elec       q    Type
REMARK                         _______ _______ _______ _____ _____    ______ ____
ROOT
ATOM      1  N   UNL     1      -0.710  -6.244   0.177  0.00  0.00    -0.285 N 
ATOM      2  C   UNL     1      -1.810  -7.012   0.052  0.00  0.00    +0.221 C 
ATOM      3  O   UNL     1      -2.906  -6.497  -0.006  0.00  0.00    -0.275 OA
ATOM      4  H   UNL     1       0.160  -6.657   0.291  0.00  0.00    +0.155 HD
ENDROOT
BRANCH   2   5
ATOM      5  C   UNL     1      -1.678  -8.512  -0.017  0.00  0.00    +0.092 C 
ATOM      6  C   UNL     1      -0.820  -8.894  -1.225  0.00  0.00    +0.117 C 
ATOM      7  C   UNL     1      -1.636  -9.777  -2.171  0.00  0.00    +0.004 C 
ATOM      8  C   UNL     1      -2.074 -11.045  -1.435  0.00  0.00    +0.004 C 
ATOM      9  C   UNL     1      -2.931 -10.663  -0.226  0.00  0.00    +0.004 C 
ATOM     10  C   UNL     1      -3.066  -9.141  -0.157  0.00  0.00    +0.002 C 
ATOM     11  C   UNL     1      -3.730  -8.629  -1.437  0.00  0.00    +0.004 C 
ATOM     12  C   UNL     1      -2.873  -9.010  -2.645  0.00  0.00    +0.004 C 
BRANCH   6  13
ATOM     13  C   UNL     1       0.398  -9.649  -0.758  0.00  0.00    +0.360 C 
ATOM     14  O   UNL     1       0.564  -9.862   0.431  0.00  0.00    -0.246 OA
ATOM     15  O   UNL     1       1.216 -10.047  -1.569  0.00  0.00    -0.246 OA
ENDBRANCH   6  13
ENDBRANCH   2   5
BRANCH   1  19
ATOM     16  C   UNL     1      -1.047  -2.089   0.075  0.00  0.00    +0.033 A 
ATOM     17  C   UNL     1       0.068  -2.709  -0.474  0.00  0.00    +0.025 A 
ATOM     18  C   UNL     1       0.179  -4.084  -0.440  0.00  0.00    +0.025 A 
ATOM     19  C   UNL     1      -0.823  -4.848   0.143  0.00  0.00    +0.034 A 
ATOM     20  C   UNL     1      -1.938  -4.228   0.693  0.00  0.00    +0.025 A 
ATOM     21  C   UNL     1      -2.047  -2.853   0.664  0.00  0.00    +0.025 A 
BRANCH  16  25
ATOM     22  C   UNL     1      -1.766   1.468   1.080  0.00  0.00    +0.109 C 
ATOM     23  C   UNL     1      -1.737  -0.038   1.068  0.00  0.00    +0.214 C 
ATOM     24  O   UNL     1      -2.232  -0.662   1.983  0.00  0.00    -0.276 OA
ATOM     25  N   UNL     1      -1.161  -0.693   0.041  0.00  0.00    -0.286 N 
ATOM     26  H   UNL     1      -0.824  -0.198  -0.722  0.00  0.00    +0.155 HD
ENDBRANCH  16  25
ENDBRANCH   1  19
TORSDOF 4
