REMARK  Name = ZINC15932036
REMARK  7 active torsions:
REMARK  status: ('A' for Active; 'I' for Inactive)
REMARK    1  A    between atoms: C_1  and  C_2
REMARK    2  A    between atoms: C_9  and  S_12
REMARK    3  A    between atoms: S_12  and  C_13
REMARK    4  A    between atoms: C_13  and  C_14
REMARK    5  A    between atoms: N_16  and  C_17
REMARK    6  A    between atoms: C_21  and  N_23
REMARK    7  A    between atoms: C_24  and  C_26
REMARK                            x       y       z     vdW  Elec       q    Type
REMARK                         _______ _______ _______ _____ _____    ______ ____
ROOT
ATOM      1  C   UNL     1      -3.077   9.211  -1.940  0.00  0.00    +0.035 A 
ATOM      2  C   UNL     1      -2.493   9.955  -0.922  0.00  0.00    +0.023 A 
ATOM      3  C   UNL     1      -1.787   9.321   0.082  0.00  0.00    +0.004 A 
ATOM      4  C   UNL     1      -1.659   7.945   0.077  0.00  0.00    +0.023 A 
ATOM      5  C   UNL     1      -2.241   7.195  -0.938  0.00  0.00    +0.035 A 
ATOM      6  C   UNL     1      -2.946   7.830  -1.950  0.00  0.00    +0.046 A 
ENDROOT
BRANCH   1   9
ATOM      7  C   UNL     1      -3.393  11.063  -3.400  0.00  0.00    +0.227 C 
ATOM      8  O   UNL     1      -2.464  11.629  -2.864  0.00  0.00    -0.275 OA
ATOM      9  N   UNL     1      -3.793   9.855  -2.956  0.00  0.00    -0.285 N 
ATOM     10  H   UNL     1      -4.576   9.432  -3.340  0.00  0.00    +0.155 HD
BRANCH   7  11
ATOM     11  C   UNL     1      -4.099  11.709  -4.564  0.00  0.00    +0.173 C 
BRANCH  11  12
ATOM     12  S   UNL     1      -3.335  13.311  -4.919  0.00  0.00    -0.079 S 
BRANCH  12  21
ATOM     13  C   UNL     1      -8.383  14.208 -10.624  0.00  0.00    +0.044 C 
ATOM     14  C   UNL     1      -7.245  14.491  -9.677  0.00  0.00    -0.048 A 
ATOM     15  C   UNL     1      -6.532  15.675  -9.792  0.00  0.00    +0.005 A 
ATOM     16  C   UNL     1      -5.488  15.948  -8.933  0.00  0.00    +0.028 A 
ATOM     17  C   UNL     1      -5.147  15.034  -7.948  0.00  0.00    +0.067 A 
ATOM     18  C   UNL     1      -5.865  13.832  -7.828  0.00  0.00    +0.090 A 
ATOM     19  C   UNL     1      -6.920  13.571  -8.706  0.00  0.00    +0.033 A 
ATOM     20  N   UNL     1      -5.315  13.139  -6.797  0.00  0.00    -0.222 NA
ATOM     21  C   UNL     1      -4.328  13.829  -6.280  0.00  0.00    +0.168 A 
ATOM     22  N   UNL     1      -4.180  15.006  -6.957  0.00  0.00    -0.333 N 
ATOM     23  H   UNL     1      -3.500  15.716  -6.771  0.00  0.00    +0.168 HD
ENDBRANCH  12  21
ENDBRANCH  11  12
ENDBRANCH   7  11
ENDBRANCH   1   9
BRANCH   5  24
ATOM     24  N   UNL     1      -2.112   5.802  -0.942  0.00  0.00    -0.285 N 
ATOM     25  C   UNL     1      -2.099   5.123   0.223  0.00  0.00    +0.223 C 
ATOM     26  O   UNL     1      -2.115   5.725   1.276  0.00  0.00    -0.275 OA
ATOM     27  H   UNL     1      -2.032   5.325  -1.782  0.00  0.00    +0.155 HD
BRANCH  25  28
ATOM     28  C   UNL     1      -2.065   3.616   0.216  0.00  0.00    +0.048 C 
ATOM     29  C   UNL     1      -0.803   3.138  -0.505  0.00  0.00    +0.019 C 
ATOM     30  C   UNL     1      -0.768   1.609  -0.511  0.00  0.00    -0.009 C 
ATOM     31  C   UNL     1      -0.759   1.093   0.929  0.00  0.00    +0.007 C 
ATOM     32  C   UNL     1      -2.022   1.571   1.649  0.00  0.00    -0.009 C 
ATOM     33  C   UNL     1      -2.057   3.100   1.656  0.00  0.00    +0.019 C 
ATOM     34  C   UNL     1      -3.257   1.036   0.923  0.00  0.00    +0.007 C 
ATOM     35  C   UNL     1      -3.266   1.552  -0.517  0.00  0.00    -0.009 C 
ATOM     36  C   UNL     1      -2.003   1.074  -1.238  0.00  0.00    +0.007 C 
ATOM     37  C   UNL     1      -3.301   3.081  -0.510  0.00  0.00    +0.019 C 
ENDBRANCH  25  28
ENDBRANCH   5  24
TORSDOF 6
