REMARK  Name = ZINC18201161
REMARK  11 active torsions:
REMARK  status: ('A' for Active; 'I' for Inactive)
REMARK    1  A    between atoms: C_1  and  C_2
REMARK    2  A    between atoms: N_8  and  C_9
REMARK    3  A    between atoms: C_9  and  C_10
REMARK    4  A    between atoms: C_10  and  C_11
REMARK    5  A    between atoms: C_17  and  C_25
REMARK    6  A    between atoms: C_19  and  C_23
REMARK    7  A    between atoms: C_20  and  N_22
REMARK    8  A    between atoms: C_27  and  O_34
REMARK    9  A    between atoms: C_28  and  O_32
REMARK   10  A    between atoms: O_32  and  C_33
REMARK   11  A    between atoms: O_34  and  C_35
REMARK                            x       y       z     vdW  Elec       q    Type
REMARK                         _______ _______ _______ _____ _____    ______ ____
ROOT
ATOM      1  C   UNL     1      -0.013   1.086   0.008  0.00  0.00    +0.064 C 
ATOM      2  C   UNL     1      -0.718   1.572   1.248  0.00  0.00    +0.022 A 
ATOM      3  C   UNL     1      -2.052   1.781   1.216  0.00  0.00    +0.068 A 
ATOM      4  C   UNL     1      -2.718   2.230   2.376  0.00  0.00    +0.141 A 
ATOM      5  C   UNL     1      -1.984   2.459   3.521  0.00  0.00    +0.072 A 
ATOM      6  C   UNL     1      -0.602   2.234   3.505  0.00  0.00    +0.259 A 
ATOM      7  O   UNL     1       0.060   2.432   4.511  0.00  0.00    -0.267 OA
ATOM      8  N   UNL     1      -0.002   1.799   2.381  0.00  0.00    -0.312 N 
ATOM      9  C   UNL     1      -2.652   2.946   4.777  0.00  0.00    +0.103 C 
ATOM     10  C   UNL     1      -4.138   2.736   4.688  0.00  0.00    +0.098 C 
ATOM     11  C   UNL     1      -4.744   2.497   3.500  0.00  0.00    +0.199 C 
ATOM     12  O   UNL     1      -4.052   2.435   2.349  0.00  0.00    -0.441 OA
ENDROOT
BRANCH   9  13
ATOM     13  C   UNL     1      -2.365   4.414   4.960  0.00  0.00    -0.030 A 
ATOM     14  C   UNL     1      -1.704   4.851   6.092  0.00  0.00    +0.054 A 
ATOM     15  C   UNL     1      -1.438   6.201   6.262  0.00  0.00    +0.163 A 
ATOM     16  C   UNL     1      -1.839   7.113   5.290  0.00  0.00    +0.175 A 
ATOM     17  C   UNL     1      -2.501   6.668   4.157  0.00  0.00    +0.063 A 
ATOM     18  C   UNL     1      -2.758   5.319   3.992  0.00  0.00    +0.023 A 
ATOM     19 BR   UNL     1      -3.046   7.904   2.834  0.00  0.00    -0.046 Br
BRANCH  16  20
ATOM     20  O   UNL     1      -1.581   8.439   5.453  0.00  0.00    -0.490 OA
ATOM     21  C   UNL     1      -0.342   8.927   4.935  0.00  0.00    +0.277 C 
ENDBRANCH  16  20
BRANCH  15  22
ATOM     22  O   UNL     1      -0.789   6.633   7.376  0.00  0.00    -0.491 OA
ATOM     23  C   UNL     1      -0.408   5.640   8.331  0.00  0.00    +0.277 C 
ENDBRANCH  15  22
ENDBRANCH   9  13
BRANCH  11  24
ATOM     24  N   UNL     1      -6.103   2.313   3.471  0.00  0.00    -0.328 N 
ATOM     25  H   UNL     1      -6.551   2.141   2.628  0.00  0.00    +0.145 HD
ATOM     26  H   UNL     1      -6.617   2.355   4.293  0.00  0.00    +0.145 HD
ENDBRANCH  11  24
BRANCH  10  27
ATOM     27  C   UNL     1      -4.929   2.789   5.881  0.00  0.00    +0.101 C 
ATOM     28  N   UNL     1      -5.556   2.832   6.827  0.00  0.00    -0.191 NA
ENDBRANCH  10  27
BRANCH   8  29
ATOM     29  C   UNL     1       1.444   1.567   2.378  0.00  0.00    +0.131 C 
BRANCH  29  30
ATOM     30  C   UNL     1       2.166   2.851   1.966  0.00  0.00    +0.078 C 
BRANCH  30  31
ATOM     31  C   UNL     1       3.654   2.612   1.964  0.00  0.00    +0.061 A 
ATOM     32  C   UNL     1       4.487   2.822   0.927  0.00  0.00    +0.107 A 
ATOM     33  N   UNL     1       5.743   2.483   1.353  0.00  0.00    -0.351 N 
ATOM     34  H   UNL     1       6.585   2.532   0.816  0.00  0.00    +0.166 HD
ATOM     35  C   UNL     1       5.632   2.068   2.633  0.00  0.00    +0.196 A 
ATOM     36  N   UNL     1       4.379   2.148   2.992  0.00  0.00    -0.241 NA
ENDBRANCH  30  31
ENDBRANCH  29  30
ENDBRANCH   8  29
TORSDOF 8
