REMARK  Name = ZINC39243147
REMARK  10 active torsions:
REMARK  status: ('A' for Active; 'I' for Inactive)
REMARK    1  A    between atoms: C_1  and  C_2
REMARK    2  A    between atoms: C_8  and  C_11
REMARK    3  A    between atoms: C_11  and  C_12
REMARK    4  A    between atoms: C_12  and  N_13
REMARK    5  A    between atoms: C_14  and  C_16
REMARK    6  A    between atoms: C_24  and  C_31
REMARK    7  A    between atoms: C_26  and  C_27
REMARK    8  A    between atoms: C_34  and  C_37
REMARK    9  A    between atoms: C_37  and  C_38
REMARK   10  A    between atoms: C_37  and  C_39
REMARK                            x       y       z     vdW  Elec       q    Type
REMARK                         _______ _______ _______ _____ _____    ______ ____
ROOT
ATOM      1  C   UNL     1       4.537  -0.113  -7.462  0.00  0.00    +0.073 C 
ATOM      2  H   UNL     1       7.063  -1.554  -8.712  0.00  0.00    +0.170 HD
ATOM      3  C   UNL     1       5.145  -1.193  -7.995  0.00  0.00    +0.100 C 
ATOM      4  N   UNL     1       6.410  -0.901  -8.416  0.00  0.00    -0.269 N 
ATOM      5  N   UNL     1       6.623   0.470  -8.357  0.00  0.00    -0.220 N 
ATOM      6  C   UNL     1       5.528   1.026  -7.534  0.00  0.00    +0.246 C 
ATOM      7  N   UNL     1       4.970   2.165  -8.268  0.00  0.00    -0.254 NA
ATOM      8  C   UNL     1       5.721   2.837  -9.105  0.00  0.00    +0.070 C 
ATOM      9  C   UNL     1       7.126   2.490  -9.339  0.00  0.00    +0.057 C 
ATOM     10  C   UNL     1       7.571   1.262  -8.954  0.00  0.00    +0.132 C 
ENDROOT
BRANCH   8  11
ATOM     11  C   UNL     1       5.132   3.982  -9.839  0.00  0.00    +0.000 A 
ATOM     12  C   UNL     1       5.908   4.710 -10.739  0.00  0.00    +0.010 A 
ATOM     13  C   UNL     1       5.354   5.776 -11.420  0.00  0.00    +0.004 A 
ATOM     14  C   UNL     1       4.031   6.122 -11.209  0.00  0.00    -0.045 A 
ATOM     15  C   UNL     1       3.256   5.403 -10.316  0.00  0.00    +0.004 A 
ATOM     16  C   UNL     1       3.798   4.332  -9.635  0.00  0.00    +0.010 A 
BRANCH  14  17
ATOM     17  C   UNL     1       3.433   7.287 -11.954  0.00  0.00    +0.013 C 
ATOM     18  C   UNL     1       2.251   6.800 -12.796  0.00  0.00    +0.012 C 
ATOM     19  C   UNL     1       2.947   8.337 -10.954  0.00  0.00    +0.012 C 
ENDBRANCH  14  17
ENDBRANCH   8  11
BRANCH   1  21
ATOM     20  N   UNL     1       2.745   1.103  -6.445  0.00  0.00    -0.311 N 
ATOM     21  C   UNL     1       3.223  -0.055  -6.942  0.00  0.00    +0.245 C 
ATOM     22  O   UNL     1       2.524  -1.052  -6.944  0.00  0.00    -0.270 OA
ATOM     23  H   UNL     1       3.302   1.897  -6.444  0.00  0.00    +0.149 HD
BRANCH  20  24
ATOM     24  C   UNL     1       1.384   1.162  -5.906  0.00  0.00    +0.109 C 
BRANCH  24  25
ATOM     25  C   UNL     1       1.093   2.580  -5.410  0.00  0.00    +0.056 C 
BRANCH  25  33
ATOM     26  C   UNL     1      -0.013   1.086   0.008  0.00  0.00    +0.044 C 
ATOM     27  C   UNL     1      -0.742   1.585  -1.213  0.00  0.00    -0.050 A 
ATOM     28  C   UNL     1      -2.112   1.796  -1.158  0.00  0.00    +0.005 A 
ATOM     29  C   UNL     1      -2.798   2.251  -2.263  0.00  0.00    +0.026 A 
ATOM     30  C   UNL     1      -2.112   2.504  -3.446  0.00  0.00    +0.047 A 
ATOM     31  N   UNL     1      -2.498   2.952  -4.689  0.00  0.00    -0.360 N 
ATOM     32  C   UNL     1      -1.411   3.028  -5.516  0.00  0.00    +0.087 A 
ATOM     33  C   UNL     1      -0.307   2.641  -4.856  0.00  0.00    -0.021 A 
ATOM     34  C   UNL     1      -0.722   2.289  -3.496  0.00  0.00    +0.003 A 
ATOM     35  C   UNL     1      -0.047   1.832  -2.363  0.00  0.00    +0.013 A 
ATOM     36  H   UNL     1      -3.407   3.180  -4.942  0.00  0.00    +0.165 HD
ENDBRANCH  25  33
ENDBRANCH  24  25
ENDBRANCH  20  24
ENDBRANCH   1  21
BRANCH  10  37
ATOM     37  C   UNL     1       8.988   0.803  -9.180  0.00  0.00    +0.432 C 
ATOM     38  F   UNL     1       9.715   1.822  -9.805  0.00  0.00    -0.165 F 
ATOM     39  F   UNL     1       9.580   0.494  -7.951  0.00  0.00    -0.165 F 
ATOM     40  F   UNL     1       8.986  -0.335  -9.995  0.00  0.00    -0.165 F 
ENDBRANCH  10  37
TORSDOF 7
