REMARK  Name = ZINC34899998
REMARK  8 active torsions:
REMARK  status: ('A' for Active; 'I' for Inactive)
REMARK    1  A    between atoms: C_1  and  C_2
REMARK    2  A    between atoms: C_5  and  C_8
REMARK    3  A    between atoms: C_14  and  C_17
REMARK    4  A    between atoms: N_19  and  C_20
REMARK    5  A    between atoms: C_26  and  N_28
REMARK    6  A    between atoms: C_29  and  C_31
REMARK    7  A    between atoms: C_34  and  O_37
REMARK    8  A    between atoms: O_37  and  C_38
REMARK                            x       y       z     vdW  Elec       q    Type
REMARK                         _______ _______ _______ _____ _____    ______ ____
ROOT
ATOM      1  C   UNL     1      -0.557  -8.477   2.167  0.00  0.00    +0.218 C 
ATOM      2  O   UNL     1      -0.350  -8.977   3.253  0.00  0.00    -0.275 OA
ATOM      3  N   UNL     1      -0.603  -9.253   1.066  0.00  0.00    -0.310 N 
ATOM      4  H   UNL     1      -0.768  -8.853   0.198  0.00  0.00    +0.149 HD
ENDROOT
BRANCH   1  11
ATOM      5  C   UNL     1       0.059  -4.251  -0.021  0.00  0.00    +0.247 C 
ATOM      6  O   UNL     1      -0.045  -4.855  -1.071  0.00  0.00    -0.270 OA
ATOM      7  N   UNL     1       0.176  -4.930   1.137  0.00  0.00    -0.297 N 
ATOM      8  C   UNL     1       0.168  -4.221   2.424  0.00  0.00    +0.108 C 
ATOM      9  C   UNL     1      -0.907  -4.841   3.322  0.00  0.00    +0.020 C 
ATOM     10  C   UNL     1      -0.663  -6.348   3.436  0.00  0.00    +0.016 C 
ATOM     11  C   UNL     1      -0.764  -6.989   2.050  0.00  0.00    +0.092 C 
ATOM     12  C   UNL     1       0.306  -6.394   1.137  0.00  0.00    +0.120 C 
BRANCH   5  17
ATOM     13  C   UNL     1       0.056   1.503   0.002  0.00  0.00    +0.044 C 
ATOM     14  C   UNL     1       0.057  -0.004  -0.004  0.00  0.00    -0.050 A 
ATOM     15  C   UNL     1       0.931  -0.695   0.816  0.00  0.00    +0.004 A 
ATOM     16  C   UNL     1       0.937  -2.075   0.815  0.00  0.00    +0.013 A 
ATOM     17  C   UNL     1       0.058  -2.773  -0.015  0.00  0.00    +0.037 A 
ATOM     18  C   UNL     1      -0.821  -2.069  -0.839  0.00  0.00    +0.013 A 
ATOM     19  C   UNL     1      -0.820  -0.689  -0.825  0.00  0.00    +0.004 A 
ENDBRANCH   5  17
ENDBRANCH   1  11
BRANCH   3  20
ATOM     20  C   UNL     1      -0.402 -10.699   1.180  0.00  0.00    +0.093 C 
ATOM     21  C   UNL     1       1.097 -11.009   1.158  0.00  0.00    +0.024 C 
ATOM     22  C   UNL     1       1.306 -12.520   1.278  0.00  0.00    +0.002 C 
ATOM     23  C   UNL     1       0.623 -13.224   0.104  0.00  0.00    +0.002 C 
ATOM     24  C   UNL     1      -0.876 -12.914   0.126  0.00  0.00    +0.024 C 
ATOM     25  C   UNL     1      -1.085 -11.403   0.007  0.00  0.00    +0.093 C 
BRANCH  25  26
ATOM     26  N   UNL     1      -2.520 -11.107   0.028  0.00  0.00    -0.307 N 
ATOM     27  C   UNL     1      -3.237 -11.166  -1.111  0.00  0.00    +0.244 C 
ATOM     28  O   UNL     1      -2.694 -11.466  -2.157  0.00  0.00    -0.270 OA
ATOM     29  H   UNL     1      -2.953 -10.867   0.862  0.00  0.00    +0.149 HD
BRANCH  27  30
ATOM     30  C   UNL     1      -4.683 -10.867  -1.090  0.00  0.00    +0.037 A 
ATOM     31  C   UNL     1      -5.308 -10.516   0.110  0.00  0.00    +0.016 A 
ATOM     32  C   UNL     1      -6.656 -10.238   0.126  0.00  0.00    +0.046 A 
ATOM     33  C   UNL     1      -7.395 -10.305  -1.050  0.00  0.00    +0.120 A 
ATOM     34  C   UNL     1      -6.777 -10.653  -2.245  0.00  0.00    +0.046 A 
ATOM     35  C   UNL     1      -5.428 -10.928  -2.270  0.00  0.00    +0.016 A 
BRANCH  33  36
ATOM     36  O   UNL     1      -8.724 -10.030  -1.030  0.00  0.00    -0.495 OA
ATOM     37  C   UNL     1      -9.424 -10.118  -2.273  0.00  0.00    +0.277 C 
ENDBRANCH  33  36
ENDBRANCH  27  30
ENDBRANCH  25  26
ENDBRANCH   3  20
TORSDOF 6
