REMARK  Name = ZINC40111638
REMARK  8 active torsions:
REMARK  status: ('A' for Active; 'I' for Inactive)
REMARK    1  A    between atoms: C_4  and  C_7
REMARK    2  A    between atoms: C_9  and  C_18
REMARK    3  A    between atoms: N_13  and  C_14
REMARK    4  A    between atoms: C_14  and  C_15
REMARK    5  A    between atoms: C_15  and  O_16
REMARK    6  A    between atoms: C_18  and  C_20
REMARK    7  A    between atoms: C_23  and  S_26
REMARK    8  A    between atoms: S_26  and  N_29
REMARK                            x       y       z     vdW  Elec       q    Type
REMARK                         _______ _______ _______ _____ _____    ______ ____
ROOT
ATOM      1  C   UNL     1       2.398  -1.472   0.928  0.00  0.00    +0.145 C 
ATOM      2  C   UNL     1       3.781  -1.153   1.445  0.00  0.00    +0.076 C 
ATOM      3  C   UNL     1       4.652  -1.882   0.709  0.00  0.00    +0.249 C 
ATOM      4  C   UNL     1       3.900  -2.678  -0.284  0.00  0.00    +0.288 C 
ATOM      5  O   UNL     1       4.399  -3.435  -1.092  0.00  0.00    -0.266 OA
ATOM      6  N   UNL     1       2.580  -2.441  -0.160  0.00  0.00    -0.281 N 
ATOM      7  O   UNL     1       5.996  -1.881   0.858  0.00  0.00    -0.282 OA
ENDROOT
BRANCH   1  11
ATOM      8  C   UNL     1       0.023  -3.186   4.037  0.00  0.00    +0.000 A 
ATOM      9  C   UNL     1      -0.203  -1.883   3.633  0.00  0.00    +0.000 A 
ATOM     10  C   UNL     1       0.566  -1.329   2.627  0.00  0.00    +0.006 A 
ATOM     11  C   UNL     1       1.561  -2.076   2.025  0.00  0.00    -0.022 A 
ATOM     12  C   UNL     1       1.787  -3.379   2.430  0.00  0.00    +0.006 A 
ATOM     13  C   UNL     1       1.017  -3.934   3.435  0.00  0.00    +0.000 A 
ENDBRANCH   1  11
BRANCH   2  14
ATOM     14  C   UNL     1       4.115  -0.230   2.535  0.00  0.00    +0.195 C 
ATOM     15  O   UNL     1       4.634  -0.652   3.551  0.00  0.00    -0.287 OA
BRANCH  14  16
ATOM     16  C   UNL     1       3.821   1.212   2.398  0.00  0.00    +0.022 A 
ATOM     17  C   UNL     1       3.329   1.717   1.193  0.00  0.00    +0.013 A 
ATOM     18  C   UNL     1       3.057   3.064   1.073  0.00  0.00    +0.029 A 
ATOM     19  C   UNL     1       3.271   3.914   2.143  0.00  0.00    +0.106 A 
ATOM     20  C   UNL     1       3.758   3.421   3.341  0.00  0.00    +0.029 A 
ATOM     21  C   UNL     1       4.030   2.075   3.477  0.00  0.00    +0.013 A 
BRANCH  19  22
ATOM     22  S   UNL     1       2.921   5.634   1.981  0.00  0.00    +0.061 S 
ATOM     23  O   UNL     1       3.720   6.304   2.947  0.00  0.00    -0.153 OA
ATOM     24  O   UNL     1       2.992   5.933   0.594  0.00  0.00    -0.153 OA
BRANCH  22  25
ATOM     25  N   UNL     1       1.344   5.858   2.433  0.00  0.00    -0.177 NA
ATOM     26  C   UNL     1       0.178   5.790   1.540  0.00  0.00    +0.109 C 
ATOM     27  C   UNL     1      -1.072   6.088   2.394  0.00  0.00    +0.018 C 
ATOM     28  C   UNL     1      -0.488   6.864   3.604  0.00  0.00    +0.018 C 
ATOM     29  C   UNL     1       0.876   6.152   3.800  0.00  0.00    +0.109 C 
ENDBRANCH  22  25
ENDBRANCH  19  22
ENDBRANCH  14  16
ENDBRANCH   2  14
BRANCH   6  30
ATOM     30  C   UNL     1       1.515  -3.042  -0.966  0.00  0.00    +0.137 C 
BRANCH  30  31
ATOM     31  C   UNL     1       1.249  -2.169  -2.193  0.00  0.00    +0.175 C 
BRANCH  31  32
ATOM     32  O   UNL     1       2.404  -2.166  -3.035  0.00  0.00    -0.393 OA
ATOM     33  H   UNL     1       2.307  -1.631  -3.834  0.00  0.00    +0.209 HD
ENDBRANCH  31  32
ENDBRANCH  30  31
ENDBRANCH   6  30
TORSDOF 8
