REMARK  Name = ZINC39633510
REMARK  6 active torsions:
REMARK  status: ('A' for Active; 'I' for Inactive)
REMARK    1  A    between atoms: C_1  and  C_2
REMARK    2  A    between atoms: C_2  and  C_4
REMARK    3  A    between atoms: C_2  and  O_27
REMARK    4  A    between atoms: C_8  and  C_17
REMARK    5  A    between atoms: N_19  and  C_20
REMARK    6  A    between atoms: O_27  and  C_28
REMARK                            x       y       z     vdW  Elec       q    Type
REMARK                         _______ _______ _______ _____ _____    ______ ____
ROOT
ATOM      1  C   UNL     1      -1.329  -0.407   0.067  0.00  0.00    +0.256 C 
ATOM      2  O   UNL     1      -1.704  -0.845   1.134  0.00  0.00    -0.272 OA
ATOM      3  N   UNL     1      -2.228  -0.106  -0.891  0.00  0.00    -0.297 N 
ATOM      4  C   UNL     1      -1.964   0.429  -2.248  0.00  0.00    +0.121 C 
ATOM      5  C   UNL     1      -2.968  -0.310  -3.160  0.00  0.00    +0.100 C 
ATOM      6  C   UNL     1      -4.107  -0.741  -2.222  0.00  0.00    -0.004 C 
ATOM      7  C   UNL     1      -3.703  -0.241  -0.828  0.00  0.00    +0.115 C 
ATOM      8  C   UNL     1      -4.238  -2.261  -2.213  0.00  0.00    -0.010 C 
ATOM      9  C   UNL     1      -5.413  -2.663  -1.317  0.00  0.00    -0.082 C 
ATOM     10  N   UNL     1      -6.647  -2.049  -1.823  0.00  0.00    +0.379 N 
ATOM     11  C   UNL     1      -6.549  -0.587  -1.742  0.00  0.00    -0.082 C 
ATOM     12  C   UNL     1      -5.421  -0.098  -2.655  0.00  0.00    -0.010 C 
ATOM     13  H   UNL     1      -6.788  -2.323  -2.784  0.00  0.00    -0.086 HD
ATOM     14  H   UNL     1      -7.429  -2.364  -1.268  0.00  0.00    -0.086 HD
ENDROOT
BRANCH   5  15
ATOM     15  C   UNL     1      -3.487   0.618  -4.229  0.00  0.00    +0.218 C 
ATOM     16  O   UNL     1      -3.593   1.804  -4.002  0.00  0.00    -0.275 OA
ATOM     17  N   UNL     1      -3.835   0.128  -5.435  0.00  0.00    -0.312 N 
ATOM     18  H   UNL     1      -3.751  -0.821  -5.616  0.00  0.00    +0.149 HD
BRANCH  17  19
ATOM     19  C   UNL     1      -4.340   1.030  -6.474  0.00  0.00    +0.073 C 
ATOM     20  C   UNL     1      -5.841   1.283  -6.229  0.00  0.00    +0.022 C 
ATOM     21  C   UNL     1      -6.234   2.552  -6.935  0.00  0.00    +0.002 C 
ATOM     22  C   UNL     1      -6.800   2.293  -8.344  0.00  0.00    +0.000 C 
ATOM     23  C   UNL     1      -6.012   1.217  -9.116  0.00  0.00    +0.000 C 
ATOM     24  C   UNL     1      -4.524   1.355  -8.937  0.00  0.00    +0.002 C 
ATOM     25  C   UNL     1      -4.082   0.438  -7.778  0.00  0.00    +0.022 C 
ENDBRANCH  17  19
ENDBRANCH   5  15
BRANCH   1  27
ATOM     26  C   UNL     1       0.422   1.295  -0.364  0.00  0.00    +0.062 C 
ATOM     27  C   UNL     1       0.142  -0.199  -0.187  0.00  0.00    +0.256 C 
BRANCH  27  28
ATOM     28  O   UNL     1       0.892  -0.696   0.923  0.00  0.00    -0.480 OA
BRANCH  28  29
ATOM     29  C   UNL     1       2.175  -1.074   0.681  0.00  0.00    +0.122 A 
ATOM     30  C   UNL     1       2.924  -1.671   1.685  0.00  0.00    +0.045 A 
ATOM     31  C   UNL     1       4.227  -2.055   1.436  0.00  0.00    +0.004 A 
ATOM     32  C   UNL     1       4.785  -1.845   0.188  0.00  0.00    +0.000 A 
ATOM     33  C   UNL     1       4.041  -1.250  -0.813  0.00  0.00    +0.004 A 
ATOM     34  C   UNL     1       2.735  -0.870  -0.571  0.00  0.00    +0.045 A 
ENDBRANCH  28  29
ENDBRANCH  27  28
ENDBRANCH   1  27
TORSDOF 5
