REMARK  Name = ZINC32273124
REMARK  8 active torsions:
REMARK  status: ('A' for Active; 'I' for Inactive)
REMARK    1  A    between atoms: C_1  and  N_2
REMARK    2  A    between atoms: N_2  and  C_3
REMARK    3  A    between atoms: C_4  and  C_6
REMARK    4  A    between atoms: C_9  and  N_12
REMARK    5  A    between atoms: C_13  and  C_15
REMARK    6  A    between atoms: C_20  and  N_21
REMARK    7  A    between atoms: N_21  and  S_22
REMARK    8  A    between atoms: S_22  and  C_25
REMARK                            x       y       z     vdW  Elec       q    Type
REMARK                         _______ _______ _______ _____ _____    ______ ____
ROOT
ATOM      1  C   UNL     1      -2.398   5.664  -1.066  0.00  0.00    +0.061 A 
ATOM      2  C   UNL     1      -3.563   4.969  -0.727  0.00  0.00    +0.015 A 
ATOM      3  C   UNL     1      -4.680   5.661  -0.314  0.00  0.00    +0.001 A 
ATOM      4  C   UNL     1      -4.657   7.045  -0.233  0.00  0.00    +0.002 A 
ATOM      5  C   UNL     1      -3.515   7.745  -0.564  0.00  0.00    +0.027 A 
ATOM      6  C   UNL     1      -2.376   7.064  -0.977  0.00  0.00    +0.086 A 
ENDROOT
BRANCH   1   8
ATOM      7  N   UNL     1      -1.224   3.584  -1.586  0.00  0.00    -0.281 N 
ATOM      8  C   UNL     1      -1.199   4.929  -1.508  0.00  0.00    +0.250 C 
ATOM      9  O   UNL     1      -0.188   5.537  -1.802  0.00  0.00    -0.270 OA
ATOM     10  H   UNL     1      -2.164   3.040  -1.412  0.00  0.00    +0.155 HD
BRANCH   7  14
ATOM     11  C   UNL     1       2.260   1.487  -2.484  0.00  0.00    +0.037 A 
ATOM     12  C   UNL     1       1.024   1.016  -2.934  0.00  0.00    +0.015 A 
ATOM     13  C   UNL     1      -0.126   1.709  -2.631  0.00  0.00    +0.024 A 
ATOM     14  C   UNL     1      -0.058   2.882  -1.887  0.00  0.00    +0.034 A 
ATOM     15  C   UNL     1       1.172   3.357  -1.442  0.00  0.00    +0.024 A 
ATOM     16  C   UNL     1       2.326   2.666  -1.737  0.00  0.00    +0.015 A 
BRANCH  11  20
ATOM     17  C   UNL     1       4.729  -0.858  -4.162  0.00  0.00    +0.132 C 
ATOM     18  N   UNL     1       3.478  -0.220  -3.745  0.00  0.00    -0.304 N 
ATOM     19  C   UNL     1       2.209  -0.627  -4.352  0.00  0.00    +0.132 C 
ATOM     20  C   UNL     1       3.495   0.744  -2.802  0.00  0.00    +0.246 C 
ATOM     21  O   UNL     1       4.527   0.997  -2.210  0.00  0.00    -0.270 OA
ENDBRANCH  11  20
ENDBRANCH   7  14
ENDBRANCH   1   8
BRANCH   6  22
ATOM     22  N   UNL     1      -1.224   7.766  -1.306  0.00  0.00    -0.097 NA
BRANCH  22  23
ATOM     23  S   UNL     1      -0.829   9.144  -0.476  0.00  0.00    +0.092 S 
ATOM     24  O   UNL     1       0.517   9.449  -0.813  0.00  0.00    -0.148 OA
ATOM     25  O   UNL     1      -1.893  10.062  -0.683  0.00  0.00    -0.148 OA
BRANCH  23  26
ATOM     26  C   UNL     1      -0.839   8.740   1.239  0.00  0.00    +0.110 A 
ATOM     27  C   UNL     1      -2.001   8.882   1.976  0.00  0.00    +0.030 A 
ATOM     28  C   UNL     1      -2.010   8.560   3.320  0.00  0.00    +0.022 A 
ATOM     29  C   UNL     1      -0.855   8.107   3.931  0.00  0.00    +0.041 A 
ATOM     30  C   UNL     1       0.308   7.970   3.194  0.00  0.00    +0.022 A 
ATOM     31  C   UNL     1       0.316   8.287   1.849  0.00  0.00    +0.030 A 
ATOM     32 CL   UNL     1      -0.865   7.708   5.620  0.00  0.00    -0.084 Cl
ENDBRANCH  23  26
ENDBRANCH  22  23
ENDBRANCH   6  22
TORSDOF 6
