REMARK  Name = ZINC13518951
REMARK  6 active torsions:
REMARK  status: ('A' for Active; 'I' for Inactive)
REMARK    1  A    between atoms: C_3  and  S_24
REMARK    2  A    between atoms: C_6  and  N_7
REMARK    3  A    between atoms: C_8  and  C_10
REMARK    4  A    between atoms: N_15  and  C_17
REMARK    5  A    between atoms: S_24  and  N_27
REMARK    6  A    between atoms: N_27  and  C_28
REMARK                            x       y       z     vdW  Elec       q    Type
REMARK                         _______ _______ _______ _____ _____    ______ ____
ROOT
ATOM      1  N   UNL     1      -1.209  -0.719  -0.003  0.00  0.00    -0.285 N 
ATOM      2  C   UNL     1      -1.193  -2.061  -0.117  0.00  0.00    +0.222 C 
ATOM      3  O   UNL     1      -0.135  -2.655  -0.147  0.00  0.00    -0.275 OA
ATOM      4  H   UNL     1      -2.052  -0.250   0.098  0.00  0.00    +0.155 HD
ENDROOT
BRANCH   1  10
ATOM      5  C   UNL     1       1.053  -0.447  -0.806  0.00  0.00    +0.025 A 
ATOM      6  C   UNL     1       2.236   0.265  -0.832  0.00  0.00    +0.031 A 
ATOM      7  C   UNL     1       2.365   1.422  -0.085  0.00  0.00    +0.111 A 
ATOM      8  C   UNL     1       1.310   1.870   0.688  0.00  0.00    +0.031 A 
ATOM      9  C   UNL     1       0.124   1.163   0.717  0.00  0.00    +0.025 A 
ATOM     10  C   UNL     1      -0.008   0.000  -0.031  0.00  0.00    +0.034 A 
BRANCH   7  11
ATOM     11  S   UNL     1       3.876   2.327  -0.119  0.00  0.00    +0.093 S 
ATOM     12  O   UNL     1       3.930   3.074   1.088  0.00  0.00    -0.148 OA
ATOM     13  O   UNL     1       4.893   1.406  -0.491  0.00  0.00    -0.148 OA
BRANCH  11  14
ATOM     14  N   UNL     1       3.761   3.427  -1.352  0.00  0.00    -0.070 NA
BRANCH  14  15
ATOM     15  C   UNL     1       4.816   4.286  -1.615  0.00  0.00    +0.201 A 
ATOM     16  N   UNL     1       5.978   4.367  -1.002  0.00  0.00    -0.231 NA
ATOM     17  C   UNL     1       6.888   5.248  -1.378  0.00  0.00    +0.120 A 
ATOM     18  C   UNL     1       6.569   6.058  -2.416  0.00  0.00    +0.068 A 
ATOM     19  S   UNL     1       4.927   5.473  -2.803  0.00  0.00    -0.058 S 
ENDBRANCH  14  15
ENDBRANCH  11  14
ENDBRANCH   7  11
ENDBRANCH   1  10
BRANCH   2  20
ATOM     20  C   UNL     1      -2.488  -2.825  -0.208  0.00  0.00    +0.102 C 
ATOM     21  C   UNL     1      -3.307  -2.683   1.097  0.00  0.00    +0.110 C 
ATOM     22  C   UNL     1      -3.943  -4.042   1.285  0.00  0.00    +0.221 C 
ATOM     23  O   UNL     1      -4.876  -4.276   2.025  0.00  0.00    -0.275 OA
ATOM     24  N   UNL     1      -3.325  -4.954   0.514  0.00  0.00    -0.271 N 
ATOM     25  C   UNL     1      -2.231  -4.348  -0.254  0.00  0.00    +0.127 C 
BRANCH  24  26
ATOM     26  C   UNL     1      -3.680  -6.306   0.452  0.00  0.00    +0.036 A 
ATOM     27  C   UNL     1      -4.809  -6.761   1.119  0.00  0.00    +0.025 A 
ATOM     28  C   UNL     1      -5.157  -8.096   1.056  0.00  0.00    +0.022 A 
ATOM     29  C   UNL     1      -4.381  -8.980   0.327  0.00  0.00    +0.041 A 
ATOM     30  C   UNL     1      -3.255  -8.530  -0.339  0.00  0.00    +0.022 A 
ATOM     31  C   UNL     1      -2.906  -7.194  -0.283  0.00  0.00    +0.025 A 
ATOM     32 CL   UNL     1      -4.820 -10.658   0.250  0.00  0.00    -0.084 Cl
ENDBRANCH  24  26
ENDBRANCH   2  20
TORSDOF 6
