REMARK  Name = ZINC39678324
REMARK  8 active torsions:
REMARK  status: ('A' for Active; 'I' for Inactive)
REMARK    1  A    between atoms: C_1  and  C_2
REMARK    2  A    between atoms: C_2  and  C_3
REMARK    3  A    between atoms: C_3  and  C_5
REMARK    4  A    between atoms: C_3  and  C_11
REMARK    5  A    between atoms: C_15  and  C_24
REMARK    6  A    between atoms: N_26  and  C_27
REMARK    7  A    between atoms: C_27  and  C_28
REMARK    8  A    between atoms: C_33  and  N_34
REMARK                            x       y       z     vdW  Elec       q    Type
REMARK                         _______ _______ _______ _____ _____    ______ ____
ROOT
ATOM      1  C   UNL     1       0.853  -1.105  -2.872  0.00  0.00    +0.223 C 
ATOM      2  O   UNL     1       1.911  -1.516  -3.300  0.00  0.00    -0.275 OA
ATOM      3  N   UNL     1      -0.246  -1.884  -2.933  0.00  0.00    -0.300 N 
ATOM      4  C   UNL     1      -1.635  -1.524  -2.565  0.00  0.00    +0.121 C 
ATOM      5  C   UNL     1      -2.512  -2.198  -3.643  0.00  0.00    +0.100 C 
ATOM      6  C   UNL     1      -1.656  -3.359  -4.176  0.00  0.00    -0.004 C 
ATOM      7  C   UNL     1      -0.338  -3.291  -3.391  0.00  0.00    +0.115 C 
ATOM      8  C   UNL     1      -1.385  -3.175  -5.667  0.00  0.00    -0.010 C 
ATOM      9  C   UNL     1      -0.580  -4.370  -6.185  0.00  0.00    -0.082 C 
ATOM     10  N   UNL     1      -1.335  -5.608  -5.954  0.00  0.00    +0.379 N 
ATOM     11  C   UNL     1      -1.511  -5.825  -4.513  0.00  0.00    -0.082 C 
ATOM     12  C   UNL     1      -2.355  -4.691  -3.923  0.00  0.00    -0.010 C 
ATOM     13  H   UNL     1      -2.239  -5.536  -6.395  0.00  0.00    -0.086 HD
ATOM     14  H   UNL     1      -0.831  -6.386  -6.351  0.00  0.00    -0.086 HD
ENDROOT
BRANCH   5  15
ATOM     15  C   UNL     1      -2.826  -1.224  -4.749  0.00  0.00    +0.218 C 
ATOM     16  O   UNL     1      -2.042  -0.338  -5.017  0.00  0.00    -0.275 OA
ATOM     17  N   UNL     1      -3.977  -1.337  -5.441  0.00  0.00    -0.311 N 
ATOM     18  H   UNL     1      -4.639  -1.995  -5.177  0.00  0.00    +0.149 HD
BRANCH  17  19
ATOM     19  C   UNL     1      -4.229  -0.466  -6.592  0.00  0.00    +0.141 C 
BRANCH  19  20
ATOM     20  C   UNL     1      -5.623  -0.708  -7.109  0.00  0.00    -0.009 A 
ATOM     21  C   UNL     1      -5.821  -1.517  -8.212  0.00  0.00    +0.007 A 
ATOM     22  C   UNL     1      -7.100  -1.739  -8.688  0.00  0.00    +0.000 A 
ATOM     23  C   UNL     1      -8.185  -1.154  -8.062  0.00  0.00    +0.002 A 
ATOM     24  C   UNL     1      -7.995  -0.344  -6.960  0.00  0.00    +0.023 A 
ATOM     25  C   UNL     1      -6.712  -0.123  -6.476  0.00  0.00    +0.034 A 
BRANCH  25  26
ATOM     26  N   UNL     1      -6.516   0.691  -5.357  0.00  0.00    -0.330 N 
ATOM     27  C   UNL     1      -6.303   2.136  -5.511  0.00  0.00    +0.105 C 
ATOM     28  C   UNL     1      -7.317   2.880  -4.637  0.00  0.00    +0.019 C 
ATOM     29  C   UNL     1      -7.207   2.379  -3.195  0.00  0.00    +0.003 C 
ATOM     30  C   UNL     1      -7.532   0.884  -3.147  0.00  0.00    +0.019 C 
ATOM     31  C   UNL     1      -6.527   0.118  -4.004  0.00  0.00    +0.105 C 
ENDBRANCH  25  26
ENDBRANCH  19  20
ENDBRANCH  17  19
ENDBRANCH   5  15
BRANCH   1  32
ATOM     32  C   UNL     1       0.766   0.275  -2.273  0.00  0.00    +0.105 C 
BRANCH  32  33
ATOM     33  C   UNL     1       1.964   1.084  -2.700  0.00  0.00    -0.036 A 
ATOM     34  C   UNL     1       3.224   0.750  -2.238  0.00  0.00    +0.004 A 
ATOM     35  C   UNL     1       4.322   1.492  -2.630  0.00  0.00    +0.000 A 
ATOM     36  C   UNL     1       4.161   2.567  -3.483  0.00  0.00    +0.000 A 
ATOM     37  C   UNL     1       2.902   2.901  -3.945  0.00  0.00    +0.000 A 
ATOM     38  C   UNL     1       1.804   2.156  -3.557  0.00  0.00    +0.004 A 
ENDBRANCH  32  33
BRANCH  32  40
ATOM     39  C   UNL     1       0.516   1.554  -0.142  0.00  0.00    +0.005 C 
ATOM     40  C   UNL     1       0.741   0.167  -0.747  0.00  0.00    +0.014 C 
ENDBRANCH  32  40
ENDBRANCH   1  32
TORSDOF 7
