REMARK  Name = ZINC63405723
REMARK  8 active torsions:
REMARK  status: ('A' for Active; 'I' for Inactive)
REMARK    1  A    between atoms: C_1  and  C_2
REMARK    2  A    between atoms: C_4  and  C_12
REMARK    3  A    between atoms: C_12  and  C_14
REMARK    4  A    between atoms: N_16  and  C_17
REMARK    5  A    between atoms: C_17  and  C_19
REMARK    6  A    between atoms: C_17  and  C_20
REMARK    7  A    between atoms: C_24  and  N_26
REMARK    8  A    between atoms: C_27  and  C_29
REMARK                            x       y       z     vdW  Elec       q    Type
REMARK                         _______ _______ _______ _____ _____    ______ ____
ROOT
ATOM      1  C   UNL     1       1.929  -0.845  -3.837  0.00  0.00    +0.285 C 
ATOM      2  O   UNL     1       2.861  -1.583  -3.593  0.00  0.00    -0.267 OA
ATOM      3  N   UNL     1       1.591  -0.586  -5.115  0.00  0.00    -0.302 N 
ATOM      4  H   UNL     1       0.845   0.004  -5.310  0.00  0.00    +0.150 HD
ENDROOT
BRANCH   1   5
ATOM      5  C   UNL     1       1.158  -0.227  -2.722  0.00  0.00    +0.246 C 
ATOM      6  O   UNL     1       0.289   0.590  -2.963  0.00  0.00    -0.282 OA
BRANCH   5   9
ATOM      7  C   UNL     1       1.960  -3.027  -1.440  0.00  0.00    +0.035 C 
ATOM      8  C   UNL     1       2.391  -1.660  -0.907  0.00  0.00    +0.111 C 
ATOM      9  C   UNL     1       1.434  -0.589  -1.387  0.00  0.00    +0.035 C 
ATOM     10  C   UNL     1       0.888  -0.038  -0.237  0.00  0.00    +0.007 A 
ATOM     11  C   UNL     1      -0.056   0.989  -0.019  0.00  0.00    +0.010 A 
ATOM     12  C   UNL     1      -0.415   1.330   1.242  0.00  0.00    +0.001 A 
ATOM     13  C   UNL     1       0.118   0.696   2.374  0.00  0.00    +0.002 A 
ATOM     14  C   UNL     1       1.028  -0.298   2.275  0.00  0.00    +0.026 A 
ATOM     15  C   UNL     1       1.472  -0.730   0.938  0.00  0.00    +0.043 A 
ATOM     16  N   UNL     1       2.320  -1.644   0.557  0.00  0.00    -0.377 N 
ATOM     17  H   UNL     1       2.825  -2.223   1.149  0.00  0.00    +0.160 HD
ENDBRANCH   5   9
ENDBRANCH   1   5
BRANCH   3  18
ATOM     18  C   UNL     1       2.349  -1.194  -6.211  0.00  0.00    +0.101 C 
ATOM     19  C   UNL     1       3.580  -0.338  -6.516  0.00  0.00    +0.033 C 
BRANCH  18  20
ATOM     20  C   UNL     1       1.478  -1.278  -7.438  0.00  0.00    -0.026 A 
ATOM     21  C   UNL     1       0.634  -0.230  -7.759  0.00  0.00    +0.005 A 
ATOM     22  C   UNL     1      -0.166  -0.303  -8.885  0.00  0.00    +0.002 A 
ATOM     23  C   UNL     1      -0.124  -1.423  -9.692  0.00  0.00    +0.023 A 
ATOM     24  C   UNL     1       0.722  -2.476  -9.373  0.00  0.00    +0.034 A 
ATOM     25  C   UNL     1       1.528  -2.398  -8.244  0.00  0.00    +0.028 A 
BRANCH  24  26
ATOM     26  N   UNL     1       0.766  -3.612 -10.188  0.00  0.00    -0.286 N 
ATOM     27  C   UNL     1       0.593  -3.493 -11.520  0.00  0.00    +0.214 C 
ATOM     28  O   UNL     1       0.499  -2.394 -12.023  0.00  0.00    -0.276 OA
ATOM     29  C   UNL     1       0.515  -4.726 -12.383  0.00  0.00    +0.109 C 
ATOM     30  H   UNL     1       0.921  -4.485  -9.796  0.00  0.00    +0.155 HD
ENDBRANCH  24  26
ENDBRANCH  18  20
ENDBRANCH   3  18
TORSDOF 5
