REMARK  Name = ZINC24033350
REMARK  7 active torsions:
REMARK  status: ('A' for Active; 'I' for Inactive)
REMARK    1  A    between atoms: C_1  and  C_2
REMARK    2  A    between atoms: N_5  and  S_8
REMARK    3  A    between atoms: S_8  and  C_11
REMARK    4  A    between atoms: C_14  and  C_17
REMARK    5  A    between atoms: N_19  and  C_20
REMARK    6  A    between atoms: C_24  and  N_26
REMARK    7  A    between atoms: C_27  and  C_29
REMARK                            x       y       z     vdW  Elec       q    Type
REMARK                         _______ _______ _______ _____ _____    ______ ____
ROOT
ATOM      1  C   UNL     1       0.013   1.482   0.149  0.00  0.00    +0.248 C 
ATOM      2  O   UNL     1      -1.036   2.075   0.306  0.00  0.00    -0.270 OA
ATOM      3  N   UNL     1       1.160   2.171  -0.009  0.00  0.00    -0.281 N 
ATOM      4  H   UNL     1       2.119   1.636  -0.070  0.00  0.00    +0.155 HD
ENDROOT
BRANCH   1   8
ATOM      5  C   UNL     1       0.060  -2.765   0.082  0.00  0.00    +0.106 A 
ATOM      6  C   UNL     1      -1.135  -2.092   0.266  0.00  0.00    +0.029 A 
ATOM      7  C   UNL     1      -1.157  -0.713   0.289  0.00  0.00    +0.015 A 
ATOM      8  C   UNL     1       0.029   0.004   0.126  0.00  0.00    +0.037 A 
ATOM      9  C   UNL     1       1.231  -0.681  -0.066  0.00  0.00    +0.015 A 
ATOM     10  C   UNL     1       1.240  -2.061  -0.081  0.00  0.00    +0.029 A 
BRANCH   5  11
ATOM     11  S   UNL     1       0.080  -4.527   0.054  0.00  0.00    +0.061 S 
ATOM     12  O   UNL     1       1.397  -4.924   0.413  0.00  0.00    -0.153 OA
ATOM     13  O   UNL     1      -1.068  -4.957   0.773  0.00  0.00    -0.153 OA
BRANCH  11  18
ATOM     14  C   UNL     1      -0.515  -8.148  -4.352  0.00  0.00    +0.007 C 
ATOM     15  C   UNL     1      -0.440  -6.762  -3.706  0.00  0.00    -0.012 C 
ATOM     16  C   UNL     1       0.921  -6.590  -3.027  0.00  0.00    +0.020 C 
ATOM     17  C   UNL     1       1.006  -5.189  -2.412  0.00  0.00    +0.110 C 
ATOM     18  N   UNL     1      -0.144  -4.995  -1.518  0.00  0.00    -0.177 NA
ATOM     19  C   UNL     1      -1.495  -5.229  -2.044  0.00  0.00    +0.110 C 
ATOM     20  C   UNL     1      -1.553  -6.623  -2.665  0.00  0.00    +0.020 C 
ENDBRANCH  11  18
ENDBRANCH   5  11
ENDBRANCH   1   8
BRANCH   3  21
ATOM     21  C   UNL     1       1.132   3.566  -0.095  0.00  0.00    +0.035 A 
ATOM     22  C   UNL     1       2.182   4.317   0.419  0.00  0.00    +0.023 A 
ATOM     23  C   UNL     1       2.155   5.695   0.334  0.00  0.00    +0.004 A 
ATOM     24  C   UNL     1       1.083   6.332  -0.261  0.00  0.00    +0.023 A 
ATOM     25  C   UNL     1       0.029   5.588  -0.776  0.00  0.00    +0.035 A 
ATOM     26  C   UNL     1       0.057   4.203  -0.698  0.00  0.00    +0.046 A 
BRANCH  25  27
ATOM     27  N   UNL     1      -1.055   6.234  -1.378  0.00  0.00    -0.281 N 
ATOM     28  C   UNL     1      -0.856   7.354  -2.101  0.00  0.00    +0.255 C 
ATOM     29  O   UNL     1       0.254   7.850  -2.161  0.00  0.00    -0.269 OA
ATOM     30  H   UNL     1      -2.071   5.828  -1.261  0.00  0.00    +0.155 HD
BRANCH  28  31
ATOM     31  C   UNL     1      -1.975   7.973  -2.816  0.00  0.00    +0.074 A 
ATOM     32  C   UNL     1      -1.984   9.112  -3.606  0.00  0.00    +0.021 A 
ATOM     33  C   UNL     1      -3.184   9.476  -4.165  0.00  0.00    +0.008 A 
ATOM     34  C   UNL     1      -4.285   8.718  -3.923  0.00  0.00    +0.046 A 
ATOM     35  S   UNL     1      -3.680   7.454  -2.902  0.00  0.00    -0.092 S 
ENDBRANCH  28  31
ENDBRANCH  25  27
ENDBRANCH   3  21
TORSDOF 6
