REMARK  Name = ZINC13937387
REMARK  9 active torsions:
REMARK  status: ('A' for Active; 'I' for Inactive)
REMARK    1  A    between atoms: C_1  and  C_2
REMARK    2  A    between atoms: C_5  and  N_9
REMARK    3  A    between atoms: C_6  and  C_8
REMARK    4  A    between atoms: N_9  and  C_10
REMARK    5  A    between atoms: C_10  and  N_12
REMARK    6  A    between atoms: N_12  and  C_13
REMARK    7  A    between atoms: C_16  and  S_19
REMARK    8  A    between atoms: S_19  and  N_22
REMARK    9  A    between atoms: N_22  and  C_23
REMARK                            x       y       z     vdW  Elec       q    Type
REMARK                         _______ _______ _______ _____ _____    ______ ____
ROOT
ATOM      1  C   UNL     1       1.977   0.154  -0.951  0.00  0.00    +0.033 A 
ATOM      2  C   UNL     1       1.815  -1.225  -0.918  0.00  0.00    +0.025 A 
ATOM      3  C   UNL     1       2.912  -2.052  -1.059  0.00  0.00    +0.030 A 
ATOM      4  C   UNL     1       4.173  -1.508  -1.221  0.00  0.00    +0.109 A 
ATOM      5  C   UNL     1       4.339  -0.135  -1.248  0.00  0.00    +0.030 A 
ATOM      6  C   UNL     1       3.245   0.697  -1.113  0.00  0.00    +0.025 A 
ENDROOT
BRANCH   4   7
ATOM      7  S   UNL     1       5.572  -2.566  -1.392  0.00  0.00    +0.072 S 
ATOM      8  O   UNL     1       5.071  -3.843  -1.761  0.00  0.00    -0.150 OA
ATOM      9  O   UNL     1       6.519  -1.861  -2.183  0.00  0.00    -0.150 OA
BRANCH   7  10
ATOM     10  N   UNL     1       6.243  -2.737   0.112  0.00  0.00    -0.216 N 
ATOM     11  H   UNL     1       7.142  -2.413   0.281  0.00  0.00    +0.174 HD
BRANCH  10  12
ATOM     12  C   UNL     1       5.516  -3.347   1.136  0.00  0.00    +0.051 A 
ATOM     13  C   UNL     1       4.955  -2.575   2.146  0.00  0.00    +0.044 A 
ATOM     14  C   UNL     1       4.231  -3.181   3.156  0.00  0.00    +0.044 A 
ATOM     15  C   UNL     1       4.075  -4.556   3.168  0.00  0.00    +0.040 A 
ATOM     16  C   UNL     1       4.638  -5.328   2.166  0.00  0.00    +0.044 A 
ATOM     17  C   UNL     1       5.357  -4.726   1.151  0.00  0.00    +0.044 A 
ATOM     18 CL   UNL     1       4.439  -7.052   2.184  0.00  0.00    -0.083 Cl
ATOM     19 CL   UNL     1       3.525  -2.217   4.415  0.00  0.00    -0.083 Cl
ENDBRANCH  10  12
ENDBRANCH   7  10
ENDBRANCH   4   7
BRANCH   1  20
ATOM     20  N   UNL     1       0.867   0.994  -0.814  0.00  0.00    -0.297 N 
ATOM     21  H   UNL     1       0.208   0.819  -0.124  0.00  0.00    +0.154 HD
BRANCH  20  22
ATOM     22  C   UNL     1       0.712   2.046  -1.641  0.00  0.00    +0.139 C 
ATOM     23  S   UNL     1       1.928   2.420  -2.788  0.00  0.00    -0.018 S 
BRANCH  22  24
ATOM     24  N   UNL     1      -0.397   2.808  -1.563  0.00  0.00    -0.296 N 
ATOM     25  H   UNL     1      -1.048   2.645  -0.863  0.00  0.00    +0.154 HD
BRANCH  24  30
ATOM     26  C   UNL     1      -1.251   6.968  -5.324  0.00  0.00    +0.044 C 
ATOM     27  C   UNL     1      -1.024   5.863  -4.324  0.00  0.00    -0.050 A 
ATOM     28  C   UNL     1       0.231   5.676  -3.776  0.00  0.00    +0.005 A 
ATOM     29  C   UNL     1       0.443   4.665  -2.860  0.00  0.00    +0.024 A 
ATOM     30  C   UNL     1      -0.607   3.834  -2.490  0.00  0.00    +0.036 A 
ATOM     31  C   UNL     1      -1.866   4.021  -3.047  0.00  0.00    -0.029 A 
ATOM     32  C   UNL     1      -2.072   5.038  -3.959  0.00  0.00    +0.008 A 
ATOM     33  C   UNL     1      -3.006   3.118  -2.653  0.00  0.00    +0.045 C 
ENDBRANCH  24  30
ENDBRANCH  22  24
ENDBRANCH  20  22
ENDBRANCH   1  20
TORSDOF 7
