REMARK  Name = ZINC15945761
REMARK  10 active torsions:
REMARK  status: ('A' for Active; 'I' for Inactive)
REMARK    1  A    between atoms: C_1  and  C_2
REMARK    2  A    between atoms: C_2  and  C_3
REMARK    3  A    between atoms: C_3  and  C_4
REMARK    4  A    between atoms: C_3  and  C_5
REMARK    5  A    between atoms: C_3  and  C_6
REMARK    6  A    between atoms: C_15  and  O_30
REMARK    7  A    between atoms: C_17  and  C_20
REMARK    8  A    between atoms: C_22  and  O_28
REMARK    9  A    between atoms: C_23  and  O_27
REMARK   10  A    between atoms: O_28  and  C_29
REMARK                            x       y       z     vdW  Elec       q    Type
REMARK                         _______ _______ _______ _____ _____    ______ ____
ROOT
ATOM      1  C   UNL     1       0.739  -2.027  -1.265  0.00  0.00    -0.000 C 
ATOM      2  C   UNL     1       1.461  -2.524  -2.521  0.00  0.00    +0.009 C 
ATOM      3  C   UNL     1       1.274  -4.035  -2.666  0.00  0.00    +0.037 C 
ATOM      4  C   UNL     1       1.676  -4.705  -1.360  0.00  0.00    -0.023 A 
ATOM      5  C   UNL     1       1.760  -3.999  -0.209  0.00  0.00    -0.004 A 
ATOM      6  S   UNL     1       2.254  -5.184   1.013  0.00  0.00    -0.078 S 
ATOM      7  C   UNL     1       2.351  -6.537   0.060  0.00  0.00    +0.080 A 
ATOM      8  C   UNL     1       1.998  -6.114  -1.227  0.00  0.00    +0.068 A 
ATOM      9  C   UNL     1       1.983  -7.138  -2.304  0.00  0.00    +0.220 C 
ATOM     10  N   UNL     1       2.532  -8.294  -2.049  0.00  0.00    -0.223 NA
ATOM     11  C   UNL     1       3.215  -8.628  -0.805  0.00  0.00    +0.224 C 
ATOM     12  N   UNL     1       2.693  -7.843   0.329  0.00  0.00    -0.313 N 
ATOM     13  C   UNL     1       1.487  -2.538  -0.025  0.00  0.00    +0.046 C 
ATOM     14  H   UNL     1       2.596  -8.226   1.215  0.00  0.00    +0.149 HD
ENDROOT
BRANCH  11  15
ATOM     15  C   UNL     1       4.687  -8.346  -0.960  0.00  0.00    -0.001 A 
ATOM     16  C   UNL     1       5.282  -8.452  -2.204  0.00  0.00    +0.056 A 
ATOM     17  C   UNL     1       6.635  -8.192  -2.349  0.00  0.00    +0.163 A 
ATOM     18  C   UNL     1       7.393  -7.825  -1.241  0.00  0.00    +0.172 A 
ATOM     19  C   UNL     1       6.790  -7.721   0.003  0.00  0.00    +0.059 A 
ATOM     20  C   UNL     1       5.438  -7.976   0.140  0.00  0.00    +0.025 A 
ATOM     21  I   UNL     1       7.927  -7.170   1.674  0.00  0.00    -0.040 I 
BRANCH  18  22
ATOM     22  O   UNL     1       8.722  -7.570  -1.378  0.00  0.00    -0.503 OA
ATOM     23  H   UNL     1       8.926  -6.646  -1.576  0.00  0.00    +0.292 HD
ENDBRANCH  18  22
BRANCH  17  24
ATOM     24  O   UNL     1       7.222  -8.296  -3.571  0.00  0.00    -0.491 OA
ATOM     25  C   UNL     1       6.383  -8.678  -4.663  0.00  0.00    +0.277 C 
ENDBRANCH  17  24
ENDBRANCH  11  15
BRANCH   1  26
ATOM     26  C   UNL     1       0.718  -0.497  -1.257  0.00  0.00    -0.032 C 
ATOM     27  C   UNL     1      -0.022   0.009  -2.496  0.00  0.00    +0.011 C 
ATOM     28  C   UNL     1       2.154   0.032  -1.268  0.00  0.00    +0.011 C 
BRANCH  26  30
ATOM     29  C   UNL     1      -0.019   1.526   0.010  0.00  0.00    +0.004 C 
ATOM     30  C   UNL     1       0.002  -0.004   0.002  0.00  0.00    +0.003 C 
ENDBRANCH  26  30
ENDBRANCH   1  26
BRANCH   9  31
ATOM     31  O   UNL     1       1.420  -6.880  -3.507  0.00  0.00    -0.492 OA
ATOM     32  H   UNL     1       1.468  -7.618  -4.130  0.00  0.00    +0.294 HD
ENDBRANCH   9  31
TORSDOF 6
