REMARK  Name = ZINC21162459
REMARK  6 active torsions:
REMARK  status: ('A' for Active; 'I' for Inactive)
REMARK    1  A    between atoms: C_1  and  C_2
REMARK    2  A    between atoms: C_7  and  N_12
REMARK    3  A    between atoms: C_9  and  C_11
REMARK    4  A    between atoms: C_13  and  C_15
REMARK    5  A    between atoms: N_29  and  C_30
REMARK    6  A    between atoms: C_30  and  C_31
REMARK                            x       y       z     vdW  Elec       q    Type
REMARK                         _______ _______ _______ _____ _____    ______ ____
ROOT
ATOM      1  C   UNL     1      -4.389   1.829  -0.930  0.00  0.00    +0.078 C 
ATOM      2  C   UNL     1      -4.891   3.271  -1.041  0.00  0.00    +0.032 C 
ATOM      3  C   UNL     1      -5.658   3.440  -2.355  0.00  0.00    +0.108 C 
ATOM      4  N   UNL     1      -6.789   2.504  -2.388  0.00  0.00    -0.302 N 
ATOM      5  C   UNL     1      -6.327   1.111  -2.331  0.00  0.00    +0.108 C 
ATOM      6  C   UNL     1      -5.582   0.872  -1.016  0.00  0.00    +0.032 C 
ATOM      7  C   UNL     1      -7.576   2.719  -3.500  0.00  0.00    +0.177 A 
ATOM      8  N   UNL     1      -7.615   1.944  -4.555  0.00  0.00    -0.327 N 
ATOM      9  C   UNL     1      -8.495   2.449  -5.459  0.00  0.00    +0.065 A 
ATOM     10  C   UNL     1      -8.915   2.033  -6.725  0.00  0.00    +0.028 A 
ATOM     11  C   UNL     1      -9.846   2.776  -7.415  0.00  0.00    +0.002 A 
ATOM     12  C   UNL     1     -10.371   3.935  -6.862  0.00  0.00    +0.002 A 
ATOM     13  C   UNL     1      -9.967   4.359  -5.613  0.00  0.00    +0.028 A 
ATOM     14  C   UNL     1      -9.030   3.623  -4.904  0.00  0.00    +0.068 A 
ATOM     15  N   UNL     1      -8.435   3.768  -3.662  0.00  0.00    -0.309 N 
ATOM     16  H   UNL     1      -6.987   1.042  -4.598  0.00  0.00    +0.169 HD
ENDROOT
BRANCH   1  18
ATOM     17  N   UNL     1      -2.602   2.383   0.687  0.00  0.00    -0.312 N 
ATOM     18  C   UNL     1      -3.686   1.640   0.389  0.00  0.00    +0.216 C 
ATOM     19  O   UNL     1      -4.096   0.820   1.183  0.00  0.00    -0.276 OA
ATOM     20  H   UNL     1      -2.230   3.127  -0.033  0.00  0.00    +0.149 HD
BRANCH  17  26
ATOM     21  C   UNL     1       0.201   0.972   3.578  0.00  0.00    +0.008 C 
ATOM     22  C   UNL     1       0.255   2.447   3.177  0.00  0.00    -0.009 C 
ATOM     23  C   UNL     1      -0.437   3.292   4.249  0.00  0.00    +0.003 C 
ATOM     24  C   UNL     1      -1.896   2.853   4.382  0.00  0.00    +0.002 C 
ATOM     25  C   UNL     1      -2.610   3.044   3.042  0.00  0.00    +0.022 C 
ATOM     26  C   UNL     1      -1.918   2.199   1.970  0.00  0.00    +0.076 C 
ATOM     27  C   UNL     1      -0.459   2.639   1.838  0.00  0.00    +0.009 C 
ATOM     28  C   UNL     1       0.233   1.794   0.766  0.00  0.00    +0.009 C 
ENDBRANCH  17  26
ENDBRANCH   1  18
BRANCH  15  29
ATOM     29  C   UNL     1      -8.679   4.847  -2.702  0.00  0.00    +0.163 C 
BRANCH  29  30
ATOM     30  C   UNL     1      -9.713   4.403  -1.700  0.00  0.00    +0.007 A 
ATOM     31  C   UNL     1      -9.318   3.835  -0.503  0.00  0.00    +0.008 A 
ATOM     32  C   UNL     1     -10.266   3.428   0.416  0.00  0.00    +0.000 A 
ATOM     33  C   UNL     1     -11.611   3.590   0.141  0.00  0.00    +0.003 A 
ATOM     34  C   UNL     1     -12.009   4.159  -1.054  0.00  0.00    +0.039 A 
ATOM     35  C   UNL     1     -11.060   4.570  -1.974  0.00  0.00    +0.128 A 
ATOM     36  F   UNL     1     -11.448   5.131  -3.140  0.00  0.00    -0.205 F 
ENDBRANCH  29  30
ENDBRANCH  15  29
TORSDOF 4
