REMARK  Name = ZINC25258314
REMARK  8 active torsions:
REMARK  status: ('A' for Active; 'I' for Inactive)
REMARK    1  A    between atoms: C_1  and  C_2
REMARK    2  A    between atoms: C_4  and  N_26
REMARK    3  A    between atoms: C_7  and  N_8
REMARK    4  A    between atoms: C_9  and  C_11
REMARK    5  A    between atoms: C_14  and  N_17
REMARK    6  A    between atoms: N_17  and  S_18
REMARK    7  A    between atoms: S_18  and  C_21
REMARK    8  A    between atoms: N_29  and  C_32
REMARK                            x       y       z     vdW  Elec       q    Type
REMARK                         _______ _______ _______ _____ _____    ______ ____
ROOT
ATOM      1  N   UNL     1      -3.333   4.552  -5.872  0.00  0.00    -0.281 N 
ATOM      2  C   UNL     1      -4.249   3.892  -6.609  0.00  0.00    +0.248 C 
ATOM      3  O   UNL     1      -4.652   2.804  -6.245  0.00  0.00    -0.270 OA
ATOM      4  H   UNL     1      -3.037   5.574  -6.151  0.00  0.00    +0.155 HD
ENDROOT
BRANCH   1  11
ATOM      5  C   UNL     1      -2.226   6.215  -3.848  0.00  0.00    +0.046 C 
ATOM      6  C   UNL     1      -2.207   4.712  -3.741  0.00  0.00    -0.027 A 
ATOM      7  C   UNL     1      -1.640   4.105  -2.638  0.00  0.00    +0.028 A 
ATOM      8  C   UNL     1      -1.622   2.720  -2.540  0.00  0.00    +0.030 A 
ATOM      9  C   UNL     1      -2.170   1.944  -3.554  0.00  0.00    +0.025 A 
ATOM     10  C   UNL     1      -2.741   2.551  -4.655  0.00  0.00    +0.025 A 
ATOM     11  C   UNL     1      -2.759   3.937  -4.753  0.00  0.00    +0.037 A 
BRANCH   8  12
ATOM     12  N   UNL     1      -1.047   2.105  -1.423  0.00  0.00    -0.333 N 
ATOM     13  C   UNL     1      -1.136   0.641  -1.523  0.00  0.00    +0.086 C 
ATOM     14  C   UNL     1      -0.428   0.007  -0.324  0.00  0.00    -0.060 C 
ATOM     15  N   UNL     1      -1.049   0.485   0.919  0.00  0.00    +0.380 N 
ATOM     16  C   UNL     1      -0.961   1.949   1.019  0.00  0.00    -0.060 C 
ATOM     17  C   UNL     1      -1.669   2.583  -0.180  0.00  0.00    +0.086 C 
ATOM     18  C   UNL     1      -0.445  -0.161   2.092  0.00  0.00    -0.096 C 
ATOM     19  H   UNL     1      -2.114   0.210   0.894  0.00  0.00    -0.082 HD
ENDBRANCH   8  12
ENDBRANCH   1  11
BRANCH   2  20
ATOM     20  C   UNL     1      -4.763   4.490  -7.856  0.00  0.00    +0.037 A 
ATOM     21  C   UNL     1      -4.305   5.744  -8.272  0.00  0.00    +0.015 A 
ATOM     22  C   UNL     1      -4.782   6.296  -9.438  0.00  0.00    +0.027 A 
ATOM     23  C   UNL     1      -5.728   5.613 -10.198  0.00  0.00    +0.074 A 
ATOM     24  C   UNL     1      -6.190   4.367  -9.783  0.00  0.00    +0.027 A 
ATOM     25  C   UNL     1      -5.712   3.806  -8.621  0.00  0.00    +0.015 A 
BRANCH  23  26
ATOM     26  N   UNL     1      -6.213   6.177 -11.373  0.00  0.00    -0.097 NA
BRANCH  26  27
ATOM     27  S   UNL     1      -7.734   6.829 -11.412  0.00  0.00    +0.098 S 
ATOM     28  O   UNL     1      -7.928   7.330 -12.728  0.00  0.00    -0.148 OA
ATOM     29  O   UNL     1      -8.603   5.869 -10.827  0.00  0.00    -0.148 OA
BRANCH  27  30
ATOM     30  C   UNL     1      -7.730   8.226 -10.338  0.00  0.00    +0.148 A 
ATOM     31  C   UNL     1      -7.528   9.532 -10.637  0.00  0.00    +0.037 A 
ATOM     32  C   UNL     1      -7.571  10.467  -9.620  0.00  0.00    +0.010 A 
ATOM     33  C   UNL     1      -7.815  10.050  -8.353  0.00  0.00    +0.047 A 
ATOM     34  S   UNL     1      -7.999   8.288  -8.574  0.00  0.00    -0.077 S 
ENDBRANCH  27  30
ENDBRANCH  26  27
ENDBRANCH  23  26
ENDBRANCH   2  20
TORSDOF 6
