REMARK  Name = ZINC08770073
REMARK  12 active torsions:
REMARK  status: ('A' for Active; 'I' for Inactive)
REMARK    1  A    between atoms: C_1  and  C_2
REMARK    2  A    between atoms: C_13  and  C_14
REMARK    3  A    between atoms: C_13  and  O_15
REMARK    4  A    between atoms: N_21  and  O_22
REMARK    5  A    between atoms: O_22  and  C_23
REMARK    6  A    between atoms: C_23  and  C_24
REMARK    7  A    between atoms: N_26  and  C_27
REMARK    8  A    between atoms: C_27  and  C_29
REMARK    9  A    between atoms: C_27  and  C_35
REMARK   10  A    between atoms: C_35  and  O_37
REMARK   11  A    between atoms: O_37  and  C_38
REMARK   12  A    between atoms: C_41  and  C_42
REMARK                            x       y       z     vdW  Elec       q    Type
REMARK                         _______ _______ _______ _____ _____    ______ ____
ROOT
ATOM      1  C   UNL     1       2.276   6.397   0.024  0.00  0.00    +0.014 C 
ATOM      2  C   UNL     1       0.932   6.205  -0.702  0.00  0.00    -0.000 C 
ATOM      3  C   UNL     1      -0.150   5.944   0.310  0.00  0.00    +0.010 C 
ATOM      4  C   UNL     1      -0.378   4.432   0.489  0.00  0.00    +0.005 C 
ATOM      5  C   UNL     1       0.921   3.673   0.282  0.00  0.00    +0.006 C 
ATOM      6  C   UNL     1       1.340   3.748  -1.189  0.00  0.00    -0.003 C 
ATOM      7  C   UNL     1       1.030   5.094  -1.765  0.00  0.00    +0.001 C 
ATOM      8  C   UNL     1       2.063   5.675  -2.743  0.00  0.00    +0.007 C 
ATOM      9  C   UNL     1       1.741   7.193  -2.764  0.00  0.00    +0.035 C 
ATOM     10  C   UNL     1       0.756   7.448  -1.593  0.00  0.00    +0.069 C 
ATOM     11  C   UNL     1      -0.665   7.577  -2.128  0.00  0.00    +0.042 C 
ATOM     12  C   UNL     1       2.803   3.320  -1.269  0.00  0.00    +0.008 C 
ATOM     13  C   UNL     1       2.860   1.813  -1.008  0.00  0.00    +0.032 C 
ATOM     14  C   UNL     1       1.824   1.348  -0.027  0.00  0.00    -0.058 C 
ATOM     15  C   UNL     1       1.733   0.015   0.186  0.00  0.00    +0.031 C 
ATOM     16  C   UNL     1       0.692  -0.400   1.176  0.00  0.00    +0.102 C 
ATOM     17  N   UNL     1       0.897  -1.321   2.076  0.00  0.00    -0.085 NA
ATOM     18  C   UNL     1      -0.606   0.331   1.041  0.00  0.00    +0.027 C 
ATOM     19  C   UNL     1      -0.494   1.656   0.813  0.00  0.00    -0.014 C 
ATOM     20  C   UNL     1       0.883   2.233   0.724  0.00  0.00    +0.011 C 
ATOM     21  C   UNL     1       1.413   2.275   2.155  0.00  0.00    +0.020 C 
ENDROOT
BRANCH  10  22
ATOM     22  O   UNL     1       1.135   8.617  -0.869  0.00  0.00    -0.388 OA
ATOM     23  H   UNL     1       1.125   9.428  -1.396  0.00  0.00    +0.210 HD
ENDBRANCH  10  22
BRANCH  17  24
ATOM     24  O   UNL     1      -0.135  -1.668   2.981  0.00  0.00    -0.384 OA
BRANCH  24  25
ATOM     25  C   UNL     1       0.227  -2.690   3.912  0.00  0.00    +0.358 C 
BRANCH  25  26
ATOM     26  C   UNL     1      -0.940  -2.978   4.821  0.00  0.00    +0.254 C 
ATOM     27  O   UNL     1      -1.979  -2.368   4.686  0.00  0.00    -0.272 OA
ATOM     28  N   UNL     1      -0.828  -3.914   5.785  0.00  0.00    -0.296 N 
ATOM     29  H   UNL     1       0.004  -4.402   5.893  0.00  0.00    +0.150 HD
BRANCH  28  30
ATOM     30  C   UNL     1      -1.962  -4.194   6.669  0.00  0.00    +0.213 C 
BRANCH  30  31
ATOM     31  C   UNL     1      -1.848  -5.598   7.203  0.00  0.00    -0.017 A 
ATOM     32  C   UNL     1      -0.613  -6.099   7.572  0.00  0.00    +0.006 A 
ATOM     33  C   UNL     1      -0.509  -7.386   8.066  0.00  0.00    +0.000 A 
ATOM     34  C   UNL     1      -1.638  -8.175   8.183  0.00  0.00    +0.000 A 
ATOM     35  C   UNL     1      -2.872  -7.676   7.809  0.00  0.00    +0.000 A 
ATOM     36  C   UNL     1      -2.977  -6.387   7.320  0.00  0.00    +0.006 A 
ENDBRANCH  30  31
BRANCH  30  37
ATOM     37  C   UNL     1      -1.957  -3.218   7.817  0.00  0.00    +0.332 C 
ATOM     38  O   UNL     1      -1.094  -2.375   7.890  0.00  0.00    -0.248 OA
BRANCH  37  39
ATOM     39  O   UNL     1      -2.910  -3.285   8.760  0.00  0.00    -0.466 OA
ATOM     40  C   UNL     1      -2.843  -2.313   9.836  0.00  0.00    +0.280 C 
ENDBRANCH  37  39
ENDBRANCH  30  37
ENDBRANCH  28  30
ENDBRANCH  25  26
ENDBRANCH  24  25
ENDBRANCH  17  24
TORSDOF 8
