REMARK  Name = ZINC39609213
REMARK  8 active torsions:
REMARK  status: ('A' for Active; 'I' for Inactive)
REMARK    1  A    between atoms: C_1  and  C_2
REMARK    2  A    between atoms: C_5  and  C_9
REMARK    3  A    between atoms: C_7  and  C_8
REMARK    4  A    between atoms: C_9  and  C_10
REMARK    5  A    between atoms: C_10  and  N_11
REMARK    6  A    between atoms: C_12  and  C_14
REMARK    7  A    between atoms: C_25  and  C_27
REMARK    8  A    between atoms: C_30  and  C_34
REMARK                            x       y       z     vdW  Elec       q    Type
REMARK                         _______ _______ _______ _____ _____    ______ ____
ROOT
ATOM      1  C   UNL     1       3.043  -7.899  -0.166  0.00  0.00    +0.100 C 
ATOM      2  C   UNL     1       2.149  -8.549  -1.244  0.00  0.00    +0.121 C 
ATOM      3  N   UNL     1       3.093  -8.988  -2.299  0.00  0.00    -0.296 N 
ATOM      4  C   UNL     1       4.265  -9.505  -1.553  0.00  0.00    +0.115 C 
ATOM      5  C   UNL     1       4.430  -8.531  -0.369  0.00  0.00    -0.004 C 
ATOM      6  C   UNL     1       4.854  -9.291   0.884  0.00  0.00    -0.010 C 
ATOM      7  C   UNL     1       6.260  -9.861   0.680  0.00  0.00    -0.082 C 
ATOM      8  N   UNL     1       7.199  -8.767   0.406  0.00  0.00    +0.379 N 
ATOM      9  C   UNL     1       6.838  -8.100  -0.851  0.00  0.00    -0.082 C 
ATOM     10  C   UNL     1       5.457  -7.455  -0.711  0.00  0.00    -0.010 C 
ATOM     11  C   UNL     1       2.923  -8.931  -3.635  0.00  0.00    +0.249 C 
ATOM     12  O   UNL     1       3.756  -9.419  -4.375  0.00  0.00    -0.270 OA
ATOM     13  H   UNL     1       7.164  -8.099   1.161  0.00  0.00    -0.086 HD
ATOM     14  H   UNL     1       8.134  -9.138   0.332  0.00  0.00    -0.086 HD
ENDROOT
BRANCH  11  15
ATOM     15  C   UNL     1       1.727  -8.275  -4.200  0.00  0.00    +0.072 A 
ATOM     16  C   UNL     1       0.501  -8.361  -3.538  0.00  0.00    +0.016 A 
ATOM     17  C   UNL     1      -0.612  -7.746  -4.071  0.00  0.00    +0.013 A 
ATOM     18  C   UNL     1      -0.518  -7.044  -5.261  0.00  0.00    +0.058 A 
ATOM     19  C   UNL     1       0.691  -6.953  -5.924  0.00  0.00    +0.051 A 
ATOM     20  C   UNL     1       1.818  -7.560  -5.399  0.00  0.00    +0.136 A 
ATOM     21  F   UNL     1       3.001  -7.466  -6.044  0.00  0.00    -0.205 F 
BRANCH  18  22
ATOM     22  C   UNL     1      -1.740  -6.375  -5.835  0.00  0.00    +0.418 C 
ATOM     23  F   UNL     1      -1.833  -5.069  -5.342  0.00  0.00    -0.166 F 
ATOM     24  F   UNL     1      -1.640  -6.341  -7.230  0.00  0.00    -0.166 F 
ATOM     25  F   UNL     1      -2.882  -7.095  -5.467  0.00  0.00    -0.166 F 
ENDBRANCH  18  22
ENDBRANCH  11  15
BRANCH   1  27
ATOM     26  N   UNL     1       3.336  -5.593   0.680  0.00  0.00    -0.315 N 
ATOM     27  C   UNL     1       3.112  -6.407  -0.370  0.00  0.00    +0.218 C 
ATOM     28  O   UNL     1       2.965  -5.940  -1.480  0.00  0.00    -0.275 OA
ATOM     29  H   UNL     1       3.453  -5.966   1.567  0.00  0.00    +0.149 HD
BRANCH  26  30
ATOM     30  C   UNL     1       3.402  -4.143   0.481  0.00  0.00    +0.109 C 
BRANCH  30  31
ATOM     31  C   UNL     1       3.665  -3.455   1.823  0.00  0.00    +0.054 C 
BRANCH  31  36
ATOM     32  C   UNL     1       3.927   2.264   1.042  0.00  0.00    +0.044 C 
ATOM     33  C   UNL     1       3.858   0.772   1.245  0.00  0.00    -0.048 A 
ATOM     34  C   UNL     1       2.647   0.168   1.527  0.00  0.00    +0.004 A 
ATOM     35  C   UNL     1       2.585  -1.200   1.714  0.00  0.00    +0.004 A 
ATOM     36  C   UNL     1       3.733  -1.964   1.618  0.00  0.00    -0.046 A 
ATOM     37  C   UNL     1       4.943  -1.360   1.335  0.00  0.00    +0.007 A 
ATOM     38  C   UNL     1       5.005   0.008   1.144  0.00  0.00    -0.047 A 
ATOM     39  C   UNL     1       6.324   0.666   0.830  0.00  0.00    +0.044 C 
ENDBRANCH  31  36
ENDBRANCH  30  31
ENDBRANCH  26  30
ENDBRANCH   1  27
TORSDOF 6
