REMARK  Name = ZINC14276967
REMARK  6 active torsions:
REMARK  status: ('A' for Active; 'I' for Inactive)
REMARK    1  A    between atoms: C_4  and  C_7
REMARK    2  A    between atoms: N_12  and  C_15
REMARK    3  A    between atoms: C_18  and  N_22
REMARK    4  A    between atoms: N_22  and  C_23
REMARK    5  A    between atoms: C_23  and  N_25
REMARK    6  A    between atoms: C_26  and  C_28
REMARK                            x       y       z     vdW  Elec       q    Type
REMARK                         _______ _______ _______ _____ _____    ______ ____
ROOT
ATOM      1  C   UNL     1      -4.143   7.516   2.171  0.00  0.00    +0.048 A 
ATOM      2  C   UNL     1      -4.825   8.717   2.026  0.00  0.00    +0.026 A 
ATOM      3  C   UNL     1      -5.686   9.146   3.017  0.00  0.00    +0.025 A 
ATOM      4  C   UNL     1      -5.871   8.376   4.158  0.00  0.00    +0.034 A 
ATOM      5  C   UNL     1      -5.189   7.175   4.303  0.00  0.00    +0.045 A 
ATOM      6  C   UNL     1      -4.332   6.743   3.310  0.00  0.00    +0.064 A 
ATOM      7 CL   UNL     1      -3.485   5.238   3.488  0.00  0.00    -0.082 Cl
ENDROOT
BRANCH   1  13
ATOM      8  C   UNL     1      -2.321   6.207  -2.698  0.00  0.00    +0.247 C 
ATOM      9  O   UNL     1      -2.745   5.166  -3.162  0.00  0.00    -0.270 OA
ATOM     10  N   UNL     1      -2.323   6.401  -1.364  0.00  0.00    -0.295 N 
ATOM     11  C   UNL     1      -1.925   7.694  -0.789  0.00  0.00    +0.127 C 
ATOM     12  C   UNL     1      -3.023   8.147   0.186  0.00  0.00    +0.124 C 
ATOM     13  N   UNL     1      -3.271   7.081   1.166  0.00  0.00    -0.326 N 
ATOM     14  C   UNL     1      -3.780   5.867   0.516  0.00  0.00    +0.124 C 
ATOM     15  C   UNL     1      -2.718   5.322  -0.445  0.00  0.00    +0.127 C 
BRANCH   8  19
ATOM     16  C   UNL     1      -0.833   9.232  -5.282  0.00  0.00    +0.000 A 
ATOM     17  C   UNL     1      -0.262   9.049  -4.035  0.00  0.00    +0.001 A 
ATOM     18  C   UNL     1      -0.744   8.072  -3.189  0.00  0.00    +0.013 A 
ATOM     19  C   UNL     1      -1.803   7.260  -3.597  0.00  0.00    +0.037 A 
ATOM     20  C   UNL     1      -2.372   7.446  -4.859  0.00  0.00    +0.013 A 
ATOM     21  C   UNL     1      -1.884   8.430  -5.693  0.00  0.00    +0.001 A 
ENDBRANCH   8  19
ENDBRANCH   1  13
BRANCH   4  22
ATOM     22  N   UNL     1      -6.745   8.812   5.162  0.00  0.00    -0.297 N 
ATOM     23  H   UNL     1      -6.497   8.719   6.095  0.00  0.00    +0.154 HD
BRANCH  22  24
ATOM     24  C   UNL     1      -7.932   9.360   4.832  0.00  0.00    +0.141 C 
ATOM     25  S   UNL     1      -8.429   9.402   3.195  0.00  0.00    -0.018 S 
BRANCH  24  26
ATOM     26  N   UNL     1      -8.726   9.875   5.791  0.00  0.00    -0.264 N 
ATOM     27  C   UNL     1      -9.912  10.423   5.461  0.00  0.00    +0.250 C 
ATOM     28  O   UNL     1     -10.266  10.453   4.299  0.00  0.00    -0.270 OA
ATOM     29  H   UNL     1      -8.444   9.851   6.719  0.00  0.00    +0.157 HD
BRANCH  27  30
ATOM     30  C   UNL     1     -10.783  10.988   6.512  0.00  0.00    +0.037 A 
ATOM     31  C   UNL     1     -10.383  10.950   7.850  0.00  0.00    +0.014 A 
ATOM     32  C   UNL     1     -11.198  11.483   8.826  0.00  0.00    +0.021 A 
ATOM     33  C   UNL     1     -12.416  12.046   8.483  0.00  0.00    +0.041 A 
ATOM     34  C   UNL     1     -12.821  12.081   7.159  0.00  0.00    +0.021 A 
ATOM     35  C   UNL     1     -12.013  11.556   6.173  0.00  0.00    +0.014 A 
ATOM     36 CL   UNL     1     -13.440  12.709   9.719  0.00  0.00    -0.084 Cl
ENDBRANCH  27  30
ENDBRANCH  24  26
ENDBRANCH  22  24
ENDBRANCH   4  22
TORSDOF 6
