REMARK  Name = ZINC39691403
REMARK  8 active torsions:
REMARK  status: ('A' for Active; 'I' for Inactive)
REMARK    1  A    between atoms: C_1  and  C_2
REMARK    2  A    between atoms: C_6  and  C_10
REMARK    3  A    between atoms: C_10  and  S_11
REMARK    4  A    between atoms: S_11  and  C_12
REMARK    5  A    between atoms: N_17  and  C_18
REMARK    6  A    between atoms: C_23  and  O_24
REMARK    7  A    between atoms: O_24  and  C_25
REMARK    8  A    between atoms: C_27  and  C_29
REMARK                            x       y       z     vdW  Elec       q    Type
REMARK                         _______ _______ _______ _____ _____    ______ ____
ROOT
ATOM      1  S   UNL     1       0.093  -2.224  -6.081  0.00  0.00    -0.089 S 
ENDROOT
BRANCH   1   2
ATOM      2  C   UNL     1       0.136  -3.405  -7.388  0.00  0.00    +0.160 A 
ATOM      3  N   UNL     1       0.397  -4.697  -7.340  0.00  0.00    -0.133 NA
ATOM      4  N   UNL     1       0.375  -5.443  -8.496  0.00  0.00    -0.125 NA
ATOM      5  C   UNL     1       0.093  -4.863  -9.646  0.00  0.00    +0.187 A 
ATOM      6  S   UNL     1      -0.172  -3.173  -9.133  0.00  0.00    -0.024 S 
ATOM      7  N   UNL     1       0.017  -5.420 -10.918  0.00  0.00    -0.289 N 
ATOM      8  H   UNL     1      -0.118  -4.849 -11.690  0.00  0.00    +0.154 HD
BRANCH   7   9
ATOM      9  C   UNL     1       0.134  -6.805 -11.084  0.00  0.00    +0.075 A 
ATOM     10  C   UNL     1       0.145  -7.640  -9.975  0.00  0.00    +0.027 A 
ATOM     11  C   UNL     1       0.261  -9.007 -10.142  0.00  0.00    +0.002 A 
ATOM     12  C   UNL     1       0.367  -9.546 -11.411  0.00  0.00    +0.004 A 
ATOM     13  C   UNL     1       0.357  -8.720 -12.520  0.00  0.00    +0.047 A 
ATOM     14  C   UNL     1       0.235  -7.349 -12.362  0.00  0.00    +0.141 A 
BRANCH  14  15
ATOM     15  O   UNL     1       0.220  -6.536 -13.452  0.00  0.00    -0.493 OA
ATOM     16  C   UNL     1       0.328  -7.164 -14.731  0.00  0.00    +0.277 C 
ENDBRANCH  14  15
ENDBRANCH   7   9
ENDBRANCH   1   2
BRANCH   1  17
ATOM     17  C   UNL     1       0.509  -3.191  -4.603  0.00  0.00    +0.150 C 
BRANCH  17  23
ATOM     18  C   UNL     1       0.245   1.524  -0.006  0.00  0.00    +0.041 C 
ATOM     19  C   UNL     1       0.539   0.046  -0.036  0.00  0.00    -0.034 C 
ATOM     20  C   UNL     1       0.507  -0.644  -1.185  0.00  0.00    +0.071 C 
ATOM     21  C   UNL     1       0.808  -2.090  -1.126  0.00  0.00    +0.112 C 
ATOM     22  N   UNL     1       0.791  -2.820  -2.217  0.00  0.00    -0.227 NA
ATOM     23  C   UNL     1       0.508  -2.289  -3.396  0.00  0.00    +0.134 C 
ATOM     24  N   UNL     1       0.227  -1.020  -3.569  0.00  0.00    -0.160 NA
ATOM     25  C   UNL     1       0.201  -0.140  -2.562  0.00  0.00    +0.271 C 
ATOM     26  O   UNL     1      -0.065   1.033  -2.759  0.00  0.00    -0.268 OA
ATOM     27  S   UNL     1       1.129  -2.415   0.589  0.00  0.00    -0.086 S 
ATOM     28  C   UNL     1       0.885  -0.708   1.228  0.00  0.00    +0.192 C 
BRANCH  28  29
ATOM     29  C   UNL     1      -0.254  -0.660   2.214  0.00  0.00    +0.373 C 
ATOM     30  O   UNL     1      -1.063  -1.571   2.256  0.00  0.00    -0.245 OA
ATOM     31  O   UNL     1      -0.366   0.290   2.970  0.00  0.00    -0.245 OA
ENDBRANCH  28  29
ENDBRANCH  17  23
ENDBRANCH   1  17
TORSDOF 6
