REMARK  Name = ZINC39662452
REMARK  8 active torsions:
REMARK  status: ('A' for Active; 'I' for Inactive)
REMARK    1  A    between atoms: C_1  and  C_2
REMARK    2  A    between atoms: C_2  and  C_3
REMARK    3  A    between atoms: C_3  and  C_5
REMARK    4  A    between atoms: C_3  and  C_11
REMARK    5  A    between atoms: C_15  and  C_24
REMARK    6  A    between atoms: N_26  and  C_27
REMARK    7  A    between atoms: C_27  and  C_29
REMARK    8  A    between atoms: C_27  and  C_31
REMARK                            x       y       z     vdW  Elec       q    Type
REMARK                         _______ _______ _______ _____ _____    ______ ____
ROOT
ATOM      1  C   UNL     1      -1.246  -1.749   0.171  0.00  0.00    +0.223 C 
ATOM      2  O   UNL     1      -1.736  -2.343  -0.767  0.00  0.00    -0.275 OA
ATOM      3  N   UNL     1      -0.741  -2.437   1.214  0.00  0.00    -0.300 N 
ATOM      4  C   UNL     1      -0.113  -1.893   2.441  0.00  0.00    +0.121 C 
ATOM      5  C   UNL     1      -0.626  -2.806   3.578  0.00  0.00    +0.100 C 
ATOM      6  C   UNL     1      -0.999  -4.126   2.884  0.00  0.00    -0.004 C 
ATOM      7  C   UNL     1      -0.693  -3.908   1.395  0.00  0.00    +0.115 C 
ATOM      8  C   UNL     1      -2.484  -4.421   3.073  0.00  0.00    -0.010 C 
ATOM      9  C   UNL     1      -2.819  -5.767   2.423  0.00  0.00    -0.082 C 
ATOM     10  N   UNL     1      -2.007  -6.824   3.037  0.00  0.00    +0.379 N 
ATOM     11  C   UNL     1      -0.584  -6.582   2.771  0.00  0.00    -0.082 C 
ATOM     12  C   UNL     1      -0.155  -5.271   3.436  0.00  0.00    -0.010 C 
ATOM     13  H   UNL     1      -2.165  -6.832   4.034  0.00  0.00    -0.086 HD
ATOM     14  H   UNL     1      -2.273  -7.718   2.651  0.00  0.00    -0.086 HD
ENDROOT
BRANCH   5  15
ATOM     15  C   UNL     1      -1.837  -2.195   4.235  0.00  0.00    +0.219 C 
ATOM     16  O   UNL     1      -2.589  -1.495   3.590  0.00  0.00    -0.275 OA
ATOM     17  N   UNL     1      -2.085  -2.426   5.540  0.00  0.00    -0.296 N 
ATOM     18  H   UNL     1      -1.484  -2.986   6.056  0.00  0.00    +0.150 HD
BRANCH  17  19
ATOM     19  C   UNL     1      -3.262  -1.833   6.178  0.00  0.00    +0.207 C 
BRANCH  19  20
ATOM     20  C   UNL     1      -3.018  -1.702   7.660  0.00  0.00    -0.013 A 
ATOM     21  C   UNL     1      -2.361  -2.708   8.343  0.00  0.00    +0.006 A 
ATOM     22  C   UNL     1      -2.136  -2.589   9.702  0.00  0.00    +0.000 A 
ATOM     23  C   UNL     1      -2.569  -1.463  10.377  0.00  0.00    +0.000 A 
ATOM     24  C   UNL     1      -3.225  -0.456   9.694  0.00  0.00    +0.000 A 
ATOM     25  C   UNL     1      -3.445  -0.574   8.334  0.00  0.00    +0.006 A 
ENDBRANCH  19  20
BRANCH  19  26
ATOM     26  C   UNL     1      -4.432  -2.695   5.948  0.00  0.00    +0.090 C 
ATOM     27  N   UNL     1      -5.336  -3.361   5.771  0.00  0.00    -0.194 NA
ENDBRANCH  19  26
ENDBRANCH  17  19
ENDBRANCH   5  15
BRANCH   1  28
ATOM     28  C   UNL     1      -1.202  -0.243   0.169  0.00  0.00    +0.105 C 
BRANCH  28  29
ATOM     29  C   UNL     1      -1.827   0.276  -1.101  0.00  0.00    -0.036 A 
ATOM     30  C   UNL     1      -1.297  -0.079  -2.327  0.00  0.00    +0.004 A 
ATOM     31  C   UNL     1      -1.870   0.397  -3.492  0.00  0.00    +0.000 A 
ATOM     32  C   UNL     1      -2.972   1.228  -3.430  0.00  0.00    +0.000 A 
ATOM     33  C   UNL     1      -3.502   1.583  -2.204  0.00  0.00    +0.000 A 
ATOM     34  C   UNL     1      -2.932   1.104  -1.039  0.00  0.00    +0.004 A 
ENDBRANCH  28  29
BRANCH  28  36
ATOM     35  C   UNL     1       0.291   1.750   0.374  0.00  0.00    +0.005 C 
ATOM     36  C   UNL     1       0.252   0.225   0.250  0.00  0.00    +0.014 C 
ENDBRANCH  28  36
ENDBRANCH   1  28
TORSDOF 7
