REMARK  Name = ZINC20271507
REMARK  10 active torsions:
REMARK  status: ('A' for Active; 'I' for Inactive)
REMARK    1  A    between atoms: C_1  and  C_2
REMARK    2  A    between atoms: N_4  and  C_5
REMARK    3  A    between atoms: C_8  and  C_11
REMARK    4  A    between atoms: N_13  and  C_14
REMARK    5  A    between atoms: N_13  and  C_20
REMARK    6  A    between atoms: C_14  and  C_15
REMARK    7  A    between atoms: C_20  and  C_21
REMARK    8  A    between atoms: C_26  and  O_38
REMARK    9  A    between atoms: C_30  and  N_31
REMARK   10  A    between atoms: O_38  and  C_39
REMARK                            x       y       z     vdW  Elec       q    Type
REMARK                         _______ _______ _______ _____ _____    ______ ____
ROOT
ATOM      1  C   UNL     1      -1.904   7.591   1.004  0.00  0.00    +0.147 C 
ENDROOT
BRANCH   1   2
ATOM      2  C   UNL     1      -2.463   8.559   2.015  0.00  0.00    +0.009 A 
ATOM      3  C   UNL     1      -1.700   9.596   2.461  0.00  0.00    +0.018 A 
ATOM      4  C   UNL     1      -2.259  10.479   3.406  0.00  0.00    -0.001 A 
ATOM      5  C   UNL     1      -1.526  11.568   3.905  0.00  0.00    +0.013 A 
ATOM      6  C   UNL     1      -2.091  12.404   4.818  0.00  0.00    +0.046 A 
ATOM      7  C   UNL     1      -3.399  12.195   5.266  0.00  0.00    +0.122 A 
ATOM      8  C   UNL     1      -4.144  11.138   4.796  0.00  0.00    +0.071 A 
ATOM      9  C   UNL     1      -3.585  10.259   3.855  0.00  0.00    +0.051 A 
ATOM     10  N   UNL     1      -4.287   9.223   3.380  0.00  0.00    -0.343 N 
ATOM     11  C   UNL     1      -3.771   8.397   2.492  0.00  0.00    +0.104 A 
ATOM     12  H   UNL     1      -5.315   9.049   3.730  0.00  0.00    +0.167 HD
BRANCH  11  13
ATOM     13  N   UNL     1      -4.538   7.341   2.024  0.00  0.00    -0.316 N 
ATOM     14  C   UNL     1      -5.927   7.773   1.753  0.00  0.00    +0.106 C 
ATOM     15  C   UNL     1      -6.860   6.618   1.506  0.00  0.00    +0.019 C 
ATOM     16  C   UNL     1      -7.534   6.239   2.841  0.00  0.00    +0.002 C 
ATOM     17  C   UNL     1      -6.655   5.450   3.697  0.00  0.00    +0.002 C 
ATOM     18  C   UNL     1      -5.371   6.216   4.079  0.00  0.00    +0.019 C 
ATOM     19  C   UNL     1      -4.420   6.164   2.914  0.00  0.00    +0.106 C 
ENDBRANCH  11  13
BRANCH   7  20
ATOM     20  O   UNL     1      -3.940  13.045   6.177  0.00  0.00    -0.495 OA
ATOM     21  C   UNL     1      -3.117  14.123   6.628  0.00  0.00    +0.277 C 
ENDBRANCH   7  20
ENDBRANCH   1   2
BRANCH   1  24
ATOM     22  C   UNL     1      -1.724   9.004  -0.973  0.00  0.00    +0.247 C 
ATOM     23  O   UNL     1      -0.861   9.643  -0.402  0.00  0.00    -0.270 OA
ATOM     24  N   UNL     1      -2.336   7.984  -0.339  0.00  0.00    -0.286 N 
BRANCH  22  28
ATOM     25  C   UNL     1      -2.807   9.985  -4.960  0.00  0.00    +0.033 A 
ATOM     26  C   UNL     1      -2.736   8.652  -4.568  0.00  0.00    +0.024 A 
ATOM     27  C   UNL     1      -2.380   8.330  -3.278  0.00  0.00    +0.015 A 
ATOM     28  C   UNL     1      -2.100   9.345  -2.358  0.00  0.00    +0.037 A 
ATOM     29  C   UNL     1      -2.178  10.683  -2.754  0.00  0.00    +0.015 A 
ATOM     30  C   UNL     1      -2.529  10.997  -4.047  0.00  0.00    +0.024 A 
BRANCH  25  34
ATOM     31  C   UNL     1      -4.596  10.017  -8.264  0.00  0.00    +0.109 C 
ATOM     32  C   UNL     1      -4.089   9.573  -6.916  0.00  0.00    +0.214 C 
ATOM     33  O   UNL     1      -4.515   8.555  -6.413  0.00  0.00    -0.276 OA
ATOM     34  N   UNL     1      -3.162  10.307  -6.270  0.00  0.00    -0.286 N 
ATOM     35  H   UNL     1      -2.686  11.160  -6.775  0.00  0.00    +0.155 HD
ENDBRANCH  25  34
ENDBRANCH  22  28
BRANCH  24  36
ATOM     36  C   UNL     1      -3.433   7.268  -0.995  0.00  0.00    +0.182 C 
BRANCH  36  37
ATOM     37  C   UNL     1      -2.953   5.909  -1.436  0.00  0.00    +0.122 A 
ATOM     38  C   UNL     1      -2.933   5.455  -2.702  0.00  0.00    +0.046 A 
ATOM     39  C   UNL     1      -2.410   4.142  -2.659  0.00  0.00    +0.041 A 
ATOM     40  C   UNL     1      -2.143   3.872  -1.368  0.00  0.00    +0.195 A 
ATOM     41  O   UNL     1      -2.469   4.948  -0.633  0.00  0.00    -0.466 OA
ENDBRANCH  36  37
ENDBRANCH  24  36
ENDBRANCH   1  24
TORSDOF 8
