REMARK  Name = ZINC39653015
REMARK  10 active torsions:
REMARK  status: ('A' for Active; 'I' for Inactive)
REMARK    1  A    between atoms: C_1  and  O_2
REMARK    2  A    between atoms: O_2  and  C_3
REMARK    3  A    between atoms: C_5  and  C_11
REMARK    4  A    between atoms: C_7  and  O_9
REMARK    5  A    between atoms: O_9  and  C_10
REMARK    6  A    between atoms: C_11  and  C_12
REMARK    7  A    between atoms: C_12  and  N_13
REMARK    8  A    between atoms: C_14  and  C_16
REMARK    9  A    between atoms: C_27  and  C_29
REMARK   10  A    between atoms: C_32  and  C_35
REMARK                            x       y       z     vdW  Elec       q    Type
REMARK                         _______ _______ _______ _____ _____    ______ ____
ROOT
ATOM      1  C   UNL     1      -2.712  -8.973   2.358  0.00  0.00    +0.100 C 
ATOM      2  C   UNL     1      -1.368  -9.227   1.640  0.00  0.00    +0.121 C 
ATOM      3  N   UNL     1      -0.395  -9.449   2.736  0.00  0.00    -0.296 N 
ATOM      4  C   UNL     1      -1.142 -10.250   3.735  0.00  0.00    +0.115 C 
ATOM      5  C   UNL     1      -2.562  -9.648   3.731  0.00  0.00    -0.004 C 
ATOM      6  C   UNL     1      -3.603 -10.751   3.895  0.00  0.00    -0.010 C 
ATOM      7  C   UNL     1      -3.471 -11.369   5.290  0.00  0.00    -0.082 C 
ATOM      8  N   UNL     1      -3.666 -10.329   6.307  0.00  0.00    +0.379 N 
ATOM      9  C   UNL     1      -2.605  -9.320   6.202  0.00  0.00    -0.082 C 
ATOM     10  C   UNL     1      -2.700  -8.616   4.846  0.00  0.00    -0.010 C 
ATOM     11  C   UNL     1       0.881  -9.021   2.807  0.00  0.00    +0.247 C 
ATOM     12  O   UNL     1       1.316  -8.264   1.961  0.00  0.00    -0.270 OA
ATOM     13  H   UNL     1      -4.562  -9.888   6.168  0.00  0.00    -0.086 HD
ATOM     14  H   UNL     1      -3.639 -10.749   7.224  0.00  0.00    -0.086 HD
ENDROOT
BRANCH  11  15
ATOM     15  C   UNL     1       1.751  -9.471   3.914  0.00  0.00    +0.037 A 
ATOM     16  C   UNL     1       1.440 -10.633   4.622  0.00  0.00    +0.013 A 
ATOM     17  C   UNL     1       2.257 -11.048   5.653  0.00  0.00    +0.013 A 
ATOM     18  C   UNL     1       3.382 -10.315   5.987  0.00  0.00    +0.055 A 
ATOM     19  C   UNL     1       3.695  -9.162   5.290  0.00  0.00    +0.013 A 
ATOM     20  C   UNL     1       2.890  -8.739   4.252  0.00  0.00    +0.013 A 
BRANCH  18  21
ATOM     21  C   UNL     1       4.269 -10.774   7.115  0.00  0.00    +0.417 C 
ATOM     22  F   UNL     1       5.259 -11.626   6.613  0.00  0.00    -0.166 F 
ATOM     23  F   UNL     1       4.871  -9.664   7.717  0.00  0.00    -0.166 F 
ATOM     24  F   UNL     1       3.501 -11.459   8.063  0.00  0.00    -0.166 F 
ENDBRANCH  18  21
ENDBRANCH  11  15
BRANCH   1  26
ATOM     25  N   UNL     1      -4.201  -7.022   2.670  0.00  0.00    -0.315 N 
ATOM     26  C   UNL     1      -2.947  -7.493   2.524  0.00  0.00    +0.218 C 
ATOM     27  O   UNL     1      -2.007  -6.727   2.525  0.00  0.00    -0.275 OA
ATOM     28  H   UNL     1      -4.953  -7.635   2.669  0.00  0.00    +0.149 HD
BRANCH  25  29
ATOM     29  C   UNL     1      -4.428  -5.584   2.832  0.00  0.00    +0.109 C 
BRANCH  29  30
ATOM     30  C   UNL     1      -5.928  -5.318   2.977  0.00  0.00    +0.054 C 
BRANCH  30  33
ATOM     31  C   UNL     1      -6.580  -1.681   2.182  0.00  0.00    +0.124 A 
ATOM     32  C   UNL     1      -6.364  -3.043   2.032  0.00  0.00    +0.049 A 
ATOM     33  C   UNL     1      -6.162  -3.838   3.143  0.00  0.00    -0.039 A 
ATOM     34  C   UNL     1      -6.176  -3.280   4.407  0.00  0.00    +0.049 A 
ATOM     35  C   UNL     1      -6.391  -1.918   4.563  0.00  0.00    +0.124 A 
ATOM     36  C   UNL     1      -6.588  -1.117   3.449  0.00  0.00    +0.091 A 
BRANCH  31  38
ATOM     37  C   UNL     1      -6.989   0.496   1.317  0.00  0.00    +0.277 C 
ATOM     38  O   UNL     1      -6.779  -0.899   1.088  0.00  0.00    -0.495 OA
ENDBRANCH  31  38
BRANCH  35  39
ATOM     39  O   UNL     1      -6.404  -1.369   5.806  0.00  0.00    -0.495 OA
ATOM     40  C   UNL     1      -6.631   0.039   5.891  0.00  0.00    +0.277 C 
ENDBRANCH  35  39
ENDBRANCH  30  33
ENDBRANCH  29  30
ENDBRANCH  25  29
ENDBRANCH   1  26
TORSDOF 8
