REMARK  Name = ZINC09732811
REMARK  3 active torsions:
REMARK  status: ('A' for Active; 'I' for Inactive)
REMARK    1  A    between atoms: C_9  and  N_11
REMARK    2  A    between atoms: N_14  and  N_15
REMARK    3  A    between atoms: C_16  and  C_18
REMARK                            x       y       z     vdW  Elec       q    Type
REMARK                         _______ _______ _______ _____ _____    ______ ____
ROOT
ATOM      1  N   UNL     1       4.147  -1.058   1.302  0.00  0.00    -0.291 N 
ATOM      2  C   UNL     1       5.090  -0.183   1.704  0.00  0.00    +0.316 C 
ATOM      3  O   UNL     1       5.457   0.702   0.956  0.00  0.00    -0.251 OA
ATOM      4  N   UNL     1       5.626  -0.289   2.936  0.00  0.00    -0.218 N 
ATOM      5  H   UNL     1       3.854  -1.764   1.899  0.00  0.00    +0.151 HD
ATOM      6  H   UNL     1       6.304   0.340   3.226  0.00  0.00    +0.174 HD
ENDROOT
BRANCH   1  15
ATOM      7  C   UNL     1      -0.017   1.377   0.010  0.00  0.00    +0.000 A 
ATOM      8  C   UNL     1       1.172   2.083   0.002  0.00  0.00    +0.000 A 
ATOM      9  C   UNL     1       2.376   1.406  -0.013  0.00  0.00    +0.006 A 
ATOM     10  C   UNL     1       2.396   0.021  -0.021  0.00  0.00    -0.024 A 
ATOM     11  C   UNL     1       1.208  -0.685  -0.013  0.00  0.00    -0.042 A 
ATOM     12  C   UNL     1       0.002  -0.004   0.002  0.00  0.00    +0.004 A 
ATOM     13  C   UNL     1       1.496  -2.171  -0.025  0.00  0.00    +0.037 C 
ATOM     14  C   UNL     1       2.966  -2.294  -0.480  0.00  0.00    +0.032 C 
ATOM     15  C   UNL     1       3.564  -0.942  -0.037  0.00  0.00    +0.105 C 
ENDBRANCH   1  15
BRANCH   4  16
ATOM     16  N   UNL     1       5.203  -1.309   3.798  0.00  0.00    -0.229 N 
ATOM     17  C   UNL     1       5.739  -1.416   5.030  0.00  0.00    +0.260 C 
ATOM     18  O   UNL     1       6.590  -0.627   5.393  0.00  0.00    -0.269 OA
ATOM     19  H   UNL     1       4.524  -1.939   3.509  0.00  0.00    +0.173 HD
BRANCH  17  20
ATOM     20  C   UNL     1       5.293  -2.491   5.940  0.00  0.00    +0.038 A 
ATOM     21  C   UNL     1       4.321  -3.402   5.523  0.00  0.00    +0.016 A 
ATOM     22  C   UNL     1       3.908  -4.404   6.375  0.00  0.00    +0.039 A 
ATOM     23  C   UNL     1       4.457  -4.508   7.644  0.00  0.00    +0.123 A 
ATOM     24  C   UNL     1       5.423  -3.606   8.063  0.00  0.00    +0.039 A 
ATOM     25  C   UNL     1       5.847  -2.604   7.217  0.00  0.00    +0.016 A 
ATOM     26  F   UNL     1       4.050  -5.492   8.476  0.00  0.00    -0.205 F 
ENDBRANCH  17  20
ENDBRANCH   4  16
TORSDOF 3
