REMARK  Name = ZINC08652381
REMARK  2 active torsions:
REMARK  status: ('A' for Active; 'I' for Inactive)
REMARK    1  A    between atoms: C_9  and  C_12
REMARK    2  A    between atoms: N_13  and  N_14
REMARK                            x       y       z     vdW  Elec       q    Type
REMARK                         _______ _______ _______ _____ _____    ______ ____
ROOT
ATOM      1  C   UNL     1       0.135   1.107   0.009  0.00  0.00    +0.000 A 
ATOM      2  C   UNL     1       1.305   1.843   0.022  0.00  0.00    +0.000 A 
ATOM      3  C   UNL     1       1.248   3.221   0.036  0.00  0.00    +0.004 A 
ATOM      4  C   UNL     1       0.022   3.877   0.037  0.00  0.00    -0.044 A 
ATOM      5  C   UNL     1      -1.143   3.143   0.019  0.00  0.00    -0.044 A 
ATOM      6  C   UNL     1      -1.082   1.756   0.002  0.00  0.00    +0.004 A 
ATOM      7  C   UNL     1      -2.505   3.787   0.003  0.00  0.00    +0.036 C 
ATOM      8  C   UNL     1      -2.416   5.243   0.454  0.00  0.00    +0.014 C 
ATOM      9  C   UNL     1      -1.322   5.938  -0.366  0.00  0.00    +0.036 C 
ATOM     10  C   UNL     1       0.032   5.382   0.068  0.00  0.00    +0.044 C 
ENDROOT
BRANCH   9  11
ATOM     11  C   UNL     1      -1.366   7.423  -0.116  0.00  0.00    +0.107 C 
ATOM     12  N   UNL     1      -1.482   8.235  -1.098  0.00  0.00    -0.191 NA
BRANCH  12  13
ATOM     13  N   UNL     1      -1.700   7.742  -2.392  0.00  0.00    -0.191 N 
ATOM     14  C   UNL     1      -1.713   8.588  -3.442  0.00  0.00    +0.317 C 
ATOM     15  O   UNL     1      -1.902   8.160  -4.564  0.00  0.00    -0.251 OA
ATOM     16  N   UNL     1      -1.518   9.907  -3.247  0.00  0.00    -0.312 N 
ATOM     17  H   UNL     1      -1.840   6.793  -2.532  0.00  0.00    +0.179 HD
ATOM     18  H   UNL     1      -1.367  10.248  -2.351  0.00  0.00    +0.147 HD
ATOM     19  H   UNL     1      -1.527  10.515  -4.002  0.00  0.00    +0.147 HD
ENDBRANCH  12  13
ENDBRANCH   9  11
TORSDOF 2
