REMARK  Name = ZINC09244742
REMARK  10 active torsions:
REMARK  status: ('A' for Active; 'I' for Inactive)
REMARK    1  A    between atoms: C_1  and  C_2
REMARK    2  A    between atoms: C_2  and  N_3
REMARK    3  A    between atoms: C_7  and  C_30
REMARK    4  A    between atoms: C_8  and  C_29
REMARK    5  A    between atoms: C_12  and  S_13
REMARK    6  A    between atoms: S_13  and  C_14
REMARK    7  A    between atoms: C_14  and  C_15
REMARK    8  A    between atoms: N_20  and  C_21
REMARK    9  A    between atoms: C_24  and  C_28
REMARK   10  A    between atoms: C_26  and  C_27
REMARK                            x       y       z     vdW  Elec       q    Type
REMARK                         _______ _______ _______ _____ _____    ______ ____
ROOT
ATOM      1  C   UNL     1       1.280   2.114   0.035  0.00  0.00    +0.173 C 
ENDROOT
BRANCH   1   2
ATOM      2  C   UNL     1      -0.015   1.343   0.030  0.00  0.00    +0.231 C 
ATOM      3  O   UNL     1      -1.073   1.935   0.030  0.00  0.00    -0.274 OA
ATOM      4  N   UNL     1       0.003  -0.004   0.018  0.00  0.00    -0.239 N 
ATOM      5  C   UNL     1      -1.155  -0.694   0.013  0.00  0.00    +0.310 C 
ATOM      6  O   UNL     1      -2.216  -0.100   0.018  0.00  0.00    -0.252 OA
ATOM      7  N   UNL     1      -1.137  -2.041   0.002  0.00  0.00    -0.269 N 
ATOM      8  H   UNL     1       0.849  -0.478   0.014  0.00  0.00    +0.159 HD
ATOM      9  H   UNL     1      -0.295  -2.514  -0.085  0.00  0.00    +0.156 HD
BRANCH   7  10
ATOM     10  C   UNL     1      -2.334  -2.758   0.115  0.00  0.00    +0.038 A 
ATOM     11  C   UNL     1      -3.435  -2.181   0.735  0.00  0.00    +0.024 A 
ATOM     12  C   UNL     1      -4.614  -2.891   0.845  0.00  0.00    +0.005 A 
ATOM     13  C   UNL     1      -4.700  -4.175   0.339  0.00  0.00    -0.050 A 
ATOM     14  C   UNL     1      -3.606  -4.752  -0.279  0.00  0.00    +0.008 A 
ATOM     15  C   UNL     1      -2.425  -4.045  -0.397  0.00  0.00    -0.029 A 
ATOM     16  C   UNL     1      -1.235  -4.673  -1.075  0.00  0.00    +0.045 C 
ATOM     17  C   UNL     1      -5.989  -4.946   0.460  0.00  0.00    +0.044 C 
ENDBRANCH   7  10
ENDBRANCH   1   2
BRANCH   1  18
ATOM     18  S   UNL     1       0.925   3.889   0.050  0.00  0.00    -0.078 S 
BRANCH  18  28
ATOM     19  N   UNL     1       2.763   5.879   0.066  0.00  0.00    -0.288 N 
ATOM     20  C   UNL     1       4.002   6.404   0.071  0.00  0.00    +0.263 A 
ATOM     21  O   UNL     1       4.160   7.613   0.081  0.00  0.00    -0.267 OA
ATOM     22  C   UNL     1       5.131   5.526   0.064  0.00  0.00    +0.075 A 
ATOM     23  C   UNL     1       6.548   5.849   0.066  0.00  0.00    -0.026 A 
ATOM     24  C   UNL     1       7.447   4.854   0.058  0.00  0.00    -0.008 A 
ATOM     25  S   UNL     1       6.438   3.385   0.045  0.00  0.00    -0.073 S 
ATOM     26  C   UNL     1       4.837   4.150   0.052  0.00  0.00    +0.117 A 
ATOM     27  N   UNL     1       3.589   3.697   0.053  0.00  0.00    -0.216 NA
ATOM     28  C   UNL     1       2.567   4.529   0.055  0.00  0.00    +0.173 A 
ATOM     29  C   UNL     1       8.950   4.954   0.058  0.00  0.00    +0.052 C 
ATOM     30  C   UNL     1       7.002   7.286   0.079  0.00  0.00    +0.045 C 
BRANCH  19  32
ATOM     31  C   UNL     1       1.200   7.074   1.518  0.00  0.00    +0.027 C 
ATOM     32  C   UNL     1       1.603   6.774   0.073  0.00  0.00    +0.124 C 
ENDBRANCH  19  32
ENDBRANCH  18  28
ENDBRANCH   1  18
TORSDOF 5
