REMARK  Name = ZINC02198504
REMARK  10 active torsions:
REMARK  status: ('A' for Active; 'I' for Inactive)
REMARK    1  A    between atoms: C_1  and  C_2
REMARK    2  A    between atoms: C_5  and  C_36
REMARK    3  A    between atoms: C_6  and  S_8
REMARK    4  A    between atoms: S_8  and  C_11
REMARK    5  A    between atoms: N_22  and  N_25
REMARK    6  A    between atoms: C_23  and  N_24
REMARK    7  A    between atoms: C_26  and  C_27
REMARK    8  A    between atoms: C_30  and  N_33
REMARK    9  A    between atoms: N_33  and  C_34
REMARK   10  A    between atoms: N_33  and  C_35
REMARK                            x       y       z     vdW  Elec       q    Type
REMARK                         _______ _______ _______ _____ _____    ______ ____
ROOT
ATOM      1  C   UNL     1       1.364  -0.372  -0.022  0.00  0.00    +0.162 A 
ATOM      2  C   UNL     1      -0.003  -0.003   0.011  0.00  0.00    +0.137 A 
ATOM      3  C   UNL     1      -0.024   1.466   0.025  0.00  0.00    +0.184 A 
ATOM      4  N   UNL     1      -1.175   2.100   0.050  0.00  0.00    -0.224 NA
ATOM      5  C   UNL     1      -2.319   1.404   0.072  0.00  0.00    +0.092 A 
ATOM      6  C   UNL     1      -3.555   2.076   0.104  0.00  0.00    +0.030 A 
ATOM      7  C   UNL     1      -4.713   1.362   0.121  0.00  0.00    +0.002 A 
ATOM      8  C   UNL     1      -4.697  -0.032   0.109  0.00  0.00    +0.002 A 
ATOM      9  C   UNL     1      -3.522  -0.716   0.078  0.00  0.00    +0.030 A 
ATOM     10  C   UNL     1      -2.302  -0.013   0.059  0.00  0.00    +0.090 A 
ATOM     11  N   UNL     1      -1.141  -0.677   0.029  0.00  0.00    -0.240 NA
ATOM     12  N   UNL     1       1.295   1.871   0.000  0.00  0.00    -0.197 N 
ATOM     13  C   UNL     1       2.105   0.761  -0.027  0.00  0.00    +0.148 A 
ENDROOT
BRANCH   1  14
ATOM     14  S   UNL     1       1.990  -2.019  -0.051  0.00  0.00    +0.031 S 
ATOM     15  O   UNL     1       3.310  -1.961   0.472  0.00  0.00    -0.164 OA
ATOM     16  O   UNL     1       0.982  -2.847   0.513  0.00  0.00    -0.164 OA
BRANCH  14  22
ATOM     17  C   UNL     1       4.865  -3.382  -4.198  0.00  0.00    +0.044 C 
ATOM     18  C   UNL     1       3.505  -3.109  -3.609  0.00  0.00    -0.049 A 
ATOM     19  C   UNL     1       2.374  -3.226  -4.397  0.00  0.00    +0.004 A 
ATOM     20  C   UNL     1       1.127  -2.975  -3.857  0.00  0.00    +0.005 A 
ATOM     21  C   UNL     1       1.010  -2.607  -2.530  0.00  0.00    -0.025 A 
ATOM     22  C   UNL     1       2.140  -2.489  -1.742  0.00  0.00    +0.097 A 
ATOM     23  C   UNL     1       3.388  -2.735  -2.284  0.00  0.00    +0.031 A 
ATOM     24  C   UNL     1      -0.350  -2.332  -1.941  0.00  0.00    +0.046 C 
ENDBRANCH  14  22
ENDBRANCH   1  14
BRANCH  13  25
ATOM     25  N   UNL     1       3.488   0.796  -0.056  0.00  0.00    -0.341 N 
ATOM     26  H   UNL     1       3.994  -0.032  -0.074  0.00  0.00    +0.144 HD
ATOM     27  H   UNL     1       3.952   1.648  -0.058  0.00  0.00    +0.144 HD
ENDBRANCH  13  25
BRANCH  12  28
ATOM     28  N   UNL     1       1.738   3.200   0.003  0.00  0.00    -0.171 NA
ATOM     29  C   UNL     1       1.967   3.805   1.128  0.00  0.00    +0.141 C 
BRANCH  29  30
ATOM     30  C   UNL     1       2.433   5.204   1.131  0.00  0.00    -0.005 A 
ATOM     31  C   UNL     1       2.633   5.878  -0.077  0.00  0.00    +0.011 A 
ATOM     32  C   UNL     1       3.063   7.187  -0.070  0.00  0.00    +0.024 A 
ATOM     33  C   UNL     1       3.308   7.834   1.137  0.00  0.00    +0.029 A 
ATOM     34  C   UNL     1       3.115   7.164   2.341  0.00  0.00    +0.024 A 
ATOM     35  C   UNL     1       2.680   5.857   2.342  0.00  0.00    +0.011 A 
BRANCH  33  36
ATOM     36  N   UNL     1       3.748   9.157   1.140  0.00  0.00    -0.336 N 
ATOM     37  C   UNL     1       3.887   9.880   2.406  0.00  0.00    +0.129 C 
ATOM     38  C   UNL     1       4.073   9.824  -0.124  0.00  0.00    +0.129 C 
ENDBRANCH  33  36
ENDBRANCH  29  30
ENDBRANCH  12  28
TORSDOF 6
