REMARK  Name = ZINC36027282
REMARK  8 active torsions:
REMARK  status: ('A' for Active; 'I' for Inactive)
REMARK    1  A    between atoms: C_1  and  C_2
REMARK    2  A    between atoms: C_2  and  C_3
REMARK    3  A    between atoms: C_3  and  C_5
REMARK    4  A    between atoms: C_3  and  N_6
REMARK    5  A    between atoms: C_9  and  C_28
REMARK    6  A    between atoms: N_15  and  S_18
REMARK    7  A    between atoms: S_18  and  C_21
REMARK    8  A    between atoms: C_28  and  C_29
REMARK                            x       y       z     vdW  Elec       q    Type
REMARK                         _______ _______ _______ _____ _____    ______ ____
ROOT
ATOM      1  N   UNL     1      -2.005  -0.061   1.399  0.00  0.00    -0.311 N 
ATOM      2  C   UNL     1      -1.459  -0.234   2.620  0.00  0.00    +0.201 C 
ATOM      3  O   UNL     1      -0.412  -0.800   2.854  0.00  0.00    -0.277 OA
ATOM      4  C   UNL     1      -2.372   0.397   3.648  0.00  0.00    +0.023 C 
ATOM      5  N   UNL     1      -3.666   0.576   2.946  0.00  0.00    +0.401 N 
ATOM      6  C   UNL     1      -3.263   0.680   1.526  0.00  0.00    +0.006 C 
ATOM      7  C   UNL     1      -4.337   0.055   0.639  0.00  0.00    +0.023 C 
ATOM      8  C   UNL     1      -3.894   0.129  -0.826  0.00  0.00    +0.109 C 
ATOM      9  N   UNL     1      -3.567   1.524  -1.151  0.00  0.00    -0.177 NA
ATOM     10  C   UNL     1      -2.598   2.238  -0.308  0.00  0.00    +0.109 C 
ATOM     11  C   UNL     1      -3.052   2.147   1.152  0.00  0.00    +0.023 C 
ATOM     12  H   UNL     1      -4.264  -0.223   3.093  0.00  0.00    -0.082 HD
ATOM     13  H   UNL     1      -4.121   1.424   3.248  0.00  0.00    -0.082 HD
ENDROOT
BRANCH   9  14
ATOM     14  S   UNL     1      -4.279   2.279  -2.442  0.00  0.00    +0.061 S 
ATOM     15  O   UNL     1      -3.405   3.330  -2.830  0.00  0.00    -0.153 OA
ATOM     16  O   UNL     1      -4.682   1.253  -3.339  0.00  0.00    -0.153 OA
BRANCH  14  17
ATOM     17  C   UNL     1      -5.754   3.041  -1.852  0.00  0.00    +0.106 A 
ATOM     18  C   UNL     1      -6.945   2.339  -1.860  0.00  0.00    +0.030 A 
ATOM     19  C   UNL     1      -8.102   2.936  -1.397  0.00  0.00    +0.022 A 
ATOM     20  C   UNL     1      -8.069   4.236  -0.926  0.00  0.00    +0.041 A 
ATOM     21  C   UNL     1      -6.876   4.938  -0.918  0.00  0.00    +0.022 A 
ATOM     22  C   UNL     1      -5.718   4.338  -1.375  0.00  0.00    +0.030 A 
ATOM     23 CL   UNL     1      -9.522   4.987  -0.345  0.00  0.00    -0.084 Cl
ENDBRANCH  14  17
ENDBRANCH   9  14
BRANCH   1  24
ATOM     24  C   UNL     1      -1.427  -0.534   0.139  0.00  0.00    +0.071 C 
ATOM     25  C   UNL     1      -1.874  -1.975  -0.118  0.00  0.00    +0.028 C 
BRANCH  24  27
ATOM     26  C   UNL     1       0.551   0.966   0.424  0.00  0.00    +0.005 C 
ATOM     27  C   UNL     1       0.100  -0.483   0.227  0.00  0.00    +0.019 C 
ENDBRANCH  24  27
ENDBRANCH   1  24
BRANCH   4  28
ATOM     28  C   UNL     1      -2.541  -0.532   4.853  0.00  0.00    +0.028 C 
BRANCH  28  29
ATOM     29  C   UNL     1      -3.382   0.151   5.900  0.00  0.00    -0.048 A 
ATOM     30  C   UNL     1      -2.779   0.929   6.871  0.00  0.00    +0.003 A 
ATOM     31  C   UNL     1      -3.550   1.556   7.831  0.00  0.00    +0.000 A 
ATOM     32  C   UNL     1      -4.924   1.405   7.821  0.00  0.00    +0.000 A 
ATOM     33  C   UNL     1      -5.527   0.627   6.850  0.00  0.00    +0.000 A 
ATOM     34  C   UNL     1      -4.756   0.004   5.887  0.00  0.00    +0.003 A 
ENDBRANCH  28  29
ENDBRANCH   4  28
TORSDOF 6
