REMARK  Name = ZINC09237835
REMARK  8 active torsions:
REMARK  status: ('A' for Active; 'I' for Inactive)
REMARK    1  A    between atoms: C_1  and  C_2
REMARK    2  A    between atoms: C_6  and  N_9
REMARK    3  A    between atoms: C_7  and  C_8
REMARK    4  A    between atoms: C_10  and  C_12
REMARK    5  A    between atoms: C_14  and  C_24
REMARK    6  A    between atoms: C_18  and  C_23
REMARK    7  A    between atoms: C_27  and  O_31
REMARK    8  A    between atoms: O_31  and  C_32
REMARK                            x       y       z     vdW  Elec       q    Type
REMARK                         _______ _______ _______ _____ _____    ______ ____
ROOT
ATOM      1  C   UNL     1      -0.011   1.503   0.024  0.00  0.00    +0.166 C 
ATOM      2  C   UNL     1      -0.745   2.000   1.276  0.00  0.00    +0.140 C 
ATOM      3  N   UNL     1      -0.528   3.435   1.461  0.00  0.00    -0.272 N 
ATOM      4  N   UNL     1      -0.961   4.191   0.420  0.00  0.00    -0.225 N 
ATOM      5  C   UNL     1      -1.285   5.518   0.431  0.00  0.00    +0.148 A 
ATOM      6  N   UNL     1      -1.635   5.842  -0.784  0.00  0.00    -0.132 NA
ATOM      7  N   UNL     1      -1.560   4.814  -1.557  0.00  0.00    -0.121 NA
ATOM      8  C   UNL     1      -1.159   3.782  -0.869  0.00  0.00    +0.209 A 
ATOM      9  S   UNL     1      -0.905   2.128  -1.432  0.00  0.00    -0.069 S 
ATOM     10  C   UNL     1      -1.244   6.437   1.624  0.00  0.00    +0.090 C 
ATOM     11  H   UNL     1       0.439   3.630   1.672  0.00  0.00    +0.167 HD
ENDROOT
BRANCH   2  12
ATOM     12  C   UNL     1      -0.230   1.258   2.483  0.00  0.00    -0.023 A 
ATOM     13  C   UNL     1      -0.950   0.198   3.001  0.00  0.00    +0.009 A 
ATOM     14  C   UNL     1      -0.479  -0.484   4.106  0.00  0.00    +0.047 A 
ATOM     15  C   UNL     1       0.717  -0.104   4.697  0.00  0.00    +0.134 A 
ATOM     16  C   UNL     1       1.438   0.960   4.175  0.00  0.00    +0.060 A 
ATOM     17  C   UNL     1       0.966   1.636   3.066  0.00  0.00    +0.024 A 
ATOM     18 BR   UNL     1       3.070   1.482   4.977  0.00  0.00    -0.047 Br
BRANCH  15  19
ATOM     19  O   UNL     1       1.182  -0.774   5.785  0.00  0.00    -0.494 OA
ATOM     20  C   UNL     1       0.388  -1.859   6.267  0.00  0.00    +0.277 C 
ENDBRANCH  15  19
ENDBRANCH   2  12
BRANCH   1  22
ATOM     21  N   UNL     1       1.064  -0.661  -0.505  0.00  0.00    -0.284 N 
ATOM     22  C   UNL     1       0.004  -0.004   0.005  0.00  0.00    +0.233 C 
ATOM     23  O   UNL     1      -0.939  -0.625   0.449  0.00  0.00    -0.274 OA
ATOM     24  H   UNL     1       1.781  -0.167  -0.932  0.00  0.00    +0.155 HD
BRANCH  21  30
ATOM     25  C   UNL     1       2.781  -4.931  -2.233  0.00  0.00    +0.044 C 
ATOM     26  C   UNL     1       1.956  -4.151  -1.243  0.00  0.00    -0.046 A 
ATOM     27  C   UNL     1       1.262  -4.814  -0.247  0.00  0.00    +0.004 A 
ATOM     28  C   UNL     1       0.503  -4.102   0.663  0.00  0.00    +0.002 A 
ATOM     29  C   UNL     1       0.440  -2.724   0.584  0.00  0.00    +0.023 A 
ATOM     30  C   UNL     1       1.131  -2.056  -0.418  0.00  0.00    +0.037 A 
ATOM     31  C   UNL     1       1.892  -2.774  -1.331  0.00  0.00    -0.026 A 
ATOM     32  C   UNL     1       2.648  -2.052  -2.416  0.00  0.00    +0.046 C 
ENDBRANCH  21  30
ENDBRANCH   1  22
TORSDOF 4
