REMARK  Name = ZINC20106914
REMARK  6 active torsions:
REMARK  status: ('A' for Active; 'I' for Inactive)
REMARK    1  A    between atoms: C_1  and  C_2
REMARK    2  A    between atoms: C_5  and  N_8
REMARK    3  A    between atoms: C_9  and  C_11
REMARK    4  A    between atoms: N_22  and  C_34
REMARK    5  A    between atoms: C_23  and  C_25
REMARK    6  A    between atoms: N_27  and  C_28
REMARK                            x       y       z     vdW  Elec       q    Type
REMARK                         _______ _______ _______ _____ _____    ______ ____
ROOT
ATOM      1  C   UNL     1      -3.885   3.361  -4.810  0.00  0.00    +0.123 C 
ATOM      2  C   UNL     1      -2.723   3.359  -5.855  0.00  0.00    +0.155 C 
ATOM      3  C   UNL     1      -2.568   4.801  -6.352  0.00  0.00    +0.004 C 
ATOM      4  C   UNL     1      -2.008   5.506  -5.361  0.00  0.00    +0.009 C 
ATOM      5  C   UNL     1      -1.862   4.515  -4.262  0.00  0.00    +0.127 C 
ATOM      6  C   UNL     1      -3.300   4.239  -3.689  0.00  0.00    +0.128 C 
ATOM      7  C   UNL     1      -2.964   3.501  -2.424  0.00  0.00    +0.224 C 
ATOM      8  O   UNL     1      -3.688   2.708  -1.858  0.00  0.00    -0.275 OA
ATOM      9  N   UNL     1      -1.722   3.863  -2.011  0.00  0.00    -0.283 N 
ATOM     10  C   UNL     1      -1.069   4.739  -3.013  0.00  0.00    +0.199 C 
ATOM     11  O   UNL     1      -1.566   3.268  -4.946  0.00  0.00    -0.358 OA
ENDROOT
BRANCH   9  12
ATOM     12  C   UNL     1      -1.109   3.440  -0.750  0.00  0.00    +0.077 C 
ATOM     13  C   UNL     1      -1.013   1.913  -0.716  0.00  0.00    +0.022 C 
ATOM     14  C   UNL     1      -0.372   1.472   0.601  0.00  0.00    +0.002 C 
ATOM     15  C   UNL     1      -1.229   1.955   1.773  0.00  0.00    +0.000 C 
ATOM     16  C   UNL     1      -1.325   3.482   1.739  0.00  0.00    +0.002 C 
ATOM     17  C   UNL     1      -1.966   3.924   0.422  0.00  0.00    +0.022 C 
ENDBRANCH   9  12
BRANCH   1  19
ATOM     18  N   UNL     1      -5.408   1.629  -3.916  0.00  0.00    -0.285 N 
ATOM     19  C   UNL     1      -4.165   1.966  -4.312  0.00  0.00    +0.224 C 
ATOM     20  O   UNL     1      -3.272   1.147  -4.269  0.00  0.00    -0.275 OA
ATOM     21  H   UNL     1      -6.234   2.348  -4.024  0.00  0.00    +0.155 HD
BRANCH  18  26
ATOM     22  C   UNL     1      -6.381  -3.495  -1.685  0.00  0.00    +0.044 C 
ATOM     23  C   UNL     1      -6.123  -2.134  -2.277  0.00  0.00    -0.050 A 
ATOM     24  C   UNL     1      -6.811  -1.033  -1.802  0.00  0.00    +0.005 A 
ATOM     25  C   UNL     1      -6.576   0.216  -2.343  0.00  0.00    +0.023 A 
ATOM     26  C   UNL     1      -5.648   0.365  -3.365  0.00  0.00    +0.033 A 
ATOM     27  C   UNL     1      -4.963  -0.744  -3.844  0.00  0.00    +0.023 A 
ATOM     28  C   UNL     1      -5.198  -1.989  -3.295  0.00  0.00    +0.005 A 
ENDBRANCH  18  26
ENDBRANCH   1  19
BRANCH  10  29
ATOM     29  C   UNL     1      -1.153   6.183  -2.587  0.00  0.00    +0.237 C 
ATOM     30  O   UNL     1      -1.966   6.523  -1.754  0.00  0.00    -0.274 OA
ATOM     31  N   UNL     1      -0.324   7.095  -3.131  0.00  0.00    -0.311 N 
ATOM     32  H   UNL     1       0.413   6.787  -3.887  0.00  0.00    +0.149 HD
BRANCH  31  33
ATOM     33  C   UNL     1      -0.406   8.498  -2.717  0.00  0.00    +0.073 C 
ATOM     34  C   UNL     1      -1.487   9.209  -3.533  0.00  0.00    +0.022 C 
ATOM     35  C   UNL     1      -1.572  10.674  -3.100  0.00  0.00    +0.002 C 
ATOM     36  C   UNL     1      -0.223  11.355  -3.338  0.00  0.00    +0.000 C 
ATOM     37  C   UNL     1       0.859  10.644  -2.522  0.00  0.00    +0.002 C 
ATOM     38  C   UNL     1       0.944   9.179  -2.955  0.00  0.00    +0.022 C 
ENDBRANCH  31  33
ENDBRANCH  10  29
TORSDOF 5
