REMARK  Name = ZINC33009449
REMARK  5 active torsions:
REMARK  status: ('A' for Active; 'I' for Inactive)
REMARK    1  A    between atoms: C_4  and  C_7
REMARK    2  A    between atoms: N_9  and  C_10
REMARK    3  A    between atoms: C_13  and  N_27
REMARK    4  A    between atoms: C_14  and  N_16
REMARK    5  A    between atoms: N_19  and  C_20
REMARK                            x       y       z     vdW  Elec       q    Type
REMARK                         _______ _______ _______ _____ _____    ______ ____
ROOT
ATOM      1  C   UNL     1      -0.967   3.215   1.083  0.00  0.00    +0.036 A 
ATOM      2  C   UNL     1      -1.129   1.838   1.008  0.00  0.00    +0.025 A 
ATOM      3  C   UNL     1      -0.066   1.034   0.644  0.00  0.00    +0.027 A 
ATOM      4  C   UNL     1       1.163   1.601   0.340  0.00  0.00    +0.051 A 
ATOM      5  C   UNL     1       1.327   2.984   0.408  0.00  0.00    +0.058 A 
ATOM      6  C   UNL     1       0.261   3.788   0.780  0.00  0.00    +0.048 A 
ENDROOT
BRANCH   5   7
ATOM      7  N   UNL     1       2.568   3.559   0.102  0.00  0.00    -0.267 N 
ATOM      8  C   UNL     1       2.626   4.815  -0.384  0.00  0.00    +0.308 C 
ATOM      9  O   UNL     1       1.611   5.478  -0.481  0.00  0.00    -0.252 OA
ATOM     10  N   UNL     1       3.810   5.336  -0.764  0.00  0.00    -0.269 N 
ATOM     11  H   UNL     1       3.493   2.987   0.259  0.00  0.00    +0.156 HD
ATOM     12  H   UNL     1       4.717   4.713  -0.744  0.00  0.00    +0.156 HD
BRANCH  10  13
ATOM     13  C   UNL     1       3.886   6.669  -1.183  0.00  0.00    +0.035 A 
ATOM     14  C   UNL     1       2.844   7.230  -1.910  0.00  0.00    +0.024 A 
ATOM     15  C   UNL     1       2.919   8.547  -2.318  0.00  0.00    +0.017 A 
ATOM     16  C   UNL     1       4.035   9.305  -2.012  0.00  0.00    +0.018 A 
ATOM     17  C   UNL     1       5.077   8.747  -1.293  0.00  0.00    +0.017 A 
ATOM     18  C   UNL     1       5.005   7.432  -0.877  0.00  0.00    +0.024 A 
ATOM     19 BR   UNL     1       4.138  11.106  -2.578  0.00  0.00    -0.050 Br
ENDBRANCH  10  13
ENDBRANCH   5   7
BRANCH   4  20
ATOM     20  N   UNL     1       2.238   0.785  -0.035  0.00  0.00    -0.328 N 
ATOM     21  C   UNL     1       1.842  -0.647  -0.046  0.00  0.00    +0.105 C 
ATOM     22  C   UNL     1       2.913  -1.304  -0.952  0.00  0.00    +0.020 C 
ATOM     23  C   UNL     1       3.148  -0.234  -2.042  0.00  0.00    +0.020 C 
ATOM     24  C   UNL     1       2.681   1.091  -1.413  0.00  0.00    +0.105 C 
ENDBRANCH   4  20
BRANCH   1  27
ATOM     25  C   UNL     1      -2.926   3.593   2.380  0.00  0.00    +0.248 C 
ATOM     26  O   UNL     1      -2.836   2.465   2.824  0.00  0.00    -0.270 OA
ATOM     27  N   UNL     1      -2.045   4.027   1.458  0.00  0.00    -0.281 N 
ATOM     28  H   UNL     1      -2.171   5.019   1.000  0.00  0.00    +0.155 HD
BRANCH  25  32
ATOM     29  C   UNL     1      -6.019   6.168   3.738  0.00  0.00    +0.000 A 
ATOM     30  C   UNL     1      -5.920   4.885   4.245  0.00  0.00    +0.001 A 
ATOM     31  C   UNL     1      -4.918   4.043   3.808  0.00  0.00    +0.013 A 
ATOM     32  C   UNL     1      -4.003   4.489   2.853  0.00  0.00    +0.037 A 
ATOM     33  C   UNL     1      -4.106   5.787   2.349  0.00  0.00    +0.013 A 
ATOM     34  C   UNL     1      -5.116   6.617   2.791  0.00  0.00    +0.001 A 
ENDBRANCH  25  32
ENDBRANCH   1  27
TORSDOF 5
