REMARK  Name = ZINC20830460
REMARK  11 active torsions:
REMARK  status: ('A' for Active; 'I' for Inactive)
REMARK    1  A    between atoms: C_1  and  C_2
REMARK    2  A    between atoms: C_2  and  C_3
REMARK    3  A    between atoms: C_3  and  C_5
REMARK    4  A    between atoms: C_3  and  C_6
REMARK    5  A    between atoms: C_9  and  N_12
REMARK    6  A    between atoms: C_13  and  C_15
REMARK    7  A    between atoms: C_15  and  C_16
REMARK    8  A    between atoms: C_16  and  S_17
REMARK    9  A    between atoms: S_17  and  C_18
REMARK   10  A    between atoms: C_21  and  C_24
REMARK   11  A    between atoms: N_22  and  N_23
REMARK                            x       y       z     vdW  Elec       q    Type
REMARK                         _______ _______ _______ _____ _____    ______ ____
ROOT
ATOM      1  C   UNL     1       3.688   1.753   0.073  0.00  0.00    +0.086 C 
ENDROOT
BRANCH   1   2
ATOM      2  C   UNL     1       2.501   0.805   0.254  0.00  0.00    +0.107 C 
BRANCH   2   4
ATOM      3  N   UNL     1       0.033   0.923   0.133  0.00  0.00    -0.285 N 
ATOM      4  C   UNL     1       1.216   1.560   0.026  0.00  0.00    +0.218 C 
ATOM      5  O   UNL     1       1.247   2.740  -0.252  0.00  0.00    -0.275 OA
ATOM      6  H   UNL     1       0.006  -0.163   0.305  0.00  0.00    +0.155 HD
BRANCH   3  10
ATOM      7  C   UNL     1      -3.523   3.070  -0.190  0.00  0.00    -0.044 A 
ATOM      8  C   UNL     1      -3.493   1.729  -0.526  0.00  0.00    +0.006 A 
ATOM      9  C   UNL     1      -2.316   1.015  -0.421  0.00  0.00    +0.023 A 
ATOM     10  C   UNL     1      -1.161   1.645   0.025  0.00  0.00    +0.033 A 
ATOM     11  C   UNL     1      -1.196   2.990   0.368  0.00  0.00    +0.023 A 
ATOM     12  C   UNL     1      -2.375   3.700   0.254  0.00  0.00    +0.006 A 
BRANCH   7  13
ATOM     13  C   UNL     1      -4.809   3.847  -0.306  0.00  0.00    +0.016 C 
ATOM     14  C   UNL     1      -4.619   5.005  -1.288  0.00  0.00    +0.012 C 
BRANCH  13  16
ATOM     15  C   UNL     1      -6.564   5.082   0.974  0.00  0.00    +0.004 C 
ATOM     16  C   UNL     1      -5.197   4.401   1.066  0.00  0.00    +0.004 C 
ENDBRANCH  13  16
ENDBRANCH   7  13
ENDBRANCH   3  10
ENDBRANCH   2   4
ENDBRANCH   1   2
BRANCH   1  17
ATOM     17  S   UNL     1       5.231   0.847   0.346  0.00  0.00    -0.084 S 
BRANCH  17  18
ATOM     18  C   UNL     1       6.397   2.142   0.083  0.00  0.00    +0.209 A 
ATOM     19  N   UNL     1       6.121   3.388  -0.229  0.00  0.00    -0.121 NA
ATOM     20  N   UNL     1       7.207   4.066  -0.343  0.00  0.00    -0.127 NA
ATOM     21  C   UNL     1       8.243   3.291  -0.120  0.00  0.00    +0.182 A 
ATOM     22  N   UNL     1       7.756   2.035   0.159  0.00  0.00    -0.224 N 
BRANCH  21  23
ATOM     23  C   UNL     1       9.665   3.693  -0.162  0.00  0.00    +0.021 A 
ATOM     24  C   UNL     1      10.014   5.044  -0.108  0.00  0.00    +0.013 A 
ATOM     25  C   UNL     1      11.342   5.412  -0.143  0.00  0.00    +0.016 A 
ATOM     26  C   UNL     1      12.329   4.446  -0.242  0.00  0.00    +0.018 A 
ATOM     27  C   UNL     1      11.990   3.105  -0.302  0.00  0.00    +0.016 A 
ATOM     28  C   UNL     1      10.665   2.724  -0.263  0.00  0.00    +0.013 A 
ATOM     29 BR   UNL     1      14.148   4.960  -0.297  0.00  0.00    -0.050 Br
ENDBRANCH  21  23
BRANCH  22  30
ATOM     30  N   UNL     1       8.482   0.915   0.452  0.00  0.00    -0.295 N 
ATOM     31  H   UNL     1       9.580   0.964   0.482  0.00  0.00    +0.163 HD
ATOM     32  H   UNL     1       7.967  -0.035   0.658  0.00  0.00    +0.163 HD
ENDBRANCH  22  30
ENDBRANCH  17  18
ENDBRANCH   1  17
TORSDOF 9
