REMARK  Name = ZINC40401149
REMARK  11 active torsions:
REMARK  status: ('A' for Active; 'I' for Inactive)
REMARK    1  A    between atoms: C_1  and  C_2
REMARK    2  A    between atoms: C_3  and  C_30
REMARK    3  A    between atoms: C_4  and  C_23
REMARK    4  A    between atoms: C_7  and  C_12
REMARK    5  A    between atoms: C_13  and  N_15
REMARK    6  A    between atoms: N_15  and  C_16
REMARK    7  A    between atoms: C_16  and  C_17
REMARK    8  A    between atoms: C_30  and  O_32
REMARK    9  A    between atoms: O_32  and  C_33
REMARK   10  A    between atoms: C_33  and  C_34
REMARK   11  A    between atoms: C_33  and  C_35
REMARK                            x       y       z     vdW  Elec       q    Type
REMARK                         _______ _______ _______ _____ _____    ______ ____
ROOT
ATOM      1  C   UNL     1       0.510   1.326   0.253  0.00  0.00    +0.066 C 
ATOM      2  C   UNL     1       0.317  -0.163   0.124  0.00  0.00    +0.053 C 
ATOM      3  C   UNL     1      -0.945  -0.674  -0.112  0.00  0.00    +0.083 C 
ATOM      4  C   UNL     1      -1.086  -2.175  -0.234  0.00  0.00    +0.152 C 
ATOM      5  N   UNL     1       0.152  -2.985  -0.089  0.00  0.00    -0.267 N 
ATOM      6  C   UNL     1       0.259  -4.360  -0.163  0.00  0.00    +0.048 C 
ATOM      7  C   UNL     1       1.486  -4.902  -0.002  0.00  0.00    +0.072 C 
ATOM      8  S   UNL     1       2.498  -3.458   0.256  0.00  0.00    -0.060 S 
ATOM      9  C   UNL     1       1.303  -2.284   0.142  0.00  0.00    +0.166 C 
ATOM     10  N   UNL     1       1.359  -0.972   0.233  0.00  0.00    -0.230 NA
ENDROOT
BRANCH   4  11
ATOM     11  C   UNL     1      -1.681  -2.476  -1.585  0.00  0.00    +0.013 A 
ATOM     12  C   UNL     1      -3.002  -2.870  -1.686  0.00  0.00    +0.008 A 
ATOM     13  C   UNL     1      -3.549  -3.147  -2.925  0.00  0.00    +0.001 A 
ATOM     14  C   UNL     1      -2.775  -3.030  -4.065  0.00  0.00    +0.003 A 
ATOM     15  C   UNL     1      -1.454  -2.636  -3.966  0.00  0.00    +0.039 A 
ATOM     16  C   UNL     1      -0.907  -2.353  -2.726  0.00  0.00    +0.129 A 
ATOM     17  F   UNL     1       0.383  -1.963  -2.629  0.00  0.00    -0.205 F 
ENDBRANCH   4  11
BRANCH   6  18
ATOM     18  C   UNL     1      -0.920  -5.203  -0.407  0.00  0.00    +0.091 C 
ATOM     19  C   UNL     1      -0.808  -6.544  -0.370  0.00  0.00    +0.239 C 
ATOM     20  O   UNL     1       0.409  -7.118  -0.203  0.00  0.00    -0.271 OA
BRANCH  19  21
ATOM     21  N   UNL     1      -1.935  -7.337  -0.503  0.00  0.00    -0.309 N 
ATOM     22  H   UNL     1      -2.805  -6.926  -0.622  0.00  0.00    +0.149 HD
BRANCH  21  23
ATOM     23  C   UNL     1      -1.813  -8.797  -0.463  0.00  0.00    +0.136 C 
BRANCH  23  24
ATOM     24  C   UNL     1      -3.196  -9.429  -0.631  0.00  0.00    +0.135 C 
ATOM     25  C   UNL     1      -3.094 -10.973  -0.556  0.00  0.00    +0.035 C 
ATOM     26  C   UNL     1      -4.532 -11.342  -0.100  0.00  0.00    +0.031 C 
ATOM     27  C   UNL     1      -4.900 -10.154   0.815  0.00  0.00    +0.160 C 
ATOM     28  O   UNL     1      -4.052  -9.054   0.460  0.00  0.00    -0.375 OA
ENDBRANCH  23  24
ENDBRANCH  21  23
ENDBRANCH  19  21
ENDBRANCH   6  18
BRANCH   3  29
ATOM     29  C   UNL     1      -2.055   0.170  -0.234  0.00  0.00    +0.339 C 
ATOM     30  O   UNL     1      -1.905   1.379  -0.235  0.00  0.00    -0.245 OA
BRANCH  29  31
ATOM     31  O   UNL     1      -3.294  -0.357  -0.350  0.00  0.00    -0.459 OA
BRANCH  31  32
ATOM     32  C   UNL     1      -4.382   0.562  -0.470  0.00  0.00    +0.171 C 
ATOM     33  C   UNL     1      -5.499  -0.075  -1.298  0.00  0.00    +0.052 C 
ATOM     34  C   UNL     1      -4.913   0.910   0.922  0.00  0.00    +0.052 C 
ENDBRANCH  31  32
ENDBRANCH  29  31
ENDBRANCH   3  29
TORSDOF 8
