REMARK  Name = ZINC09332283
REMARK  6 active torsions:
REMARK  status: ('A' for Active; 'I' for Inactive)
REMARK    1  A    between atoms: C_2  and  C_3
REMARK    2  A    between atoms: C_3  and  N_4
REMARK    3  A    between atoms: C_8  and  C_10
REMARK    4  A    between atoms: C_10  and  S_11
REMARK    5  A    between atoms: S_11  and  C_12
REMARK    6  A    between atoms: N_25  and  C_26
REMARK                            x       y       z     vdW  Elec       q    Type
REMARK                         _______ _______ _______ _____ _____    ______ ____
ROOT
ATOM      1  C   UNL     1       3.822  -1.160  -0.041  0.00  0.00    +0.178 A 
ATOM      2  N   UNL     1       2.508  -1.333  -0.029  0.00  0.00    -0.215 NA
ATOM      3  C   UNL     1       1.751  -0.243  -0.016  0.00  0.00    +0.117 A 
ATOM      4  C   UNL     1       2.263   1.074  -0.013  0.00  0.00    +0.076 A 
ATOM      5  C   UNL     1       1.278   2.143   0.001  0.00  0.00    -0.023 A 
ATOM      6  C   UNL     1      -0.022   1.771   0.012  0.00  0.00    -0.004 A 
ATOM      7  S   UNL     1       0.002  -0.004   0.002  0.00  0.00    -0.073 S 
ATOM      8  C   UNL     1      -1.222   2.667   0.034  0.00  0.00    +0.043 C 
ATOM      9  C   UNL     1      -0.767   4.084   0.404  0.00  0.00    +0.005 C 
ATOM     10  C   UNL     1       0.456   4.447  -0.444  0.00  0.00    +0.005 C 
ATOM     11  C   UNL     1       1.662   3.621   0.005  0.00  0.00    +0.037 C 
ATOM     12  C   UNL     1       3.688   1.223  -0.026  0.00  0.00    +0.268 A 
ATOM     13  O   UNL     1       4.224   2.318  -0.025  0.00  0.00    -0.267 OA
ATOM     14  N   UNL     1       4.402   0.074  -0.040  0.00  0.00    -0.253 N 
ENDROOT
BRANCH  14  15
ATOM     15  C   UNL     1       5.802   0.155  -0.052  0.00  0.00    +0.087 A 
ATOM     16  C   UNL     1       6.508   0.195   1.142  0.00  0.00    +0.029 A 
ATOM     17  C   UNL     1       7.887   0.271   1.127  0.00  0.00    +0.002 A 
ATOM     18  C   UNL     1       8.565   0.318  -0.077  0.00  0.00    +0.003 A 
ATOM     19  C   UNL     1       7.867   0.284  -1.270  0.00  0.00    +0.040 A 
ATOM     20  C   UNL     1       6.486   0.203  -1.262  0.00  0.00    +0.147 A 
ATOM     21  F   UNL     1       5.804   0.171  -2.427  0.00  0.00    -0.203 F 
ENDBRANCH  14  15
BRANCH   1  22
ATOM     22  S   UNL     1       4.862  -2.583  -0.060  0.00  0.00    -0.078 S 
BRANCH  22  23
ATOM     23  C   UNL     1       3.608  -3.889  -0.055  0.00  0.00    +0.173 C 
BRANCH  23  28
ATOM     24  N   UNL     1       3.410  -8.692  -0.081  0.00  0.00    -0.296 N 
ATOM     25  C   UNL     1       4.150  -7.565  -0.082  0.00  0.00    +0.306 C 
ATOM     26  O   UNL     1       5.364  -7.636  -0.094  0.00  0.00    -0.252 OA
ATOM     27  N   UNL     1       3.545  -6.361  -0.069  0.00  0.00    -0.239 N 
ATOM     28  C   UNL     1       4.285  -5.235  -0.069  0.00  0.00    +0.231 C 
ATOM     29  O   UNL     1       5.495  -5.305  -0.082  0.00  0.00    -0.274 OA
ATOM     30  H   UNL     1       2.312  -8.628  -0.069  0.00  0.00    +0.151 HD
ATOM     31  H   UNL     1       2.447  -6.298  -0.057  0.00  0.00    +0.159 HD
BRANCH  24  32
ATOM     32  C   UNL     1       4.068 -10.001  -0.095  0.00  0.00    +0.132 C 
BRANCH  32  34
ATOM     33  C   UNL     1       3.030 -12.005  -1.026  0.00  0.00    +0.005 C 
ATOM     34  C   UNL     1       3.024 -11.088  -0.091  0.00  0.00    -0.016 C 
ENDBRANCH  32  34
ENDBRANCH  24  32
ENDBRANCH  23  28
ENDBRANCH  22  23
ENDBRANCH   1  22
TORSDOF 6
