REMARK  Name = ZINC13879942
REMARK  7 active torsions:
REMARK  status: ('A' for Active; 'I' for Inactive)
REMARK    1  A    between atoms: C_4  and  C_7
REMARK    2  A    between atoms: C_7  and  N_8
REMARK    3  A    between atoms: C_11  and  C_23
REMARK    4  A    between atoms: N_15  and  C_16
REMARK    5  A    between atoms: C_23  and  C_24
REMARK    6  A    between atoms: N_26  and  C_27
REMARK    7  A    between atoms: C_30  and  C_33
REMARK                            x       y       z     vdW  Elec       q    Type
REMARK                         _______ _______ _______ _____ _____    ______ ____
ROOT
ATOM      1  N   UNL     1      -0.677   1.147  -1.469  0.00  0.00    -0.245 N 
ATOM      2  C   UNL     1      -1.752   0.489  -1.869  0.00  0.00    +0.235 C 
ATOM      3  O   UNL     1      -2.145  -0.508  -1.302  0.00  0.00    -0.274 OA
ATOM      4  C   UNL     1      -2.466   1.063  -3.082  0.00  0.00    +0.149 C 
ATOM      5  S   UNL     1      -1.393   2.510  -3.442  0.00  0.00    -0.077 S 
ATOM      6  C   UNL     1      -0.222   2.279  -2.113  0.00  0.00    +0.164 C 
ATOM      7  N   UNL     1       0.825   3.012  -1.820  0.00  0.00    -0.226 NA
ENDROOT
BRANCH   7   8
ATOM      8  C   UNL     1       1.127   4.112  -2.580  0.00  0.00    +0.067 A 
ATOM      9  C   UNL     1       1.090   4.032  -3.973  0.00  0.00    +0.030 A 
ATOM     10  C   UNL     1       1.389   5.143  -4.733  0.00  0.00    +0.040 A 
ATOM     11  C   UNL     1       1.736   6.335  -4.117  0.00  0.00    +0.124 A 
ATOM     12  C   UNL     1       1.779   6.418  -2.735  0.00  0.00    +0.040 A 
ATOM     13  C   UNL     1       1.477   5.315  -1.964  0.00  0.00    +0.030 A 
ATOM     14  F   UNL     1       2.034   7.418  -4.866  0.00  0.00    -0.205 F 
ENDBRANCH   7   8
BRANCH   1  15
ATOM     15  C   UNL     1       0.060   0.654  -0.303  0.00  0.00    +0.150 C 
BRANCH  15  19
ATOM     16  C   UNL     1      -1.502   2.460   3.239  0.00  0.00    +0.000 A 
ATOM     17  C   UNL     1      -2.032   1.269   2.780  0.00  0.00    +0.000 A 
ATOM     18  C   UNL     1      -1.526   0.684   1.633  0.00  0.00    +0.005 A 
ATOM     19  C   UNL     1      -0.491   1.291   0.947  0.00  0.00    -0.030 A 
ATOM     20  C   UNL     1       0.042   2.480   1.409  0.00  0.00    +0.005 A 
ATOM     21  C   UNL     1      -0.466   3.067   2.553  0.00  0.00    +0.000 A 
ENDBRANCH  15  19
ENDBRANCH   1  15
BRANCH   4  22
ATOM     22  C   UNL     1      -3.890   1.502  -2.737  0.00  0.00    +0.120 C 
BRANCH  22  23
ATOM     23  C   UNL     1      -4.535   2.118  -3.952  0.00  0.00    +0.219 C 
ATOM     24  O   UNL     1      -3.916   2.198  -4.992  0.00  0.00    -0.275 OA
ATOM     25  N   UNL     1      -5.799   2.579  -3.884  0.00  0.00    -0.285 N 
ATOM     26  H   UNL     1      -6.321   2.446  -3.077  0.00  0.00    +0.155 HD
BRANCH  25  27
ATOM     27  C   UNL     1      -6.357   3.247  -4.973  0.00  0.00    +0.033 A 
ATOM     28  C   UNL     1      -5.555   4.043  -5.785  0.00  0.00    +0.024 A 
ATOM     29  C   UNL     1      -6.102   4.700  -6.863  0.00  0.00    +0.017 A 
ATOM     30  C   UNL     1      -7.467   4.576  -7.136  0.00  0.00    +0.063 A 
ATOM     31  C   UNL     1      -8.271   3.780  -6.315  0.00  0.00    +0.017 A 
ATOM     32  C   UNL     1      -7.717   3.121  -5.241  0.00  0.00    +0.024 A 
BRANCH  30  33
ATOM     33  C   UNL     1      -8.058   5.282  -8.288  0.00  0.00    +0.387 C 
ATOM     34  O   UNL     1      -9.244   5.173  -8.525  0.00  0.00    -0.241 OA
ATOM     35  O   UNL     1      -7.281   6.049  -9.079  0.00  0.00    -0.241 OA
ENDBRANCH  30  33
ENDBRANCH  25  27
ENDBRANCH  22  23
ENDBRANCH   4  22
TORSDOF 7
