REMARK  Name = ZINC18461502
REMARK  9 active torsions:
REMARK  status: ('A' for Active; 'I' for Inactive)
REMARK    1  A    between atoms: C_1  and  C_2
REMARK    2  A    between atoms: C_7  and  N_8
REMARK    3  A    between atoms: C_9  and  C_11
REMARK    4  A    between atoms: C_11  and  C_13
REMARK    5  A    between atoms: C_11  and  O_14
REMARK    6  A    between atoms: O_14  and  C_15
REMARK    7  A    between atoms: C_15  and  C_17
REMARK    8  A    between atoms: C_20  and  O_36
REMARK    9  A    between atoms: C_24  and  C_26
REMARK                            x       y       z     vdW  Elec       q    Type
REMARK                         _______ _______ _______ _____ _____    ______ ____
ROOT
ATOM      1  C   UNL     1       0.417   1.164   4.983  0.00  0.00    +0.187 C 
ATOM      2  C   UNL     1      -0.370   1.863   6.112  0.00  0.00    +0.066 C 
ATOM      3  C   UNL     1      -1.094   3.017   5.368  0.00  0.00    +0.134 C 
ATOM      4  C   UNL     1      -1.411   2.359   4.004  0.00  0.00    +0.140 C 
ATOM      5  N   UNL     1      -0.245   1.504   3.715  0.00  0.00    -0.285 N 
ATOM      6  C   UNL     1       0.151   1.104   2.490  0.00  0.00    +0.223 C 
ATOM      7  O   UNL     1       1.082   0.335   2.375  0.00  0.00    -0.275 OA
ENDROOT
BRANCH   6   8
ATOM      8  C   UNL     1      -0.562   1.612   1.264  0.00  0.00    +0.048 C 
ATOM      9  C   UNL     1       0.014   0.932   0.020  0.00  0.00    +0.019 C 
ATOM     10  C   UNL     1      -0.711   1.448  -1.225  0.00  0.00    -0.009 C 
ATOM     11  C   UNL     1      -2.203   1.130  -1.115  0.00  0.00    +0.007 C 
ATOM     12  C   UNL     1      -2.779   1.810   0.129  0.00  0.00    -0.009 C 
ATOM     13  C   UNL     1      -2.055   1.294   1.374  0.00  0.00    +0.019 C 
ATOM     14  C   UNL     1      -2.587   3.324   0.018  0.00  0.00    +0.007 C 
ATOM     15  C   UNL     1      -1.095   3.642  -0.092  0.00  0.00    -0.009 C 
ATOM     16  C   UNL     1      -0.519   2.962  -1.336  0.00  0.00    +0.007 C 
ATOM     17  C   UNL     1      -0.370   3.126   1.153  0.00  0.00    +0.019 C 
ENDBRANCH   6   8
BRANCH   1  18
ATOM     18  C   UNL     1       0.393  -0.328   5.190  0.00  0.00    +0.329 C 
ATOM     19  O   UNL     1      -0.124  -1.044   4.365  0.00  0.00    -0.249 OA
BRANCH  18  20
ATOM     20  O   UNL     1       0.945  -0.862   6.291  0.00  0.00    -0.451 OA
BRANCH  20  21
ATOM     21  C   UNL     1       0.885  -2.307   6.424  0.00  0.00    +0.259 C 
ATOM     22  C   UNL     1       2.126  -2.930   5.782  0.00  0.00    +0.062 C 
BRANCH  21  24
ATOM     23  N   UNL     1       0.778  -3.970   8.252  0.00  0.00    -0.282 N 
ATOM     24  C   UNL     1       0.838  -2.675   7.885  0.00  0.00    +0.258 C 
ATOM     25  O   UNL     1       0.853  -1.805   8.730  0.00  0.00    -0.271 OA
ATOM     26  H   UNL     1       0.827  -4.667   7.579  0.00  0.00    +0.155 HD
BRANCH  23  33
ATOM     27  C   UNL     1      -0.712  -6.301   8.914  0.00  0.00    +0.045 C 
ATOM     28  C   UNL     1      -0.071  -5.439   9.970  0.00  0.00    -0.029 A 
ATOM     29  C   UNL     1      -0.199  -5.772  11.305  0.00  0.00    +0.006 A 
ATOM     30  C   UNL     1       0.389  -4.982  12.275  0.00  0.00    +0.020 A 
ATOM     31  C   UNL     1       1.107  -3.855  11.913  0.00  0.00    +0.043 A 
ATOM     32  C   UNL     1       1.242  -3.520  10.579  0.00  0.00    +0.043 A 
ATOM     33  C   UNL     1       0.648  -4.309   9.603  0.00  0.00    +0.038 A 
ATOM     34 CL   UNL     1       1.844  -2.866  13.135  0.00  0.00    -0.083 Cl
ENDBRANCH  23  33
ENDBRANCH  21  24
ENDBRANCH  20  21
ENDBRANCH  18  20
ENDBRANCH   1  18
BRANCH   3  35
ATOM     35  O   UNL     1      -2.293   3.392   6.049  0.00  0.00    -0.390 OA
ATOM     36  H   UNL     1      -2.780   4.109   5.621  0.00  0.00    +0.210 HD
ENDBRANCH   3  35
TORSDOF 7
