REMARK  Name = ZINC18084190
REMARK  7 active torsions:
REMARK  status: ('A' for Active; 'I' for Inactive)
REMARK    1  A    between atoms: C_4  and  C_7
REMARK    2  A    between atoms: C_7  and  N_8
REMARK    3  A    between atoms: C_9  and  S_18
REMARK    4  A    between atoms: N_10  and  C_11
REMARK    5  A    between atoms: S_18  and  C_19
REMARK    6  A    between atoms: N_24  and  C_27
REMARK    7  A    between atoms: C_30  and  C_33
REMARK                            x       y       z     vdW  Elec       q    Type
REMARK                         _______ _______ _______ _____ _____    ______ ____
ROOT
ATOM      1  N   UNL     1       4.239  -1.326   1.497  0.00  0.00    -0.320 N 
ATOM      2  C   UNL     1       5.509  -1.827   1.649  0.00  0.00    +0.155 C 
ATOM      3  N   UNL     1       6.380  -1.716   0.671  0.00  0.00    -0.226 NA
ATOM      4  H   UNL     1       3.596  -1.408   2.219  0.00  0.00    +0.148 HD
ENDROOT
BRANCH   3   5
ATOM      5  C   UNL     1       7.667  -2.150   0.849  0.00  0.00    +0.067 A 
ATOM      6  C   UNL     1       8.430  -1.663   1.912  0.00  0.00    +0.030 A 
ATOM      7  C   UNL     1       9.726  -2.103   2.086  0.00  0.00    +0.040 A 
ATOM      8  C   UNL     1      10.271  -3.026   1.208  0.00  0.00    +0.124 A 
ATOM      9  C   UNL     1       9.518  -3.512   0.151  0.00  0.00    +0.040 A 
ATOM     10  C   UNL     1       8.220  -3.083  -0.030  0.00  0.00    +0.030 A 
ATOM     11  F   UNL     1      11.540  -3.454   1.383  0.00  0.00    -0.205 F 
ENDBRANCH   3   5
BRANCH   1  12
ATOM     12  C   UNL     1       3.855  -0.668   0.245  0.00  0.00    +0.138 C 
BRANCH  12  16
ATOM     13  C   UNL     1      -0.209   0.623   0.500  0.00  0.00    +0.000 A 
ATOM     14  C   UNL     1       0.811   1.466   0.902  0.00  0.00    +0.000 A 
ATOM     15  C   UNL     1       2.126   1.048   0.819  0.00  0.00    +0.005 A 
ATOM     16  C   UNL     1       2.421  -0.213   0.336  0.00  0.00    -0.030 A 
ATOM     17  C   UNL     1       1.402  -1.056  -0.065  0.00  0.00    +0.005 A 
ATOM     18  C   UNL     1       0.087  -0.638   0.016  0.00  0.00    +0.000 A 
ENDBRANCH  12  16
ENDBRANCH   1  12
BRANCH   2  19
ATOM     19  S   UNL     1       5.970  -2.618   3.154  0.00  0.00    -0.077 S 
BRANCH  19  20
ATOM     20  C   UNL     1       4.532  -2.379   4.234  0.00  0.00    +0.149 C 
ATOM     21  C   UNL     1       4.731  -3.117   5.574  0.00  0.00    +0.120 C 
ATOM     22  C   UNL     1       4.699  -2.004   6.599  0.00  0.00    +0.228 C 
ATOM     23  O   UNL     1       4.820  -2.149   7.796  0.00  0.00    -0.275 OA
ATOM     24  N   UNL     1       4.515  -0.835   5.974  0.00  0.00    -0.209 N 
ATOM     25  C   UNL     1       4.406  -0.927   4.639  0.00  0.00    +0.240 C 
ATOM     26  O   UNL     1       4.235   0.002   3.880  0.00  0.00    -0.274 OA
BRANCH  24  27
ATOM     27  C   UNL     1       4.441   0.383   6.655  0.00  0.00    +0.044 A 
ATOM     28  C   UNL     1       5.570   0.893   7.288  0.00  0.00    +0.025 A 
ATOM     29  C   UNL     1       5.501   2.092   7.961  0.00  0.00    +0.017 A 
ATOM     30  C   UNL     1       4.294   2.798   8.007  0.00  0.00    +0.063 A 
ATOM     31  C   UNL     1       3.161   2.281   7.369  0.00  0.00    +0.017 A 
ATOM     32  C   UNL     1       3.240   1.084   6.694  0.00  0.00    +0.025 A 
BRANCH  30  33
ATOM     33  C   UNL     1       4.216   4.082   8.725  0.00  0.00    +0.387 C 
ATOM     34  O   UNL     1       5.207   4.532   9.283  0.00  0.00    -0.241 OA
ATOM     35  O   UNL     1       3.159   4.697   8.764  0.00  0.00    -0.241 OA
ENDBRANCH  30  33
ENDBRANCH  24  27
ENDBRANCH  19  20
ENDBRANCH   2  19
TORSDOF 7
