REMARK  Name = ZINC12476928
REMARK  15 active torsions:
REMARK  status: ('A' for Active; 'I' for Inactive)
REMARK    1  A    between atoms: C_1  and  C_2
REMARK    2  A    between atoms: C_5  and  C_8
REMARK    3  A    between atoms: C_8  and  C_10
REMARK    4  A    between atoms: C_8  and  N_17
REMARK    5  A    between atoms: N_12  and  C_13
REMARK    6  A    between atoms: C_13  and  C_14
REMARK    7  A    between atoms: C_13  and  C_15
REMARK    8  A    between atoms: C_13  and  C_16
REMARK    9  A    between atoms: N_17  and  C_18
REMARK   10  A    between atoms: C_18  and  C_19
REMARK   11  A    between atoms: C_22  and  O_25
REMARK   12  A    between atoms: O_25  and  C_26
REMARK   13  A    between atoms: C_27  and  C_29
REMARK   14  A    between atoms: C_30  and  N_37
REMARK   15  A    between atoms: C_31  and  C_34
REMARK                            x       y       z     vdW  Elec       q    Type
REMARK                         _______ _______ _______ _____ _____    ______ ____
ROOT
ATOM      1  N   UNL     1       4.694   0.831  -1.206  0.00  0.00    -0.277 N 
ATOM      2  C   UNL     1       3.563   0.276  -1.686  0.00  0.00    +0.258 C 
ATOM      3  O   UNL     1       2.904   0.864  -2.524  0.00  0.00    -0.269 OA
ENDROOT
BRANCH   2   4
ATOM      4  C   UNL     1       3.126  -1.034  -1.199  0.00  0.00    +0.115 A 
ATOM      5  C   UNL     1       1.978  -1.760  -1.520  0.00  0.00    +0.076 A 
ATOM      6  C   UNL     1       1.911  -2.979  -0.846  0.00  0.00    +0.155 A 
ATOM      7  N   UNL     1       2.878  -3.312  -0.021  0.00  0.00    -0.203 NA
ATOM      8  S   UNL     1       3.919  -2.129  -0.039  0.00  0.00    +0.019 S 
BRANCH   6   9
ATOM      9  C   UNL     1       0.767  -3.885  -1.058  0.00  0.00    +0.262 C 
ATOM     10  O   UNL     1      -0.125  -3.571  -1.823  0.00  0.00    -0.269 OA
ATOM     11  N   UNL     1       0.709  -5.062  -0.403  0.00  0.00    -0.324 N 
ATOM     12  H   UNL     1       1.420  -5.313   0.207  0.00  0.00    +0.145 HD
ATOM     13  H   UNL     1      -0.043  -5.658  -0.542  0.00  0.00    +0.145 HD
ENDBRANCH   6   9
BRANCH   5  14
ATOM     14  N   UNL     1       1.009  -1.317  -2.411  0.00  0.00    -0.355 N 
ATOM     15  H   UNL     1       0.231  -1.866  -2.594  0.00  0.00    +0.142 HD
ATOM     16  H   UNL     1       1.111  -0.457  -2.850  0.00  0.00    +0.142 HD
ENDBRANCH   5  14
ENDBRANCH   2   4
BRANCH   1  17
ATOM     17  C   UNL     1       5.557   0.068  -0.302  0.00  0.00    +0.193 C 
BRANCH  17  22
ATOM     18  C   UNL     1       3.197  -0.055   4.971  0.00  0.00    +0.044 C 
ATOM     19  C   UNL     1       3.812  -0.023   3.596  0.00  0.00    -0.050 A 
ATOM     20  C   UNL     1       4.736  -0.984   3.229  0.00  0.00    +0.004 A 
ATOM     21  C   UNL     1       5.300  -0.955   1.968  0.00  0.00    +0.006 A 
ATOM     22  C   UNL     1       4.942   0.036   1.073  0.00  0.00    -0.018 A 
ATOM     23  C   UNL     1       4.023   1.000   1.441  0.00  0.00    +0.006 A 
ATOM     24  C   UNL     1       3.454   0.968   2.701  0.00  0.00    +0.004 A 
ENDBRANCH  17  22
BRANCH  17  25
ATOM     25  C   UNL     1       6.913   0.722  -0.231  0.00  0.00    +0.239 C 
ATOM     26  O   UNL     1       7.009   1.882   0.111  0.00  0.00    -0.273 OA
ATOM     27  N   UNL     1       8.018   0.019  -0.546  0.00  0.00    -0.309 N 
ATOM     28  H   UNL     1       7.942  -0.908  -0.819  0.00  0.00    +0.149 HD
BRANCH  27  29
ATOM     29  C   UNL     1       9.336   0.656  -0.477  0.00  0.00    +0.026 C 
ATOM     30  C   UNL     1       9.597   1.133   0.954  0.00  0.00    +0.031 C 
ATOM     31  C   UNL     1      10.412  -0.354  -0.882  0.00  0.00    +0.031 C 
ATOM     32  C   UNL     1       9.375   1.853  -1.429  0.00  0.00    +0.031 C 
ENDBRANCH  27  29
ENDBRANCH  17  25
ENDBRANCH   1  17
BRANCH   1  33
ATOM     33  C   UNL     1       5.059   2.197  -1.589  0.00  0.00    +0.144 C 
BRANCH  33  34
ATOM     34  C   UNL     1       4.346   3.177  -0.694  0.00  0.00    -0.030 A 
ATOM     35  C   UNL     1       2.966   3.263  -0.726  0.00  0.00    +0.009 A 
ATOM     36  C   UNL     1       2.310   4.157   0.098  0.00  0.00    +0.046 A 
ATOM     37  C   UNL     1       3.037   4.977   0.949  0.00  0.00    +0.120 A 
ATOM     38  C   UNL     1       4.421   4.893   0.974  0.00  0.00    +0.046 A 
ATOM     39  C   UNL     1       5.072   3.993   0.153  0.00  0.00    +0.009 A 
BRANCH  37  40
ATOM     40  O   UNL     1       2.393   5.861   1.756  0.00  0.00    -0.495 OA
ATOM     41  C   UNL     1       0.967   5.893   1.677  0.00  0.00    +0.277 C 
ENDBRANCH  37  40
ENDBRANCH  33  34
ENDBRANCH   1  33
TORSDOF 10
