REMARK  Name = ZINC35361144
REMARK  10 active torsions:
REMARK  status: ('A' for Active; 'I' for Inactive)
REMARK    1  A    between atoms: C_1  and  C_2
REMARK    2  A    between atoms: C_2  and  O_3
REMARK    3  A    between atoms: O_3  and  C_4
REMARK    4  A    between atoms: C_4  and  C_6
REMARK    5  A    between atoms: C_6  and  C_36
REMARK    6  A    between atoms: C_13  and  C_35
REMARK    7  A    between atoms: C_24  and  C_34
REMARK    8  A    between atoms: C_27  and  O_30
REMARK    9  A    between atoms: O_30  and  C_31
REMARK   10  A    between atoms: C_31  and  C_33
REMARK                            x       y       z     vdW  Elec       q    Type
REMARK                         _______ _______ _______ _____ _____    ______ ____
ROOT
ATOM      1  C   UNL     1      -3.001  -2.381   0.081  0.00  0.00    +0.271 C 
ATOM      2  C   UNL     1      -3.124  -3.738  -0.575  0.00  0.00    +0.125 C 
ATOM      3  O   UNL     1      -3.603  -2.559  -1.209  0.00  0.00    -0.341 OA
ATOM      4  C   UNL     1      -1.880  -4.478  -1.125  0.00  0.00    +0.040 C 
ATOM      5  C   UNL     1      -2.316  -5.960  -1.331  0.00  0.00    +0.007 C 
ATOM      6  C   UNL     1      -3.846  -5.850  -1.307  0.00  0.00    +0.001 C 
ATOM      7  C   UNL     1      -4.067  -4.861  -0.139  0.00  0.00    +0.004 C 
ATOM      8  C   UNL     1      -5.536  -4.534  -0.035  0.00  0.00    +0.010 C 
ATOM      9  C   UNL     1      -6.330  -5.843   0.164  0.00  0.00    +0.005 C 
ATOM     10  C   UNL     1      -6.122  -6.771  -1.020  0.00  0.00    -0.001 C 
ATOM     11  C   UNL     1      -4.640  -7.115  -1.208  0.00  0.00    -0.004 C 
ATOM     12  C   UNL     1      -4.174  -8.089  -0.139  0.00  0.00    +0.004 C 
ATOM     13  C   UNL     1      -4.948  -9.406  -0.268  0.00  0.00    +0.004 C 
ATOM     14  C   UNL     1      -6.082  -9.254  -1.279  0.00  0.00    -0.001 C 
ATOM     15  C   UNL     1      -6.957  -8.048  -0.941  0.00  0.00    -0.026 C 
ATOM     16  C   UNL     1      -8.083  -7.941  -1.978  0.00  0.00    +0.011 C 
ATOM     17  C   UNL     1      -8.912  -9.220  -2.022  0.00  0.00    +0.045 C 
ATOM     18  C   UNL     1      -8.018 -10.415  -2.353  0.00  0.00    +0.177 C 
ATOM     19  C   UNL     1      -6.914 -10.537  -1.303  0.00  0.00    +0.048 C 
ATOM     20  C   UNL     1      -7.570  -8.209   0.449  0.00  0.00    +0.012 C 
ATOM     21  C   UNL     1      -3.542  -5.400   1.192  0.00  0.00    +0.014 C 
ENDROOT
BRANCH   1  22
ATOM     22  C   UNL     1      -3.908  -1.994   1.218  0.00  0.00    +0.257 C 
ATOM     23  O   UNL     1      -4.332  -2.844   1.972  0.00  0.00    -0.272 OA
ATOM     24  N   UNL     1      -4.250  -0.703   1.397  0.00  0.00    -0.326 N 
ATOM     25  H   UNL     1      -3.911  -0.023   0.794  0.00  0.00    +0.145 HD
ATOM     26  H   UNL     1      -4.835  -0.454   2.130  0.00  0.00    +0.145 HD
ENDBRANCH   1  22
BRANCH   1  27
ATOM     27  C   UNL     1      -1.639  -1.722   0.107  0.00  0.00    +0.352 C 
ATOM     28  O   UNL     1      -0.639  -2.400   0.100  0.00  0.00    -0.247 OA
BRANCH  27  29
ATOM     29  O   UNL     1      -1.542  -0.384   0.139  0.00  0.00    -0.462 OA
BRANCH  29  31
ATOM     30  C   UNL     1      -0.316   1.698   0.198  0.00  0.00    +0.048 C 
ATOM     31  C   UNL     1      -0.226   0.171   0.163  0.00  0.00    +0.229 C 
ENDBRANCH  29  31
ENDBRANCH  27  29
ENDBRANCH   1  27
BRANCH  18  32
ATOM     32  O   UNL     1      -8.804 -11.610  -2.357  0.00  0.00    -0.462 OA
BRANCH  32  33
ATOM     33  C   UNL     1      -9.365 -11.966  -3.523  0.00  0.00    +0.304 C 
ATOM     34  O   UNL     1      -9.195 -11.286  -4.508  0.00  0.00    -0.251 OA
ATOM     35  C   UNL     1     -10.207 -13.213  -3.605  0.00  0.00    +0.136 C 
ENDBRANCH  32  33
ENDBRANCH  18  32
TORSDOF 6
