REMARK  Name = ZINC20534240
REMARK  6 active torsions:
REMARK  status: ('A' for Active; 'I' for Inactive)
REMARK    1  A    between atoms: C_6  and  S_11
REMARK    2  A    between atoms: S_11  and  N_14
REMARK    3  A    between atoms: C_18  and  C_20
REMARK    4  A    between atoms: C_20  and  O_22
REMARK    5  A    between atoms: O_22  and  N_23
REMARK    6  A    between atoms: C_24  and  C_25
REMARK                            x       y       z     vdW  Elec       q    Type
REMARK                         _______ _______ _______ _____ _____    ______ ____
ROOT
ATOM      1  N   UNL     1       5.133  -6.503  -0.091  0.00  0.00    -0.163 NA
ATOM      2  C   UNL     1       5.388  -7.264  -1.327  0.00  0.00    +0.110 C 
ATOM      3  C   UNL     1       4.007  -7.833  -1.735  0.00  0.00    +0.019 C 
ATOM      4  C   UNL     1       3.058  -6.666  -1.343  0.00  0.00    +0.033 C 
ATOM      5  C   UNL     1       3.719  -6.102  -0.068  0.00  0.00    +0.191 C 
ENDROOT
BRANCH   1   6
ATOM      6  S   UNL     1       6.254  -6.158   1.079  0.00  0.00    +0.062 S 
ATOM      7  O   UNL     1       7.527  -6.210   0.449  0.00  0.00    -0.153 OA
ATOM      8  O   UNL     1       5.788  -5.000   1.759  0.00  0.00    -0.153 OA
BRANCH   6  14
ATOM      9  C   UNL     1       5.305 -10.555   6.056  0.00  0.00    +0.001 A 
ATOM     10  C   UNL     1       4.474  -9.451   6.240  0.00  0.00    +0.001 A 
ATOM     11  C   UNL     1       4.480  -8.415   5.357  0.00  0.00    +0.008 A 
ATOM     12  C   UNL     1       5.337  -8.455   4.244  0.00  0.00    -0.016 A 
ATOM     13  C   UNL     1       5.375  -7.402   3.314  0.00  0.00    +0.037 A 
ATOM     14  C   UNL     1       6.214  -7.478   2.245  0.00  0.00    +0.106 A 
ATOM     15  C   UNL     1       7.045  -8.581   2.062  0.00  0.00    +0.029 A 
ATOM     16  C   UNL     1       7.038  -9.617   2.944  0.00  0.00    +0.010 A 
ATOM     17  C   UNL     1       6.182  -9.578   4.057  0.00  0.00    -0.018 A 
ATOM     18  C   UNL     1       6.147 -10.628   4.990  0.00  0.00    +0.008 A 
ENDBRANCH   6  14
ENDBRANCH   1   6
BRANCH   5  19
ATOM     19  C   UNL     1       3.613  -4.598  -0.058  0.00  0.00    +0.354 C 
ATOM     20  O   UNL     1       4.618  -3.920  -0.064  0.00  0.00    -0.247 OA
BRANCH  19  21
ATOM     21  O   UNL     1       2.408  -4.011  -0.043  0.00  0.00    -0.314 OA
BRANCH  21  22
ATOM     22  N   UNL     1       2.386  -2.793  -0.036  0.00  0.00    -0.059 NA
ATOM     23  C   UNL     1       1.247  -2.163  -0.022  0.00  0.00    +0.163 C 
ATOM     24  N   UNL     1       0.062  -2.876  -0.015  0.00  0.00    -0.340 N 
ATOM     25  H   UNL     1      -0.900  -2.343  -0.003  0.00  0.00    +0.144 HD
ATOM     26  H   UNL     1       0.082  -3.975  -0.021  0.00  0.00    +0.144 HD
BRANCH  23  27
ATOM     27  C   UNL     1       1.221  -0.683  -0.013  0.00  0.00    +0.019 A 
ATOM     28  C   UNL     1       0.002  -0.004   0.002  0.00  0.00    +0.011 A 
ATOM     29  C   UNL     1      -0.017   1.375   0.010  0.00  0.00    +0.002 A 
ATOM     30  C   UNL     1       1.170   2.087   0.002  0.00  0.00    +0.015 A 
ATOM     31  C   UNL     1       2.383   1.419  -0.013  0.00  0.00    +0.019 A 
ATOM     32  C   UNL     1       2.414   0.039  -0.021  0.00  0.00    +0.026 A 
ATOM     33 BR   UNL     1       3.999   2.400  -0.023  0.00  0.00    -0.050 Br
ENDBRANCH  23  27
ENDBRANCH  21  22
ENDBRANCH  19  21
ENDBRANCH   5  19
TORSDOF 6
