REMARK  Name = ZINC16474294
REMARK  11 active torsions:
REMARK  status: ('A' for Active; 'I' for Inactive)
REMARK    1  A    between atoms: C_1  and  C_2
REMARK    2  A    between atoms: C_5  and  O_33
REMARK    3  A    between atoms: C_6  and  S_8
REMARK    4  A    between atoms: S_8  and  N_11
REMARK    5  A    between atoms: N_11  and  C_12
REMARK    6  A    between atoms: N_11  and  C_25
REMARK    7  A    between atoms: C_12  and  C_13
REMARK    8  A    between atoms: N_15  and  C_16
REMARK    9  A    between atoms: C_28  and  C_32
REMARK   10  A    between atoms: C_29  and  C_31
REMARK   11  A    between atoms: O_33  and  C_34
REMARK                            x       y       z     vdW  Elec       q    Type
REMARK                         _______ _______ _______ _____ _____    ______ ____
ROOT
ATOM      1  N   UNL     1       6.904  -3.181   4.134  0.00  0.00    -0.194 N 
ENDROOT
BRANCH   1   2
ATOM      2  C   UNL     1       7.400  -4.232   3.359  0.00  0.00    +0.052 A 
ATOM      3  C   UNL     1       7.105  -5.546   3.698  0.00  0.00    +0.025 A 
ATOM      4  C   UNL     1       7.593  -6.583   2.927  0.00  0.00    +0.005 A 
ATOM      5  C   UNL     1       8.383  -6.314   1.824  0.00  0.00    -0.047 A 
ATOM      6  C   UNL     1       8.682  -5.007   1.486  0.00  0.00    -0.046 A 
ATOM      7  C   UNL     1       8.193  -3.965   2.250  0.00  0.00    +0.028 A 
ATOM      8  C   UNL     1       9.544  -4.718   0.284  0.00  0.00    +0.044 C 
ATOM      9  C   UNL     1       8.918  -7.448   0.988  0.00  0.00    +0.044 C 
ENDBRANCH   1   2
BRANCH   1  10
ATOM     10  S   UNL     1       6.514  -3.436   5.723  0.00  0.00    +0.079 S 
ATOM     11  O   UNL     1       7.376  -4.463   6.192  0.00  0.00    -0.150 OA
ATOM     12  O   UNL     1       6.449  -2.156   6.336  0.00  0.00    -0.150 OA
BRANCH  10  18
ATOM     13  C   UNL     1       3.147  -7.301   6.744  0.00  0.00    +0.044 C 
ATOM     14  C   UNL     1       3.381  -5.898   6.245  0.00  0.00    -0.048 A 
ATOM     15  C   UNL     1       2.313  -5.130   5.817  0.00  0.00    +0.007 A 
ATOM     16  C   UNL     1       2.525  -3.845   5.359  0.00  0.00    +0.048 A 
ATOM     17  C   UNL     1       3.810  -3.321   5.335  0.00  0.00    +0.147 A 
ATOM     18  C   UNL     1       4.880  -4.095   5.759  0.00  0.00    +0.150 A 
ATOM     19  C   UNL     1       4.663  -5.381   6.215  0.00  0.00    +0.036 A 
BRANCH  17  20
ATOM     20  O   UNL     1       4.020  -2.054   4.890  0.00  0.00    -0.493 OA
ATOM     21  C   UNL     1       2.872  -1.315   4.469  0.00  0.00    +0.277 C 
ENDBRANCH  17  20
ENDBRANCH  10  18
ENDBRANCH   1  10
BRANCH   1  22
ATOM     22  C   UNL     1       6.729  -1.853   3.541  0.00  0.00    +0.227 C 
BRANCH  22  23
ATOM     23  C   UNL     1       5.391  -1.784   2.850  0.00  0.00    +0.236 C 
ATOM     24  O   UNL     1       4.656  -2.749   2.853  0.00  0.00    -0.274 OA
ATOM     25  N   UNL     1       5.011  -0.649   2.229  0.00  0.00    -0.284 N 
ATOM     26  H   UNL     1       5.622   0.102   2.174  0.00  0.00    +0.155 HD
BRANCH  25  27
ATOM     27  C   UNL     1       3.733  -0.555   1.663  0.00  0.00    +0.037 A 
ATOM     28  C   UNL     1       3.051   0.654   1.686  0.00  0.00    +0.027 A 
ATOM     29  C   UNL     1       1.790   0.749   1.128  0.00  0.00    +0.051 A 
ATOM     30  C   UNL     1       1.204  -0.362   0.544  0.00  0.00    +0.166 A 
ATOM     31  C   UNL     1       1.885  -1.576   0.519  0.00  0.00    +0.168 A 
ATOM     32  C   UNL     1       3.149  -1.670   1.078  0.00  0.00    +0.072 A 
ATOM     33  O   UNL     1       1.102  -2.504  -0.106  0.00  0.00    -0.453 OA
ATOM     34  C   UNL     1       0.109  -1.748  -0.824  0.00  0.00    +0.466 C 
ATOM     35  O   UNL     1      -0.008  -0.529  -0.066  0.00  0.00    -0.453 OA
ENDBRANCH  25  27
ENDBRANCH  22  23
ENDBRANCH   1  22
TORSDOF 7
