REMARK  Name = ZINC39682972
REMARK  9 active torsions:
REMARK  status: ('A' for Active; 'I' for Inactive)
REMARK    1  A    between atoms: C_1  and  O_2
REMARK    2  A    between atoms: O_2  and  C_3
REMARK    3  A    between atoms: C_6  and  O_37
REMARK    4  A    between atoms: C_7  and  C_9
REMARK    5  A    between atoms: C_9  and  N_10
REMARK    6  A    between atoms: C_11  and  C_13
REMARK    7  A    between atoms: C_24  and  C_26
REMARK    8  A    between atoms: C_30  and  C_32
REMARK    9  A    between atoms: O_37  and  C_38
REMARK                            x       y       z     vdW  Elec       q    Type
REMARK                         _______ _______ _______ _____ _____    ______ ____
ROOT
ATOM      1  C   UNL     1      -1.347  -6.445   4.730  0.00  0.00    +0.100 C 
ATOM      2  C   UNL     1      -2.580  -5.929   3.955  0.00  0.00    +0.121 C 
ATOM      3  N   UNL     1      -3.014  -7.081   3.131  0.00  0.00    -0.296 N 
ATOM      4  C   UNL     1      -2.831  -8.257   4.016  0.00  0.00    +0.115 C 
ATOM      5  C   UNL     1      -1.518  -7.973   4.771  0.00  0.00    -0.004 C 
ATOM      6  C   UNL     1      -1.623  -8.454   6.215  0.00  0.00    -0.010 C 
ATOM      7  C   UNL     1      -1.734  -9.982   6.232  0.00  0.00    -0.082 C 
ATOM      8  N   UNL     1      -0.553 -10.567   5.585  0.00  0.00    +0.379 N 
ATOM      9  C   UNL     1      -0.510 -10.173   4.172  0.00  0.00    -0.082 C 
ATOM     10  C   UNL     1      -0.348  -8.654   4.067  0.00  0.00    -0.010 C 
ATOM     11  C   UNL     1      -3.472  -7.065   1.863  0.00  0.00    +0.247 C 
ATOM     12  O   UNL     1      -3.446  -6.033   1.221  0.00  0.00    -0.270 OA
ATOM     13  H   UNL     1       0.281 -10.239   6.050  0.00  0.00    -0.086 HD
ATOM     14  H   UNL     1      -0.598 -11.572   5.652  0.00  0.00    -0.086 HD
ENDROOT
BRANCH  11  15
ATOM     15  C   UNL     1      -4.004  -8.301   1.254  0.00  0.00    +0.038 A 
ATOM     16  C   UNL     1      -4.443  -9.349   2.066  0.00  0.00    +0.016 A 
ATOM     17  C   UNL     1      -4.939 -10.500   1.492  0.00  0.00    +0.039 A 
ATOM     18  C   UNL     1      -5.002 -10.618   0.112  0.00  0.00    +0.135 A 
ATOM     19  C   UNL     1      -4.567  -9.581  -0.699  0.00  0.00    +0.091 A 
ATOM     20  C   UNL     1      -4.075  -8.423  -0.135  0.00  0.00    +0.028 A 
ATOM     21  F   UNL     1      -5.489 -11.749  -0.446  0.00  0.00    -0.205 F 
BRANCH  19  22
ATOM     22  C   UNL     1      -4.639  -9.716  -2.198  0.00  0.00    +0.420 C 
ATOM     23  F   UNL     1      -4.148  -8.551  -2.795  0.00  0.00    -0.166 F 
ATOM     24  F   UNL     1      -3.866 -10.810  -2.604  0.00  0.00    -0.166 F 
ATOM     25  F   UNL     1      -5.968  -9.915  -2.585  0.00  0.00    -0.166 F 
ENDBRANCH  19  22
ENDBRANCH  11  15
BRANCH   1  27
ATOM     26  N   UNL     1       1.083  -5.987   4.679  0.00  0.00    -0.311 N 
ATOM     27  C   UNL     1      -0.079  -6.078   4.003  0.00  0.00    +0.218 C 
ATOM     28  O   UNL     1      -0.104  -5.865   2.809  0.00  0.00    -0.275 OA
ATOM     29  H   UNL     1       1.104  -6.157   5.634  0.00  0.00    +0.149 HD
BRANCH  26  30
ATOM     30  C   UNL     1       2.316  -5.630   3.972  0.00  0.00    +0.143 C 
BRANCH  30  35
ATOM     31  C   UNL     1       4.964  -4.358   6.349  0.00  0.00    +0.121 A 
ATOM     32  C   UNL     1       5.573  -5.540   6.744  0.00  0.00    +0.049 A 
ATOM     33  C   UNL     1       5.129  -6.747   6.243  0.00  0.00    +0.049 A 
ATOM     34  C   UNL     1       4.073  -6.778   5.344  0.00  0.00    +0.125 A 
ATOM     35  C   UNL     1       3.463  -5.597   4.949  0.00  0.00    +0.015 A 
ATOM     36  C   UNL     1       3.905  -4.389   5.455  0.00  0.00    +0.054 A 
BRANCH  31  38
ATOM     37  C   UNL     1       6.497  -3.211   7.760  0.00  0.00    +0.277 C 
ATOM     38  O   UNL     1       5.402  -3.169   6.843  0.00  0.00    -0.495 OA
ENDBRANCH  31  38
BRANCH  34  39
ATOM     39  O   UNL     1       3.635  -7.967   4.849  0.00  0.00    -0.495 OA
ATOM     40  C   UNL     1       4.309  -9.144   5.299  0.00  0.00    +0.277 C 
ENDBRANCH  34  39
ENDBRANCH  30  35
ENDBRANCH  26  30
ENDBRANCH   1  27
TORSDOF 7
