REMARK  Name = ZINC19961918
REMARK  6 active torsions:
REMARK  status: ('A' for Active; 'I' for Inactive)
REMARK    1  A    between atoms: C_6  and  N_7
REMARK    2  A    between atoms: N_10  and  C_13
REMARK    3  A    between atoms: C_13  and  C_14
REMARK    4  A    between atoms: C_22  and  C_24
REMARK    5  A    between atoms: C_24  and  C_25
REMARK    6  A    between atoms: N_27  and  C_28
REMARK                            x       y       z     vdW  Elec       q    Type
REMARK                         _______ _______ _______ _____ _____    ______ ____
ROOT
ATOM      1  C   UNL     1       2.503   6.236  -1.564  0.00  0.00    +0.200 C 
ATOM      2  O   UNL     1       1.889   6.207  -0.519  0.00  0.00    -0.278 OA
ATOM      3  N   UNL     1       3.832   6.012  -1.571  0.00  0.00    -0.289 N 
ATOM      4  C   UNL     1       4.607   6.038  -2.824  0.00  0.00    +0.127 C 
ATOM      5  C   UNL     1       5.649   7.154  -2.716  0.00  0.00    +0.123 C 
ATOM      6  N   UNL     1       6.340   7.093  -1.436  0.00  0.00    -0.312 N 
ATOM      7  C   UNL     1       5.859   6.499  -0.343  0.00  0.00    +0.234 C 
ATOM      8  O   UNL     1       6.494   6.583   0.688  0.00  0.00    -0.274 OA
ATOM      9  C   UNL     1       4.567   5.730  -0.330  0.00  0.00    +0.170 C 
ATOM     10  H   UNL     1       7.331   7.559  -1.323  0.00  0.00    +0.149 HD
ENDROOT
BRANCH   1  11
ATOM     11  C   UNL     1       1.780   6.522  -2.856  0.00  0.00    +0.019 C 
BRANCH  11  15
ATOM     12  N   UNL     1      -2.437   6.281  -2.940  0.00  0.00    -0.333 N 
ATOM     13  C   UNL     1      -1.808   7.519  -3.422  0.00  0.00    +0.086 C 
ATOM     14  C   UNL     1      -0.343   7.241  -3.771  0.00  0.00    -0.059 C 
ATOM     15  N   UNL     1       0.352   6.729  -2.582  0.00  0.00    +0.387 N 
ATOM     16  C   UNL     1      -0.277   5.492  -2.099  0.00  0.00    -0.059 C 
ATOM     17  C   UNL     1      -1.741   5.769  -1.751  0.00  0.00    +0.086 C 
ATOM     18  H   UNL     1       0.268   7.485  -1.787  0.00  0.00    -0.081 HD
BRANCH  12  24
ATOM     19  C   UNL     1      -4.369   7.727  -2.880  0.00  0.00    +0.026 A 
ATOM     20  C   UNL     1      -5.713   7.919  -2.627  0.00  0.00    +0.040 A 
ATOM     21  C   UNL     1      -6.487   6.869  -2.162  0.00  0.00    +0.124 A 
ATOM     22  C   UNL     1      -5.917   5.624  -1.956  0.00  0.00    +0.040 A 
ATOM     23  C   UNL     1      -4.574   5.427  -2.213  0.00  0.00    +0.026 A 
ATOM     24  C   UNL     1      -3.796   6.478  -2.679  0.00  0.00    +0.030 A 
ATOM     25  F   UNL     1      -7.800   7.059  -1.910  0.00  0.00    -0.205 F 
ENDBRANCH  12  24
ENDBRANCH  11  15
ENDBRANCH   1  11
BRANCH   9  26
ATOM     26  C   UNL     1       4.864   4.231  -0.238  0.00  0.00    +0.128 C 
BRANCH  26  27
ATOM     27  C   UNL     1       3.569   3.470  -0.116  0.00  0.00    +0.219 C 
ATOM     28  O   UNL     1       2.513   4.066  -0.103  0.00  0.00    -0.275 OA
ATOM     29  N   UNL     1       3.585   2.125  -0.021  0.00  0.00    -0.285 N 
ATOM     30  H   UNL     1       4.543   1.589   0.043  0.00  0.00    +0.155 HD
BRANCH  29  31
ATOM     31  C   UNL     1       2.382   1.411  -0.005  0.00  0.00    +0.036 A 
ATOM     32  C   UNL     1       1.263   1.947   0.618  0.00  0.00    +0.043 A 
ATOM     33  C   UNL     1       0.075   1.240   0.632  0.00  0.00    +0.044 A 
ATOM     34  C   UNL     1       0.001  -0.002   0.026  0.00  0.00    +0.040 A 
ATOM     35  C   UNL     1       1.115  -0.539  -0.596  0.00  0.00    +0.044 A 
ATOM     36  C   UNL     1       2.305   0.165  -0.613  0.00  0.00    +0.043 A 
ATOM     37 CL   UNL     1       1.017  -2.097  -1.356  0.00  0.00    -0.083 Cl
ATOM     38 CL   UNL     1      -1.326   1.912   1.406  0.00  0.00    -0.083 Cl
ENDBRANCH  29  31
ENDBRANCH  26  27
ENDBRANCH   9  26
TORSDOF 6
