REMARK  Name = ZINC11752059
REMARK  4 active torsions:
REMARK  status: ('A' for Active; 'I' for Inactive)
REMARK    1  A    between atoms: C_5  and  N_7
REMARK    2  A    between atoms: N_7  and  S_8
REMARK    3  A    between atoms: S_8  and  C_11
REMARK    4  A    between atoms: C_14  and  C_17
REMARK                            x       y       z     vdW  Elec       q    Type
REMARK                         _______ _______ _______ _____ _____    ______ ____
ROOT
ATOM      1  C   UNL     1      -1.123  -1.974   2.458  0.00  0.00    +0.109 A 
ATOM      2  C   UNL     1       0.126  -1.979   3.054  0.00  0.00    +0.029 A 
ATOM      3  C   UNL     1       0.246  -1.784   4.414  0.00  0.00    +0.015 A 
ATOM      4  C   UNL     1      -0.898  -1.593   5.192  0.00  0.00    +0.037 A 
ATOM      5  C   UNL     1      -2.155  -1.595   4.585  0.00  0.00    +0.015 A 
ATOM      6  C   UNL     1      -2.260  -1.785   3.223  0.00  0.00    +0.029 A 
ENDROOT
BRANCH   4   7
ATOM      7  C   UNL     1      -0.778  -1.390   6.651  0.00  0.00    +0.250 C 
ATOM      8  O   UNL     1      -1.776  -1.225   7.326  0.00  0.00    -0.270 OA
ATOM      9  N   UNL     1       0.437  -1.389   7.234  0.00  0.00    -0.261 N 
ATOM     10  C   UNL     1       0.550  -1.199   8.601  0.00  0.00    +0.166 A 
ATOM     11  N   UNL     1       1.633  -1.166   9.341  0.00  0.00    -0.224 NA
ATOM     12  C   UNL     1       1.594  -0.970  10.678  0.00  0.00    +0.084 A 
ATOM     13  C   UNL     1       2.679  -0.915  11.583  0.00  0.00    +0.078 A 
ATOM     14  C   UNL     1       2.471  -0.708  12.928  0.00  0.00    +0.164 A 
ATOM     15  C   UNL     1       1.183  -0.543  13.436  0.00  0.00    +0.163 A 
ATOM     16  C   UNL     1       0.099  -0.592  12.575  0.00  0.00    +0.066 A 
ATOM     17  C   UNL     1       0.306  -0.800  11.233  0.00  0.00    +0.044 A 
ATOM     18  S   UNL     1      -0.743  -0.929   9.805  0.00  0.00    -0.052 S 
ATOM     19  O   UNL     1       0.972  -0.332  14.764  0.00  0.00    -0.485 OA
ATOM     20  C   UNL     1       2.052  -0.660  15.646  0.00  0.00    +0.270 C 
ATOM     21  C   UNL     1       3.345  -0.085  15.053  0.00  0.00    +0.270 C 
ATOM     22  O   UNL     1       3.549  -0.671  13.764  0.00  0.00    -0.485 OA
ATOM     23  H   UNL     1       1.233  -1.521   6.695  0.00  0.00    +0.157 HD
ENDBRANCH   4   7
BRANCH   1  24
ATOM     24  S   UNL     1      -1.266  -2.216   0.719  0.00  0.00    +0.072 S 
ATOM     25  O   UNL     1      -2.574  -2.718   0.485  0.00  0.00    -0.150 OA
ATOM     26  O   UNL     1      -0.097  -2.913   0.309  0.00  0.00    -0.150 OA
BRANCH  24  27
ATOM     27  N   UNL     1      -1.198  -0.721   0.009  0.00  0.00    -0.213 N 
ATOM     28  H   UNL     1      -1.946  -0.402  -0.520  0.00  0.00    +0.174 HD
BRANCH  27  33
ATOM     29  C   UNL     1       2.315   0.293   0.393  0.00  0.00    +0.002 A 
ATOM     30  C   UNL     1       2.182   1.665   0.494  0.00  0.00    +0.003 A 
ATOM     31  C   UNL     1       0.930   2.249   0.436  0.00  0.00    +0.040 A 
ATOM     32  C   UNL     1      -0.194   1.461   0.275  0.00  0.00    +0.146 A 
ATOM     33  C   UNL     1      -0.064   0.080   0.172  0.00  0.00    +0.083 A 
ATOM     34  C   UNL     1       1.196  -0.501   0.232  0.00  0.00    +0.027 A 
ATOM     35  F   UNL     1      -1.417   2.031   0.212  0.00  0.00    -0.204 F 
ENDBRANCH  27  33
ENDBRANCH  24  27
ENDBRANCH   1  24
TORSDOF 4
