REMARK  Name = ZINC01830025
REMARK  14 active torsions:
REMARK  status: ('A' for Active; 'I' for Inactive)
REMARK    1  A    between atoms: C_1  and  C_2
REMARK    2  A    between atoms: C_3  and  C_36
REMARK    3  A    between atoms: C_4  and  C_22
REMARK    4  A    between atoms: C_10  and  C_11
REMARK    5  A    between atoms: C_16  and  O_17
REMARK    6  A    between atoms: O_17  and  C_18
REMARK    7  A    between atoms: C_25  and  O_28
REMARK    8  A    between atoms: O_28  and  C_29
REMARK    9  A    between atoms: C_29  and  C_31
REMARK   10  A    between atoms: C_36  and  O_38
REMARK   11  A    between atoms: O_38  and  C_39
REMARK   12  A    between atoms: C_39  and  C_40
REMARK   13  A    between atoms: C_40  and  O_41
REMARK   14  A    between atoms: O_41  and  C_42
REMARK                            x       y       z     vdW  Elec       q    Type
REMARK                         _______ _______ _______ _____ _____    ______ ____
ROOT
ATOM      1  C   UNL     1      -0.052   1.469  -0.151  0.00  0.00    +0.066 C 
ATOM      2  C   UNL     1      -0.006  -0.037  -0.132  0.00  0.00    +0.053 C 
ATOM      3  C   UNL     1      -1.172  -0.751  -0.152  0.00  0.00    +0.085 C 
ATOM      4  C   UNL     1      -1.082  -2.260  -0.132  0.00  0.00    +0.162 C 
ATOM      5  N   UNL     1       0.281  -2.860  -0.092  0.00  0.00    -0.275 N 
ATOM      6  C   UNL     1       0.564  -4.169  -0.070  0.00  0.00    +0.268 A 
ATOM      7  O   UNL     1      -0.323  -5.002  -0.082  0.00  0.00    -0.266 OA
ATOM      8  C   UNL     1       1.977  -4.568  -0.031  0.00  0.00    +0.081 A 
ATOM      9  C   UNL     1       2.522  -5.812  -0.005  0.00  0.00    +0.032 C 
ATOM     10  S   UNL     1       2.784  -2.975  -0.030  0.00  0.00    -0.046 S 
ATOM     11  C   UNL     1       1.321  -1.959  -0.077  0.00  0.00    +0.178 A 
ATOM     12  N   UNL     1       1.165  -0.659  -0.102  0.00  0.00    -0.228 NA
ENDROOT
BRANCH   9  13
ATOM     13  C   UNL     1       3.975  -5.980  -0.126  0.00  0.00    +0.018 A 
ATOM     14  C   UNL     1       4.748  -4.994  -0.751  0.00  0.00    +0.011 A 
ATOM     15  C   UNL     1       6.111  -5.158  -0.861  0.00  0.00    +0.001 A 
ATOM     16  C   UNL     1       6.722  -6.295  -0.357  0.00  0.00    +0.004 A 
ATOM     17  C   UNL     1       5.972  -7.277   0.262  0.00  0.00    +0.046 A 
ATOM     18  C   UNL     1       4.600  -7.127   0.389  0.00  0.00    +0.127 A 
BRANCH  18  19
ATOM     19  O   UNL     1       3.863  -8.088   1.002  0.00  0.00    -0.495 OA
ATOM     20  C   UNL     1       4.568  -9.227   1.501  0.00  0.00    +0.277 C 
ENDBRANCH  18  19
ENDBRANCH   9  13
BRANCH   4  21
ATOM     21  C   UNL     1      -1.781  -2.782  -1.361  0.00  0.00    -0.020 A 
ATOM     22  C   UNL     1      -1.129  -2.779  -2.580  0.00  0.00    +0.009 A 
ATOM     23  C   UNL     1      -1.768  -3.256  -3.708  0.00  0.00    +0.047 A 
ATOM     24  C   UNL     1      -3.065  -3.739  -3.617  0.00  0.00    +0.132 A 
ATOM     25  C   UNL     1      -3.717  -3.742  -2.392  0.00  0.00    +0.047 A 
ATOM     26  C   UNL     1      -3.072  -3.268  -1.266  0.00  0.00    +0.009 A 
BRANCH  24  27
ATOM     27  O   UNL     1      -3.696  -4.209  -4.725  0.00  0.00    -0.420 OA
BRANCH  27  28
ATOM     28  C   UNL     1      -3.336  -5.423  -5.192  0.00  0.00    +0.380 C 
ATOM     29  O   UNL     1      -2.410  -6.022  -4.679  0.00  0.00    -0.241 OA
BRANCH  28  30
ATOM     30  C   UNL     1      -4.061  -6.019  -6.316  0.00  0.00    +0.212 A 
ATOM     31  C   UNL     1      -3.806  -7.237  -6.881  0.00  0.00    +0.056 A 
ATOM     32  C   UNL     1      -4.735  -7.402  -7.920  0.00  0.00    +0.042 A 
ATOM     33  C   UNL     1      -5.507  -6.293  -7.943  0.00  0.00    +0.196 A 
ATOM     34  O   UNL     1      -5.101  -5.465  -6.972  0.00  0.00    -0.456 OA
ENDBRANCH  28  30
ENDBRANCH  27  28
ENDBRANCH  24  27
ENDBRANCH   4  21
BRANCH   3  35
ATOM     35  C   UNL     1      -2.416  -0.102  -0.190  0.00  0.00    +0.339 C 
ATOM     36  O   UNL     1      -2.468   1.115  -0.205  0.00  0.00    -0.245 OA
BRANCH  35  37
ATOM     37  O   UNL     1      -3.556  -0.826  -0.209  0.00  0.00    -0.459 OA
BRANCH  37  38
ATOM     38  C   UNL     1      -4.786  -0.100  -0.247  0.00  0.00    +0.260 C 
BRANCH  38  39
ATOM     39  C   UNL     1      -5.958  -1.083  -0.264  0.00  0.00    +0.200 C 
BRANCH  39  40
ATOM     40  O   UNL     1      -5.987  -1.811   0.965  0.00  0.00    -0.380 OA
ATOM     41  C   UNL     1      -7.051  -2.761   1.052  0.00  0.00    +0.194 C 
ENDBRANCH  39  40
ENDBRANCH  38  39
ENDBRANCH  37  38
ENDBRANCH  35  37
ENDBRANCH   3  35
TORSDOF 11
