REMARK  Name = ZINC20811438
REMARK  9 active torsions:
REMARK  status: ('A' for Active; 'I' for Inactive)
REMARK    1  A    between atoms: C_1  and  O_2
REMARK    2  A    between atoms: O_2  and  C_3
REMARK    3  A    between atoms: C_3  and  C_5
REMARK    4  A    between atoms: C_9  and  N_10
REMARK    5  A    between atoms: C_11  and  C_13
REMARK    6  A    between atoms: C_13  and  N_14
REMARK    7  A    between atoms: N_17  and  C_20
REMARK    8  A    between atoms: C_20  and  C_21
REMARK    9  A    between atoms: N_23  and  C_24
REMARK                            x       y       z     vdW  Elec       q    Type
REMARK                         _______ _______ _______ _____ _____    ______ ____
ROOT
ATOM      1  N   UNL     1       4.421  -1.125  -0.723  0.00  0.00    -0.298 NA
ATOM      2  C   UNL     1       3.833  -1.545   0.557  0.00  0.00    +0.066 C 
ATOM      3  C   UNL     1       2.309  -1.430   0.477  0.00  0.00    -0.063 C 
ATOM      4  N   UNL     1       1.941  -0.043   0.162  0.00  0.00    +0.387 N 
ATOM      5  C   UNL     1       2.529   0.378  -1.117  0.00  0.00    -0.063 C 
ATOM      6  C   UNL     1       4.053   0.263  -1.038  0.00  0.00    +0.066 C 
ATOM      7  H   UNL     1       2.349   0.605   0.953  0.00  0.00    -0.081 HD
ENDROOT
BRANCH   1   8
ATOM      8  C   UNL     1       5.880  -1.293  -0.712  0.00  0.00    +0.180 C 
BRANCH   8  10
ATOM      9  N   UNL     1       7.499  -3.152  -0.507  0.00  0.00    -0.278 N 
ATOM     10  C   UNL     1       6.217  -2.760  -0.644  0.00  0.00    +0.232 C 
ATOM     11  O   UNL     1       5.334  -3.588  -0.714  0.00  0.00    -0.274 OA
ATOM     12  H   UNL     1       8.300  -2.401  -0.444  0.00  0.00    +0.155 HD
BRANCH   9  17
ATOM     13  C   UNL     1       9.056  -5.096  -0.311  0.00  0.00    +0.091 A 
ATOM     14  C   UNL     1       9.107  -6.548  -0.266  0.00  0.00    -0.021 A 
ATOM     15  C   UNL     1       7.913  -7.168  -0.372  0.00  0.00    -0.004 A 
ATOM     16  S   UNL     1       6.732  -5.857  -0.521  0.00  0.00    -0.077 S 
ATOM     17  C   UNL     1       7.808  -4.502  -0.444  0.00  0.00    +0.086 A 
ATOM     18  C   UNL     1       7.658  -8.644  -0.364  0.00  0.00    +0.043 C 
ATOM     19  C   UNL     1       8.993  -9.367  -0.593  0.00  0.00    +0.005 C 
ATOM     20  C   UNL     1      10.047  -8.764   0.340  0.00  0.00    +0.005 C 
ATOM     21  C   UNL     1      10.396  -7.346  -0.117  0.00  0.00    +0.037 C 
BRANCH  13  22
ATOM     22  C   UNL     1      10.275  -4.290  -0.214  0.00  0.00    +0.342 C 
ATOM     23  O   UNL     1      10.681  -3.929   0.874  0.00  0.00    -0.245 OA
BRANCH  22  25
ATOM     24  C   UNL     1      12.146  -3.146  -1.161  0.00  0.00    +0.280 C 
ATOM     25  O   UNL     1      10.947  -3.946  -1.333  0.00  0.00    -0.464 OA
ENDBRANCH  22  25
ENDBRANCH  13  22
ENDBRANCH   9  17
ENDBRANCH   8  10
ENDBRANCH   1   8
BRANCH   4  26
ATOM     26  C   UNL     1       0.482   0.125   0.152  0.00  0.00    +0.019 C 
BRANCH  26  27
ATOM     27  C   UNL     1       0.145   1.592   0.071  0.00  0.00    +0.201 C 
ATOM     28  O   UNL     1       1.034   2.417   0.027  0.00  0.00    -0.278 OA
ATOM     29  N   UNL     1      -1.143   1.988   0.043  0.00  0.00    -0.287 N 
ATOM     30  H   UNL     1      -1.947   1.239  -0.006  0.00  0.00    +0.155 HD
BRANCH  29  31
ATOM     31  C   UNL     1      -1.457   3.352   0.076  0.00  0.00    +0.033 A 
ATOM     32  C   UNL     1      -0.672   4.229   0.813  0.00  0.00    +0.026 A 
ATOM     33  C   UNL     1      -0.981   5.574   0.840  0.00  0.00    +0.040 A 
ATOM     34  C   UNL     1      -2.079   6.048   0.141  0.00  0.00    +0.124 A 
ATOM     35  C   UNL     1      -2.866   5.175  -0.590  0.00  0.00    +0.040 A 
ATOM     36  C   UNL     1      -2.558   3.829  -0.624  0.00  0.00    +0.026 A 
ATOM     37  F   UNL     1      -2.382   7.364   0.173  0.00  0.00    -0.205 F 
ENDBRANCH  29  31
ENDBRANCH  26  27
ENDBRANCH   4  26
TORSDOF 8
