REMARK  Name = ZINC33631716
REMARK  14 active torsions:
REMARK  status: ('A' for Active; 'I' for Inactive)
REMARK    1  A    between atoms: C_1  and  C_2
REMARK    2  A    between atoms: C_2  and  C_3
REMARK    3  A    between atoms: C_3  and  C_4
REMARK    4  A    between atoms: C_4  and  C_5
REMARK    5  A    between atoms: C_5  and  C_7
REMARK    6  A    between atoms: C_5  and  C_9
REMARK    7  A    between atoms: C_7  and  C_8
REMARK    8  A    between atoms: N_11  and  C_12
REMARK    9  A    between atoms: C_15  and  C_18
REMARK   10  A    between atoms: C_20  and  C_30
REMARK   11  A    between atoms: C_21  and  C_29
REMARK   12  A    between atoms: N_32  and  C_33
REMARK   13  A    between atoms: C_36  and  O_39
REMARK   14  A    between atoms: O_39  and  C_40
REMARK                            x       y       z     vdW  Elec       q    Type
REMARK                         _______ _______ _______ _____ _____    ______ ____
ROOT
ATOM      1  C   UNL     1       0.026  -2.184   7.294  0.00  0.00    +0.142 C 
ATOM      2  C   UNL     1       1.130  -1.463   8.027  0.00  0.00    +0.058 C 
ATOM      3  C   UNL     1       2.426  -1.745   7.714  0.00  0.00    +0.025 C 
ATOM      4  N   UNL     1       2.726  -2.681   6.821  0.00  0.00    -0.341 N 
ATOM      5  C   UNL     1       1.826  -3.556   6.379  0.00  0.00    +0.135 C 
ATOM      6  N   UNL     1       0.542  -3.483   6.820  0.00  0.00    -0.300 N 
ATOM      7  C   UNL     1      -0.355  -4.632   6.893  0.00  0.00    +0.109 C 
ATOM      8  C   UNL     1      -0.197  -5.569   5.705  0.00  0.00    +0.030 C 
ATOM      9  C   UNL     1       1.226  -6.141   5.704  0.00  0.00    +0.078 C 
ATOM     10  S   UNL     1       2.368  -4.807   5.262  0.00  0.00    -0.092 S 
ATOM     11  C   UNL     1       3.535  -0.983   8.392  0.00  0.00    +0.064 C 
ATOM     12  H   UNL     1       3.759  -2.718   6.445  0.00  0.00    +0.167 HD
ENDROOT
BRANCH   1  16
ATOM     13  C   UNL     1      -1.246   0.159   3.954  0.00  0.00    +0.033 A 
ATOM     14  C   UNL     1      -0.089  -0.605   3.868  0.00  0.00    +0.023 A 
ATOM     15  C   UNL     1       0.322  -1.357   4.951  0.00  0.00    +0.007 A 
ATOM     16  C   UNL     1      -0.422  -1.358   6.116  0.00  0.00    -0.022 A 
ATOM     17  C   UNL     1      -1.578  -0.603   6.203  0.00  0.00    +0.007 A 
ATOM     18  C   UNL     1      -1.991   0.155   5.126  0.00  0.00    +0.023 A 
BRANCH  13  21
ATOM     19  C   UNL     1      -1.280   0.586   1.614  0.00  0.00    +0.220 C 
ATOM     20  O   UNL     1      -0.468  -0.300   1.449  0.00  0.00    -0.275 OA
ATOM     21  N   UNL     1      -1.662   0.926   2.861  0.00  0.00    -0.285 N 
ATOM     22  H   UNL     1      -2.301   1.808   3.018  0.00  0.00    +0.155 HD
BRANCH  19  23
ATOM     23  C   UNL     1      -1.861   1.306   0.424  0.00  0.00    +0.075 C 
BRANCH  23  24
ATOM     24  C   UNL     1      -3.376   1.098   0.393  0.00  0.00    +0.009 C 
ATOM     25  C   UNL     1      -3.684  -0.397   0.288  0.00  0.00    +0.004 C 
ENDBRANCH  23  24
BRANCH  23  26
ATOM     26  C   UNL     1      -1.243   0.750  -0.860  0.00  0.00    +0.013 C 
BRANCH  26  27
ATOM     27  C   UNL     1      -1.738   1.564  -2.058  0.00  0.00    +0.000 C 
BRANCH  27  29
ATOM     28  C   UNL     1      -1.616   1.821  -4.540  0.00  0.00    +0.004 C 
ATOM     29  C   UNL     1      -1.120   1.008  -3.342  0.00  0.00    -0.003 C 
ENDBRANCH  27  29
ENDBRANCH  26  27
ENDBRANCH  23  26
ENDBRANCH  19  23
ENDBRANCH  13  21
ENDBRANCH   1  16
BRANCH   2  30
ATOM     30  C   UNL     1       0.827  -0.513   9.019  0.00  0.00    +0.248 C 
ATOM     31  O   UNL     1       1.725   0.065   9.605  0.00  0.00    -0.270 OA
ATOM     32  N   UNL     1      -0.459  -0.241   9.321  0.00  0.00    -0.282 N 
ATOM     33  H   UNL     1      -1.266  -0.853   8.891  0.00  0.00    +0.155 HD
BRANCH  32  34
ATOM     34  C   UNL     1      -0.767   0.820  10.181  0.00  0.00    +0.034 A 
ATOM     35  C   UNL     1      -1.892   0.752  10.992  0.00  0.00    +0.027 A 
ATOM     36  C   UNL     1      -2.192   1.796  11.845  0.00  0.00    +0.047 A 
ATOM     37  C   UNL     1      -1.375   2.917  11.883  0.00  0.00    +0.120 A 
ATOM     38  C   UNL     1      -0.254   2.988  11.070  0.00  0.00    +0.047 A 
ATOM     39  C   UNL     1       0.050   1.942  10.220  0.00  0.00    +0.027 A 
BRANCH  37  40
ATOM     40  O   UNL     1      -1.674   3.947  12.720  0.00  0.00    -0.495 OA
ATOM     41  C   UNL     1      -2.843   3.807  13.529  0.00  0.00    +0.277 C 
ENDBRANCH  37  40
ENDBRANCH  32  34
ENDBRANCH   2  30
TORSDOF 10
