REMARK  Name = ZINC65266349
REMARK  3 active torsions:
REMARK  status: ('A' for Active; 'I' for Inactive)
REMARK    1  A    between atoms: C_1  and  C_2
REMARK    2  A    between atoms: C_7  and  C_8
REMARK    3  A    between atoms: N_24  and  C_25
REMARK                            x       y       z     vdW  Elec       q    Type
REMARK                         _______ _______ _______ _____ _____    ______ ____
ROOT
ATOM      1  C   UNL     1       0.150   0.233   2.397  0.00  0.00    +0.247 C 
ATOM      2  O   UNL     1       0.008   1.440   2.350  0.00  0.00    -0.270 OA
ATOM      3  N   UNL     1       0.343  -0.377   3.583  0.00  0.00    -0.295 N 
ATOM      4  C   UNL     1       0.634  -1.807   3.773  0.00  0.00    +0.111 C 
ATOM      5  C   UNL     1       0.753  -2.053   5.294  0.00  0.00    +0.054 C 
ATOM      6  C   UNL     1      -0.007  -0.856   5.896  0.00  0.00    +0.103 C 
ATOM      7  C   UNL     1       0.304   0.280   4.904  0.00  0.00    +0.141 C 
ATOM      8  C   UNL     1       0.516  -0.527   7.269  0.00  0.00    +0.099 C 
ATOM      9  N   UNL     1      -0.213   0.395   8.003  0.00  0.00    -0.286 N 
ATOM     10  C   UNL     1      -1.608   0.364   7.886  0.00  0.00    +0.145 A 
ATOM     11  C   UNL     1      -2.215  -0.377   6.871  0.00  0.00    +0.069 A 
ATOM     12  C   UNL     1      -3.598  -0.382   6.765  0.00  0.00    +0.028 A 
ATOM     13  C   UNL     1      -4.331   0.352   7.688  0.00  0.00    +0.022 A 
ATOM     14  C   UNL     1      -3.667   1.057   8.671  0.00  0.00    +0.113 A 
ATOM     15  N   UNL     1      -2.349   1.047   8.745  0.00  0.00    -0.238 NA
ATOM     16  N   UNL     1      -1.439  -1.125   5.971  0.00  0.00    -0.328 N 
ATOM     17  N   UNL     1       1.588  -1.077   7.739  0.00  0.00    -0.372 N 
ATOM     18  H   UNL     1      -1.846  -1.804   5.411  0.00  0.00    +0.147 HD
ATOM     19  H   UNL     1       2.032  -1.780   7.239  0.00  0.00    +0.161 HD
ATOM     20  H   UNL     1       0.228   1.039   8.578  0.00  0.00    +0.155 HD
ENDROOT
BRANCH   1  27
ATOM     21  C   UNL     1      -1.994   0.648   0.499  0.00  0.00    +0.044 C 
ATOM     22  C   UNL     1      -0.919  -0.373   0.230  0.00  0.00    -0.038 A 
ATOM     23  C   UNL     1      -0.948  -1.117  -0.932  0.00  0.00    +0.004 A 
ATOM     24  C   UNL     1       0.038  -2.055  -1.180  0.00  0.00    +0.000 A 
ATOM     25  C   UNL     1       1.059  -2.253  -0.267  0.00  0.00    +0.001 A 
ATOM     26  C   UNL     1       1.099  -1.516   0.898  0.00  0.00    +0.013 A 
ATOM     27  C   UNL     1       0.110  -0.565   1.153  0.00  0.00    +0.040 A 
ENDBRANCH   1  27
BRANCH  17  28
ATOM     28  C   UNL     1       2.132  -0.637   9.026  0.00  0.00    +0.080 C 
ATOM     29  C   UNL     1       3.095   0.550   8.815  0.00  0.00    +0.024 C 
ATOM     30  C   UNL     1       4.225   0.311   9.847  0.00  0.00    +0.002 C 
ATOM     31  C   UNL     1       4.398  -1.228   9.814  0.00  0.00    +0.002 C 
ATOM     32  C   UNL     1       2.961  -1.768   9.661  0.00  0.00    +0.024 C 
ENDBRANCH  17  28
TORSDOF 2
