REMARK  Name = ZINC15991624
REMARK  5 active torsions:
REMARK  status: ('A' for Active; 'I' for Inactive)
REMARK    1  A    between atoms: C_1  and  C_2
REMARK    2  A    between atoms: N_4  and  C_5
REMARK    3  A    between atoms: C_8  and  C_11
REMARK    4  A    between atoms: C_17  and  C_19
REMARK    5  A    between atoms: C_25  and  C_27
REMARK                            x       y       z     vdW  Elec       q    Type
REMARK                         _______ _______ _______ _____ _____    ______ ____
ROOT
ATOM      1  C   UNL     1       9.201   5.982   5.182  0.00  0.00    +0.080 A 
ATOM      2  C   UNL     1       8.485   6.796   6.016  0.00  0.00    +0.076 A 
ATOM      3  S   UNL     1       6.922   6.865   5.150  0.00  0.00    -0.060 S 
ATOM      4  C   UNL     1       7.380   5.812   3.779  0.00  0.00    +0.165 A 
ATOM      5  N   UNL     1       8.627   5.507   4.087  0.00  0.00    -0.225 NA
ATOM      6  N   UNL     1       6.623   5.416   2.684  0.00  0.00    -0.264 N 
ATOM      7  C   UNL     1       5.350   5.840   2.556  0.00  0.00    +0.222 C 
ATOM      8  O   UNL     1       4.865   6.567   3.397  0.00  0.00    -0.275 OA
ATOM      9  H   UNL     1       7.010   4.835   2.011  0.00  0.00    +0.157 HD
ENDROOT
BRANCH   7  10
ATOM     10  C   UNL     1       4.528   5.410   1.368  0.00  0.00    +0.078 C 
ATOM     11  C   UNL     1       3.131   6.026   1.464  0.00  0.00    +0.032 C 
ATOM     12  C   UNL     1       2.310   5.616   0.238  0.00  0.00    +0.109 C 
ATOM     13  N   UNL     1       2.317   4.150   0.133  0.00  0.00    -0.297 N 
ATOM     14  C   UNL     1       3.609   3.449   0.129  0.00  0.00    +0.109 C 
ATOM     15  C   UNL     1       4.415   3.884   1.351  0.00  0.00    +0.032 C 
ATOM     16  C   UNL     1       1.162   3.462   0.047  0.00  0.00    +0.247 C 
ATOM     17  O   UNL     1       0.104   4.057  -0.021  0.00  0.00    -0.270 OA
BRANCH  16  18
ATOM     18  C   UNL     1       1.181   1.984   0.036  0.00  0.00    +0.037 A 
ATOM     19  C   UNL     1       0.288   1.266   0.833  0.00  0.00    +0.014 A 
ATOM     20  C   UNL     1       0.311  -0.113   0.818  0.00  0.00    +0.021 A 
ATOM     21  C   UNL     1       1.217  -0.785   0.015  0.00  0.00    +0.041 A 
ATOM     22  C   UNL     1       2.105  -0.078  -0.779  0.00  0.00    +0.021 A 
ATOM     23  C   UNL     1       2.092   1.301  -0.772  0.00  0.00    +0.014 A 
ATOM     24 CL   UNL     1       1.240  -2.521   0.002  0.00  0.00    -0.084 Cl
ENDBRANCH  16  18
ENDBRANCH   7  10
BRANCH   1  28
ATOM     25  C   UNL     1      13.229   4.974   6.105  0.00  0.00    +0.033 A 
ATOM     26  C   UNL     1      12.636   4.475   4.951  0.00  0.00    +0.024 A 
ATOM     27  C   UNL     1      11.331   4.801   4.650  0.00  0.00    +0.012 A 
ATOM     28  C   UNL     1      10.605   5.631   5.504  0.00  0.00    +0.001 A 
ATOM     29  C   UNL     1      11.204   6.134   6.658  0.00  0.00    +0.012 A 
ATOM     30  C   UNL     1      12.509   5.802   6.957  0.00  0.00    +0.024 A 
BRANCH  25  34
ATOM     31  C   UNL     1      16.905   4.245   5.748  0.00  0.00    +0.109 C 
ATOM     32  C   UNL     1      15.457   4.498   5.417  0.00  0.00    +0.214 C 
ATOM     33  O   UNL     1      15.103   4.573   4.259  0.00  0.00    -0.276 OA
ATOM     34  N   UNL     1      14.554   4.642   6.408  0.00  0.00    -0.286 N 
ATOM     35  H   UNL     1      14.824   4.516   7.331  0.00  0.00    +0.155 HD
ENDBRANCH  25  34
ENDBRANCH   1  28
TORSDOF 4
