REMARK  Name = ZINC41006555
REMARK  10 active torsions:
REMARK  status: ('A' for Active; 'I' for Inactive)
REMARK    1  A    between atoms: C_1  and  C_2
REMARK    2  A    between atoms: C_7  and  N_8
REMARK    3  A    between atoms: C_9  and  C_11
REMARK    4  A    between atoms: C_13  and  C_33
REMARK    5  A    between atoms: C_15  and  C_23
REMARK    6  A    between atoms: C_17  and  C_21
REMARK    7  A    between atoms: C_17  and  O_22
REMARK    8  A    between atoms: N_25  and  C_26
REMARK    9  A    between atoms: C_31  and  C_32
REMARK   10  A    between atoms: C_36  and  N_39
REMARK                            x       y       z     vdW  Elec       q    Type
REMARK                         _______ _______ _______ _____ _____    ______ ____
ROOT
ATOM      1  C   UNL     1      -0.208   0.046   4.877  0.00  0.00    +0.149 C 
ATOM      2  C   UNL     1      -0.279  -0.951   6.039  0.00  0.00    +0.053 C 
ATOM      3  C   UNL     1      -0.530  -0.193   7.343  0.00  0.00    +0.115 C 
ATOM      4  C   UNL     1      -1.892   0.500   7.287  0.00  0.00    +0.082 C 
ATOM      5  C   UNL     1      -1.882   1.552   6.172  0.00  0.00    +0.110 C 
ATOM      6  C   UNL     1      -1.468   0.883   4.879  0.00  0.00    +0.148 C 
ATOM      7  O   UNL     1      -2.128   1.011   3.876  0.00  0.00    -0.296 OA
ATOM      8  C   UNL     1      -2.981  -0.536   7.001  0.00  0.00    +0.042 C 
ENDROOT
BRANCH   2   9
ATOM      9  C   UNL     1       1.024  -1.702   6.136  0.00  0.00    -0.042 A 
ATOM     10  C   UNL     1       2.203  -1.016   6.362  0.00  0.00    +0.006 A 
ATOM     11  C   UNL     1       3.397  -1.706   6.452  0.00  0.00    +0.033 A 
ATOM     12  C   UNL     1       3.413  -3.081   6.316  0.00  0.00    +0.126 A 
ATOM     13  C   UNL     1       2.235  -3.768   6.090  0.00  0.00    +0.033 A 
ATOM     14  C   UNL     1       1.039  -3.079   6.005  0.00  0.00    +0.006 A 
BRANCH  12  15
ATOM     15  N   UNL     1       4.693  -3.820   6.410  0.00  0.00    +0.056 N 
ATOM     16  O   UNL     1       5.724  -3.219   6.607  0.00  0.00    -0.126 OA
ATOM     17  O   UNL     1       4.707  -5.022   6.291  0.00  0.00    -0.126 OA
ENDBRANCH  12  15
ENDBRANCH   2   9
BRANCH   1  19
ATOM     18  N   UNL     1      -0.032  -0.025   2.410  0.00  0.00    -0.285 N 
ATOM     19  C   UNL     1      -0.100  -0.703   3.574  0.00  0.00    +0.228 C 
ATOM     20  O   UNL     1      -0.074  -1.916   3.571  0.00  0.00    -0.275 OA
ATOM     21  H   UNL     1       0.014   0.944   2.416  0.00  0.00    +0.155 HD
BRANCH  18  28
ATOM     22  C   UNL     1      -1.346   1.159   0.182  0.00  0.00    +0.045 C 
ATOM     23  C   UNL     1      -0.657  -0.177   0.083  0.00  0.00    -0.029 A 
ATOM     24  C   UNL     1      -0.646  -0.863  -1.117  0.00  0.00    +0.005 A 
ATOM     25  C   UNL     1      -0.014  -2.089  -1.208  0.00  0.00    +0.000 A 
ATOM     26  C   UNL     1       0.610  -2.634  -0.101  0.00  0.00    +0.002 A 
ATOM     27  C   UNL     1       0.603  -1.954   1.101  0.00  0.00    +0.023 A 
ATOM     28  C   UNL     1      -0.027  -0.719   1.196  0.00  0.00    +0.036 A 
ENDBRANCH  18  28
ENDBRANCH   1  19
BRANCH   3  29
ATOM     29  C   UNL     1      -0.510  -1.163   8.497  0.00  0.00    +0.224 C 
ATOM     30  O   UNL     1      -0.315  -2.342   8.295  0.00  0.00    -0.275 OA
ATOM     31  N   UNL     1      -0.710  -0.718   9.754  0.00  0.00    -0.285 N 
ATOM     32  H   UNL     1      -0.928   0.214   9.910  0.00  0.00    +0.155 HD
BRANCH  31  33
ATOM     33  C   UNL     1      -0.604  -1.602  10.834  0.00  0.00    +0.036 A 
ATOM     34  C   UNL     1      -1.005  -2.925  10.693  0.00  0.00    +0.023 A 
ATOM     35  C   UNL     1      -0.898  -3.794  11.760  0.00  0.00    +0.002 A 
ATOM     36  C   UNL     1      -0.393  -3.350  12.968  0.00  0.00    +0.000 A 
ATOM     37  C   UNL     1       0.007  -2.034  13.112  0.00  0.00    +0.005 A 
ATOM     38  C   UNL     1      -0.091  -1.161  12.046  0.00  0.00    -0.029 A 
ATOM     39  C   UNL     1       0.351   0.272  12.201  0.00  0.00    +0.045 C 
ENDBRANCH  31  33
ENDBRANCH   3  29
BRANCH   4  40
ATOM     40  O   UNL     1      -2.156   1.136   8.539  0.00  0.00    -0.388 OA
ATOM     41  H   UNL     1      -3.005   1.597   8.575  0.00  0.00    +0.210 HD
ENDBRANCH   4  40
TORSDOF 7
