REMARK  Name = ZINC43962385
REMARK  5 active torsions:
REMARK  status: ('A' for Active; 'I' for Inactive)
REMARK    1  A    between atoms: C_6  and  N_7
REMARK    2  A    between atoms: C_13  and  C_16
REMARK    3  A    between atoms: C_16  and  N_17
REMARK    4  A    between atoms: N_17  and  S_18
REMARK    5  A    between atoms: S_18  and  C_21
REMARK                            x       y       z     vdW  Elec       q    Type
REMARK                         _______ _______ _______ _____ _____    ______ ____
ROOT
ATOM      1  N   UNL     1      -1.202  -0.726   0.057  0.00  0.00    -0.269 N 
ATOM      2  C   UNL     1      -1.185  -2.065  -0.099  0.00  0.00    +0.306 C 
ATOM      3  O   UNL     1      -0.124  -2.657  -0.155  0.00  0.00    -0.252 OA
ATOM      4  N   UNL     1      -2.343  -2.747  -0.193  0.00  0.00    -0.285 N 
ATOM      5  C   UNL     1      -3.625  -2.036  -0.293  0.00  0.00    +0.109 C 
ATOM      6  C   UNL     1      -4.563  -2.553   0.802  0.00  0.00    +0.024 C 
ATOM      7  C   UNL     1      -4.678  -4.075   0.692  0.00  0.00    +0.007 C 
ATOM      8  C   UNL     1      -3.301  -4.709   0.897  0.00  0.00    +0.024 C 
ATOM      9  C   UNL     1      -2.348  -4.217  -0.202  0.00  0.00    +0.109 C 
ATOM     10  H   UNL     1      -2.038  -0.270   0.237  0.00  0.00    +0.156 HD
ENDROOT
BRANCH   1  16
ATOM     11  C   UNL     1      -0.050   1.355  -0.365  0.00  0.00    +0.026 A 
ATOM     12  C   UNL     1       1.125   2.075  -0.461  0.00  0.00    +0.040 A 
ATOM     13  C   UNL     1       2.341   1.452  -0.235  0.00  0.00    +0.124 A 
ATOM     14  C   UNL     1       2.381   0.105   0.087  0.00  0.00    +0.040 A 
ATOM     15  C   UNL     1       1.208  -0.618   0.183  0.00  0.00    +0.026 A 
ATOM     16  C   UNL     1      -0.011   0.005  -0.042  0.00  0.00    +0.035 A 
ATOM     17  F   UNL     1       3.489   2.157  -0.330  0.00  0.00    -0.205 F 
ENDBRANCH   1  16
BRANCH   7  18
ATOM     18  C   UNL     1      -5.642  -4.592   1.763  0.00  0.00    +0.109 C 
BRANCH  18  19
ATOM     19  N   UNL     1      -5.845  -6.031   1.583  0.00  0.00    -0.189 NA
ATOM     20  H   UNL     1      -5.579  -6.459   0.754  0.00  0.00    +0.148 HD
BRANCH  19  21
ATOM     21  S   UNL     1      -6.531  -6.928   2.795  0.00  0.00    +0.065 S 
ATOM     22  O   UNL     1      -6.616  -8.262   2.314  0.00  0.00    -0.153 OA
ATOM     23  O   UNL     1      -5.839  -6.592   3.990  0.00  0.00    -0.153 OA
BRANCH  21  24
ATOM     24  C   UNL     1      -8.186  -6.357   2.994  0.00  0.00    +0.143 A 
ATOM     25  C   UNL     1      -9.317  -6.790   2.385  0.00  0.00    +0.037 A 
ATOM     26  C   UNL     1     -10.520  -6.188   2.700  0.00  0.00    +0.025 A 
ATOM     27  C   UNL     1     -10.533  -5.180   3.607  0.00  0.00    +0.057 A 
ATOM     28  S   UNL     1      -8.809  -5.063   4.054  0.00  0.00    -0.062 S 
ATOM     29 BR   UNL     1     -11.999  -4.167   4.241  0.00  0.00    -0.043 Br
ENDBRANCH  21  24
ENDBRANCH  19  21
ENDBRANCH  18  19
ENDBRANCH   7  18
TORSDOF 5
