REMARK  Name = ZINC39668086
REMARK  9 active torsions:
REMARK  status: ('A' for Active; 'I' for Inactive)
REMARK    1  A    between atoms: C_1  and  C_2
REMARK    2  A    between atoms: C_4  and  S_14
REMARK    3  A    between atoms: C_8  and  C_9
REMARK    4  A    between atoms: C_9  and  C_10
REMARK    5  A    between atoms: C_10  and  C_11
REMARK    6  A    between atoms: S_14  and  C_15
REMARK    7  A    between atoms: C_15  and  C_16
REMARK    8  A    between atoms: C_16  and  C_18
REMARK    9  A    between atoms: C_26  and  C_28
REMARK                            x       y       z     vdW  Elec       q    Type
REMARK                         _______ _______ _______ _____ _____    ______ ____
ROOT
ATOM      1  C   UNL     1       0.060  -5.425  -3.516  0.00  0.00    +0.172 C 
ATOM      2  O   UNL     1       0.047  -4.890  -4.606  0.00  0.00    -0.291 OA
ENDROOT
BRANCH   1   3
ATOM      3  C   UNL     1       0.080  -6.833  -3.422  0.00  0.00    +0.031 C 
ATOM      4  C   UNL     1       0.090  -7.594  -2.267  0.00  0.00    +0.007 A 
ATOM      5  C   UNL     1       0.086  -7.258  -0.893  0.00  0.00    +0.010 A 
ATOM      6  C   UNL     1       0.100  -8.229   0.047  0.00  0.00    +0.001 A 
ATOM      7  C   UNL     1       0.119  -9.595  -0.281  0.00  0.00    +0.002 A 
ATOM      8  C   UNL     1       0.125 -10.022  -1.562  0.00  0.00    +0.026 A 
ATOM      9  C   UNL     1       0.111  -9.028  -2.648  0.00  0.00    +0.044 A 
ATOM     10  N   UNL     1       0.113  -9.156  -3.944  0.00  0.00    -0.373 N 
ATOM     11  C   UNL     1       0.088  -7.827  -4.563  0.00  0.00    +0.144 C 
ATOM     12  H   UNL     1       0.124  -9.998  -4.425  0.00  0.00    +0.161 HD
BRANCH  11  13
ATOM     13  C   UNL     1       1.317  -7.630  -5.413  0.00  0.00    -0.021 A 
ATOM     14  C   UNL     1       2.528  -8.159  -5.008  0.00  0.00    +0.009 A 
ATOM     15  C   UNL     1       3.656  -7.980  -5.787  0.00  0.00    +0.039 A 
ATOM     16  C   UNL     1       3.572  -7.271  -6.973  0.00  0.00    +0.123 A 
ATOM     17  C   UNL     1       2.358  -6.742  -7.378  0.00  0.00    +0.039 A 
ATOM     18  C   UNL     1       1.231  -6.927  -6.600  0.00  0.00    +0.009 A 
ATOM     19  F   UNL     1       4.673  -7.096  -7.735  0.00  0.00    -0.205 F 
ENDBRANCH  11  13
ENDBRANCH   1   3
BRANCH   1  20
ATOM     20  C   UNL     1       0.055  -4.586  -2.264  0.00  0.00    +0.156 C 
BRANCH  20  21
ATOM     21  S   UNL     1       0.028  -2.829  -2.714  0.00  0.00    -0.078 S 
BRANCH  21  25
ATOM     22  C   UNL     1      -0.018   1.503   0.010  0.00  0.00    +0.066 C 
ATOM     23  C   UNL     1       0.002  -0.004   0.002  0.00  0.00    +0.049 A 
ATOM     24  N   UNL     1       0.006  -0.667  -1.144  0.00  0.00    -0.227 NA
ATOM     25  C   UNL     1       0.024  -1.992  -1.164  0.00  0.00    +0.192 A 
ATOM     26  N   UNL     1       0.040  -2.703  -0.045  0.00  0.00    -0.183 NA
ATOM     27  C   UNL     1       0.037  -2.103   1.138  0.00  0.00    +0.277 A 
ATOM     28  O   UNL     1       0.052  -2.833   2.280  0.00  0.00    -0.265 OA
ATOM     29  C   UNL     1       0.023  -0.709   1.191  0.00  0.00    +0.040 A 
BRANCH  29  30
ATOM     30  C   UNL     1       0.026   0.012   2.514  0.00  0.00    +0.054 C 
BRANCH  30  31
ATOM     31  C   UNL     1      -1.416   0.236   2.975  0.00  0.00    +0.130 C 
BRANCH  31  32
ATOM     32  C   UNL     1      -1.413   0.958   4.299  0.00  0.00    +0.356 C 
ATOM     33  O   UNL     1      -0.356   1.264   4.824  0.00  0.00    -0.246 OA
ATOM     34  O   UNL     1      -2.468   1.235   4.844  0.00  0.00    -0.246 OA
ENDBRANCH  31  32
ENDBRANCH  30  31
ENDBRANCH  29  30
ENDBRANCH  21  25
ENDBRANCH  20  21
ENDBRANCH   1  20
TORSDOF 8
