REMARK  Name = ZINC15874460
REMARK  7 active torsions:
REMARK  status: ('A' for Active; 'I' for Inactive)
REMARK    1  A    between atoms: C_4  and  S_8
REMARK    2  A    between atoms: S_8  and  N_11
REMARK    3  A    between atoms: C_14  and  C_17
REMARK    4  A    between atoms: N_19  and  N_20
REMARK    5  A    between atoms: N_20  and  C_21
REMARK    6  A    between atoms: C_21  and  N_23
REMARK    7  A    between atoms: N_23  and  C_24
REMARK                            x       y       z     vdW  Elec       q    Type
REMARK                         _______ _______ _______ _____ _____    ______ ____
ROOT
ATOM      1  N   UNL     1       6.804   5.790  -2.824  0.00  0.00    -0.176 NA
ATOM      2  C   UNL     1       7.221   5.814  -1.415  0.00  0.00    +0.110 C 
ATOM      3  C   UNL     1       6.825   4.486  -0.761  0.00  0.00    +0.030 C 
ATOM      4  C   UNL     1       5.328   4.247  -0.969  0.00  0.00    +0.079 C 
ATOM      5  C   UNL     1       5.027   4.156  -2.467  0.00  0.00    +0.030 C 
ATOM      6  C   UNL     1       5.404   5.479  -3.141  0.00  0.00    +0.110 C 
ENDROOT
BRANCH   4   7
ATOM      7  C   UNL     1       4.927   2.959  -0.298  0.00  0.00    +0.232 C 
ATOM      8  O   UNL     1       5.757   2.297   0.290  0.00  0.00    -0.274 OA
ATOM      9  N   UNL     1       3.646   2.542  -0.350  0.00  0.00    -0.235 N 
ATOM     10  H   UNL     1       2.983   3.070  -0.819  0.00  0.00    +0.173 HD
BRANCH   9  11
ATOM     11  N   UNL     1       3.274   1.344   0.275  0.00  0.00    -0.246 N 
ATOM     12  H   UNL     1       3.938   0.815   0.744  0.00  0.00    +0.172 HD
BRANCH  11  13
ATOM     13  C   UNL     1       1.994   0.927   0.223  0.00  0.00    +0.147 C 
ATOM     14  S   UNL     1       1.538  -0.537   0.986  0.00  0.00    -0.017 S 
BRANCH  13  15
ATOM     15  N   UNL     1       1.071   1.662  -0.430  0.00  0.00    -0.323 N 
ATOM     16  H   UNL     1       1.329   2.491  -0.862  0.00  0.00    +0.148 HD
BRANCH  15  17
ATOM     17  C   UNL     1      -0.321   1.208  -0.486  0.00  0.00    +0.072 C 
ATOM     18  C   UNL     1      -1.058   1.668   0.772  0.00  0.00    +0.022 C 
ATOM     19  C   UNL     1      -2.512   1.195   0.713  0.00  0.00    +0.002 C 
ATOM     20  C   UNL     1      -3.192   1.788  -0.522  0.00  0.00    +0.000 C 
ATOM     21  C   UNL     1      -2.454   1.328  -1.781  0.00  0.00    +0.002 C 
ATOM     22  C   UNL     1      -1.001   1.802  -1.722  0.00  0.00    +0.022 C 
ENDBRANCH  15  17
ENDBRANCH  13  15
ENDBRANCH  11  13
ENDBRANCH   9  11
ENDBRANCH   4   7
BRANCH   1  23
ATOM     23  S   UNL     1       7.892   6.107  -4.031  0.00  0.00    +0.062 S 
ATOM     24  O   UNL     1       7.133   6.390  -5.198  0.00  0.00    -0.153 OA
ATOM     25  O   UNL     1       8.837   7.024  -3.496  0.00  0.00    -0.153 OA
BRANCH  23  29
ATOM     26  C   UNL     1      10.140   2.263  -4.852  0.00  0.00    +0.021 A 
ATOM     27  C   UNL     1       8.797   2.357  -5.161  0.00  0.00    +0.023 A 
ATOM     28  C   UNL     1       8.109   3.531  -4.911  0.00  0.00    +0.067 A 
ATOM     29  C   UNL     1       8.768   4.612  -4.350  0.00  0.00    +0.125 A 
ATOM     30  C   UNL     1      10.112   4.520  -4.046  0.00  0.00    +0.050 A 
ATOM     31  C   UNL     1      10.798   3.343  -4.292  0.00  0.00    +0.043 A 
ATOM     32 CL   UNL     1      12.486   3.225  -3.903  0.00  0.00    -0.083 Cl
ATOM     33 CL   UNL     1       6.421   3.649  -5.299  0.00  0.00    -0.082 Cl
ENDBRANCH  23  29
ENDBRANCH   1  23
TORSDOF 7
