REMARK  Name = ZINC20170508
REMARK  10 active torsions:
REMARK  status: ('A' for Active; 'I' for Inactive)
REMARK    1  A    between atoms: C_1  and  C_2
REMARK    2  A    between atoms: C_5  and  C_8
REMARK    3  A    between atoms: C_8  and  C_10
REMARK    4  A    between atoms: C_10  and  S_11
REMARK    5  A    between atoms: S_11  and  C_12
REMARK    6  A    between atoms: C_13  and  C_35
REMARK    7  A    between atoms: C_14  and  C_30
REMARK    8  A    between atoms: C_16  and  C_20
REMARK    9  A    between atoms: C_17  and  C_19
REMARK   10  A    between atoms: N_22  and  C_23
REMARK                            x       y       z     vdW  Elec       q    Type
REMARK                         _______ _______ _______ _____ _____    ______ ____
ROOT
ATOM      1  C   UNL     1      -1.193  -4.825   0.771  0.00  0.00    +0.080 C 
ATOM      2  C   UNL     1       0.025  -4.219   0.790  0.00  0.00    +0.072 C 
ATOM      3  C   UNL     1       0.201  -2.807   0.310  0.00  0.00    +0.134 C 
ATOM      4  C   UNL     1      -1.123  -2.106   0.214  0.00  0.00    +0.047 C 
ATOM      5  C   UNL     1      -2.283  -2.783   0.221  0.00  0.00    +0.015 C 
ATOM      6  N   UNL     1      -2.302  -4.148   0.314  0.00  0.00    -0.312 N 
ATOM      7  C   UNL     1      -3.583  -2.028   0.120  0.00  0.00    +0.061 C 
ATOM      8  H   UNL     1      -3.204  -4.705   0.022  0.00  0.00    +0.152 HD
ENDROOT
BRANCH   3   9
ATOM      9  C   UNL     1       0.853  -2.823  -1.049  0.00  0.00    +0.118 A 
ATOM     10  C   UNL     1       2.042  -2.276  -1.358  0.00  0.00    +0.045 A 
ATOM     11  C   UNL     1       2.262  -2.525  -2.732  0.00  0.00    +0.041 A 
ATOM     12  C   UNL     1       1.195  -3.209  -3.180  0.00  0.00    +0.195 A 
ATOM     13  O   UNL     1       0.347  -3.392  -2.155  0.00  0.00    -0.467 OA
ENDBRANCH   3   9
BRANCH   4  14
ATOM     14  C   UNL     1      -1.151  -0.694   0.120  0.00  0.00    +0.247 C 
ATOM     15  O   UNL     1      -2.215  -0.103   0.139  0.00  0.00    -0.270 OA
ATOM     16  N   UNL     1       0.002  -0.003   0.010  0.00  0.00    -0.282 N 
ATOM     17  H   UNL     1       0.958  -0.539  -0.080  0.00  0.00    +0.155 HD
BRANCH  16  18
ATOM     18  C   UNL     1      -0.018   1.396   0.011  0.00  0.00    +0.034 A 
ATOM     19  C   UNL     1       1.013   2.106   0.612  0.00  0.00    +0.026 A 
ATOM     20  C   UNL     1       0.993   3.487   0.607  0.00  0.00    +0.040 A 
ATOM     21  C   UNL     1      -0.058   4.164   0.012  0.00  0.00    +0.124 A 
ATOM     22  C   UNL     1      -1.090   3.458  -0.583  0.00  0.00    +0.040 A 
ATOM     23  C   UNL     1      -1.072   2.077  -0.585  0.00  0.00    +0.026 A 
ATOM     24  F   UNL     1      -0.078   5.515   0.013  0.00  0.00    -0.205 F 
ENDBRANCH  16  18
ENDBRANCH   4  14
BRANCH   2  25
ATOM     25  C   UNL     1       1.161  -4.942   1.278  0.00  0.00    +0.098 C 
ATOM     26  N   UNL     1       2.062  -5.516   1.665  0.00  0.00    -0.191 NA
ENDBRANCH   2  25
BRANCH   1  27
ATOM     27  S   UNL     1      -1.352  -6.487   1.333  0.00  0.00    -0.101 S 
BRANCH  27  28
ATOM     28  C   UNL     1      -3.127  -6.735   1.079  0.00  0.00    +0.155 C 
BRANCH  28  29
ATOM     29  C   UNL     1      -3.505  -8.131   1.504  0.00  0.00    +0.173 C 
ATOM     30  O   UNL     1      -2.658  -8.883   1.937  0.00  0.00    -0.291 OA
BRANCH  29  35
ATOM     31  C   UNL     1      -8.961  -9.889   1.076  0.00  0.00    +0.044 C 
ATOM     32  C   UNL     1      -7.531  -9.428   1.188  0.00  0.00    -0.050 A 
ATOM     33  C   UNL     1      -6.567 -10.289   1.682  0.00  0.00    +0.004 A 
ATOM     34  C   UNL     1      -5.256  -9.875   1.788  0.00  0.00    +0.011 A 
ATOM     35  C   UNL     1      -4.902  -8.581   1.395  0.00  0.00    +0.018 A 
ATOM     36  C   UNL     1      -5.883  -7.715   0.901  0.00  0.00    +0.011 A 
ATOM     37  C   UNL     1      -7.188  -8.145   0.797  0.00  0.00    +0.004 A 
ENDBRANCH  29  35
ENDBRANCH  28  29
ENDBRANCH  27  28
ENDBRANCH   1  27
TORSDOF 8
