REMARK  Name = ZINC44854699
REMARK  7 active torsions:
REMARK  status: ('A' for Active; 'I' for Inactive)
REMARK    1  A    between atoms: C_1  and  C_2
REMARK    2  A    between atoms: C_2  and  C_4
REMARK    3  A    between atoms: C_2  and  N_16
REMARK    4  A    between atoms: C_7  and  N_10
REMARK    5  A    between atoms: C_17  and  C_19
REMARK    6  A    between atoms: N_24  and  C_26
REMARK    7  A    between atoms: C_26  and  C_27
REMARK                            x       y       z     vdW  Elec       q    Type
REMARK                         _______ _______ _______ _____ _____    ______ ____
ROOT
ATOM      1  N   UNL     1       0.698  -0.461  -1.203  0.00  0.00    -0.309 N 
ATOM      2  C   UNL     1       0.024  -0.592  -2.362  0.00  0.00    +0.215 C 
ATOM      3  O   UNL     1      -1.160  -0.333  -2.408  0.00  0.00    -0.276 OA
ATOM      4  H   UNL     1       1.645  -0.669  -1.167  0.00  0.00    +0.149 HD
ENDROOT
BRANCH   2   5
ATOM      5  C   UNL     1       0.740  -1.062  -3.602  0.00  0.00    +0.058 C 
ATOM      6  C   UNL     1       1.325  -2.456  -3.357  0.00  0.00    +0.009 C 
ATOM      7  C   UNL     1       1.982  -2.957  -4.647  0.00  0.00    -0.018 C 
ATOM      8  C   UNL     1       0.949  -2.952  -5.775  0.00  0.00    -0.078 C 
ATOM      9  N   UNL     1       0.447  -1.587  -5.978  0.00  0.00    +0.383 N 
ATOM     10  C   UNL     1      -0.248  -1.127  -4.769  0.00  0.00    -0.066 C 
ATOM     11  H   UNL     1       1.221  -0.971  -6.175  0.00  0.00    -0.081 HD
BRANCH   9  12
ATOM     12  C   UNL     1      -0.486  -1.574  -7.112  0.00  0.00    -0.043 C 
BRANCH  12  13
ATOM     13  C   UNL     1       0.256  -1.919  -8.377  0.00  0.00    -0.064 A 
ATOM     14  C   UNL     1       0.835  -0.917  -9.133  0.00  0.00    +0.003 A 
ATOM     15  C   UNL     1       1.517  -1.232 -10.294  0.00  0.00    +0.015 A 
ATOM     16  C   UNL     1       1.619  -2.551 -10.699  0.00  0.00    +0.018 A 
ATOM     17  C   UNL     1       1.039  -3.553  -9.942  0.00  0.00    +0.015 A 
ATOM     18  C   UNL     1       0.362  -3.237  -8.779  0.00  0.00    +0.003 A 
ATOM     19 BR   UNL     1       2.551  -2.983 -12.286  0.00  0.00    -0.050 Br
ENDBRANCH  12  13
ENDBRANCH   9  12
ENDBRANCH   2   5
BRANCH   1  21
ATOM     20  C   UNL     1      -0.036   1.525   0.020  0.00  0.00    +0.033 C 
ATOM     21  C   UNL     1       0.002  -0.004   0.002  0.00  0.00    +0.100 C 
BRANCH  21  22
ATOM     22  C   UNL     1       0.731  -0.503   1.223  0.00  0.00    -0.027 A 
ATOM     23  C   UNL     1       2.114  -0.498   1.251  0.00  0.00    +0.007 A 
ATOM     24  C   UNL     1       2.785  -0.955   2.369  0.00  0.00    +0.023 A 
ATOM     25  C   UNL     1       2.069  -1.420   3.465  0.00  0.00    +0.030 A 
ATOM     26  C   UNL     1       0.680  -1.424   3.433  0.00  0.00    +0.023 A 
ATOM     27  C   UNL     1       0.016  -0.960   2.315  0.00  0.00    +0.007 A 
BRANCH  25  28
ATOM     28  N   UNL     1       2.745  -1.883   4.596  0.00  0.00    -0.330 N 
ATOM     29  C   UNL     1       2.004  -2.265   5.806  0.00  0.00    +0.105 C 
ATOM     30  C   UNL     1       2.411  -3.687   6.205  0.00  0.00    +0.019 C 
ATOM     31  C   UNL     1       3.933  -3.755   6.352  0.00  0.00    +0.003 C 
ATOM     32  C   UNL     1       4.592  -3.423   5.011  0.00  0.00    +0.019 C 
ATOM     33  C   UNL     1       4.209  -2.004   4.596  0.00  0.00    +0.105 C 
ENDBRANCH  25  28
ENDBRANCH  21  22
ENDBRANCH   1  21
TORSDOF 6
