REMARK  Name = ZINC12420623
REMARK  7 active torsions:
REMARK  status: ('A' for Active; 'I' for Inactive)
REMARK    1  A    between atoms: C_1  and  O_2
REMARK    2  A    between atoms: O_2  and  C_3
REMARK    3  A    between atoms: C_6  and  C_9
REMARK    4  A    between atoms: C_12  and  C_34
REMARK    5  A    between atoms: C_17  and  C_19
REMARK    6  A    between atoms: N_21  and  C_22
REMARK    7  A    between atoms: C_22  and  C_23
REMARK                            x       y       z     vdW  Elec       q    Type
REMARK                         _______ _______ _______ _____ _____    ______ ____
ROOT
ATOM      1  C   UNL     1       2.505  -2.503  -4.381  0.00  0.00    +0.104 C 
ATOM      2  C   UNL     1       1.442  -2.972  -5.382  0.00  0.00    +0.063 C 
ATOM      3  C   UNL     1       0.445  -3.905  -4.686  0.00  0.00    +0.215 C 
ATOM      4  N   UNL     1       1.189  -4.935  -3.957  0.00  0.00    -0.238 N 
ATOM      5  C   UNL     1       2.504  -4.815  -3.607  0.00  0.00    +0.119 A 
ATOM      6  C   UNL     1       2.869  -5.936  -2.954  0.00  0.00    +0.078 A 
ATOM      7  C   UNL     1       1.738  -6.782  -2.894  0.00  0.00    +0.149 A 
ATOM      8  N   UNL     1       0.735  -6.171  -3.499  0.00  0.00    -0.164 NA
ATOM      9  N   UNL     1       3.265  -3.679  -3.914  0.00  0.00    -0.322 N 
ATOM     10  H   UNL     1       4.231  -3.664  -3.828  0.00  0.00    +0.148 HD
ENDROOT
BRANCH   1  14
ATOM     11  C   UNL     1       0.606  -0.607  -1.056  0.00  0.00    +0.120 A 
ATOM     12  C   UNL     1       1.173   0.161  -2.062  0.00  0.00    +0.046 A 
ATOM     13  C   UNL     1       1.786  -0.455  -3.136  0.00  0.00    +0.009 A 
ATOM     14  C   UNL     1       1.835  -1.835  -3.209  0.00  0.00    -0.027 A 
ATOM     15  C   UNL     1       1.270  -2.602  -2.207  0.00  0.00    +0.009 A 
ATOM     16  C   UNL     1       0.661  -1.992  -1.128  0.00  0.00    +0.046 A 
BRANCH  11  18
ATOM     17  C   UNL     1      -0.017   1.425   0.010  0.00  0.00    +0.277 C 
ATOM     18  O   UNL     1       0.002  -0.004   0.002  0.00  0.00    -0.495 OA
ENDBRANCH  11  18
ENDBRANCH   1  14
BRANCH   7  19
ATOM     19  C   UNL     1       1.687  -8.118  -2.265  0.00  0.00    +0.264 C 
ATOM     20  O   UNL     1       2.679  -8.579  -1.735  0.00  0.00    -0.268 OA
ATOM     21  N   UNL     1       0.540  -8.825  -2.277  0.00  0.00    -0.310 N 
ATOM     22  H   UNL     1      -0.252  -8.457  -2.700  0.00  0.00    +0.149 HD
BRANCH  21  23
ATOM     23  C   UNL     1       0.489 -10.149  -1.653  0.00  0.00    +0.111 C 
BRANCH  23  24
ATOM     24  C   UNL     1      -0.918 -10.732  -1.806  0.00  0.00    -0.013 C 
ATOM     25  C   UNL     1      -1.260 -10.855  -3.292  0.00  0.00    +0.012 C 
ATOM     26  C   UNL     1      -2.666 -11.437  -3.445  0.00  0.00    -0.010 C 
ATOM     27  C   UNL     1      -2.719 -12.820  -2.793  0.00  0.00    +0.007 C 
ATOM     28  C   UNL     1      -2.377 -12.697  -1.307  0.00  0.00    -0.010 C 
ATOM     29  C   UNL     1      -0.971 -12.115  -1.154  0.00  0.00    +0.012 C 
ATOM     30  C   UNL     1      -3.389 -11.773  -0.626  0.00  0.00    +0.007 C 
ATOM     31  C   UNL     1      -3.336 -10.390  -1.278  0.00  0.00    -0.010 C 
ATOM     32  C   UNL     1      -3.678 -10.513  -2.764  0.00  0.00    +0.007 C 
ATOM     33  C   UNL     1      -1.929  -9.808  -1.125  0.00  0.00    +0.012 C 
ENDBRANCH  23  24
ENDBRANCH  21  23
ENDBRANCH   7  19
BRANCH   3  34
ATOM     34  C   UNL     1      -0.456  -4.564  -5.733  0.00  0.00    +0.412 C 
ATOM     35  F   UNL     1       0.329  -5.303  -6.624  0.00  0.00    -0.168 F 
ATOM     36  F   UNL     1      -1.365  -5.415  -5.096  0.00  0.00    -0.168 F 
ATOM     37  F   UNL     1      -1.155  -3.577  -6.436  0.00  0.00    -0.168 F 
ENDBRANCH   3  34
TORSDOF 6
