REMARK  Name = ZINC41331920
REMARK  5 active torsions:
REMARK  status: ('A' for Active; 'I' for Inactive)
REMARK    1  A    between atoms: C_5  and  C_11
REMARK    2  A    between atoms: N_13  and  C_14
REMARK    3  A    between atoms: C_17  and  S_20
REMARK    4  A    between atoms: S_20  and  N_23
REMARK    5  A    between atoms: N_23  and  C_24
REMARK                            x       y       z     vdW  Elec       q    Type
REMARK                         _______ _______ _______ _____ _____    ______ ____
ROOT
ATOM      1  C   UNL     1       7.997  -0.659  -0.170  0.00  0.00    +0.034 A 
ATOM      2  C   UNL     1       8.787   0.483  -0.160  0.00  0.00    +0.025 A 
ATOM      3  C   UNL     1      10.160   0.373  -0.263  0.00  0.00    +0.031 A 
ATOM      4  C   UNL     1      10.748  -0.874  -0.377  0.00  0.00    +0.111 A 
ATOM      5  C   UNL     1       9.965  -2.013  -0.386  0.00  0.00    +0.031 A 
ATOM      6  C   UNL     1       8.592  -1.910  -0.278  0.00  0.00    +0.025 A 
ENDROOT
BRANCH   1   9
ATOM      7  C   UNL     1       5.967   0.487  -0.638  0.00  0.00    +0.284 C 
ATOM      8  O   UNL     1       6.605   1.374  -1.174  0.00  0.00    -0.266 OA
ATOM      9  N   UNL     1       6.607  -0.551  -0.065  0.00  0.00    -0.279 N 
ATOM     10  H   UNL     1       6.104  -1.223   0.420  0.00  0.00    +0.155 HD
BRANCH   7  15
ATOM     11  C   UNL     1      -0.033   1.177  -0.803  0.00  0.00    +0.004 A 
ATOM     12  C   UNL     1       1.127   1.782  -1.196  0.00  0.00    +0.012 A 
ATOM     13  C   UNL     1       2.355   1.186  -0.900  0.00  0.00    +0.024 A 
ATOM     14  C   UNL     1       3.750   1.542  -1.159  0.00  0.00    +0.063 A 
ATOM     15  C   UNL     1       4.499   0.548  -0.616  0.00  0.00    +0.191 A 
ATOM     16  O   UNL     1       3.692  -0.376  -0.053  0.00  0.00    -0.447 OA
ATOM     17  C   UNL     1       2.397  -0.034  -0.200  0.00  0.00    +0.171 A 
ATOM     18  C   UNL     1       1.203  -0.632   0.191  0.00  0.00    +0.166 A 
ATOM     19  C   UNL     1       0.000  -0.026  -0.112  0.00  0.00    +0.042 A 
ATOM     20  F   UNL     1       1.220  -1.804   0.864  0.00  0.00    -0.202 F 
ENDBRANCH   7  15
ENDBRANCH   1   9
BRANCH   4  21
ATOM     21  S   UNL     1      12.500  -1.010  -0.509  0.00  0.00    +0.093 S 
ATOM     22  O   UNL     1      12.763  -2.250  -1.152  0.00  0.00    -0.148 OA
ATOM     23  O   UNL     1      12.966   0.229  -1.025  0.00  0.00    -0.148 OA
BRANCH  21  24
ATOM     24  N   UNL     1      13.099  -1.138   1.029  0.00  0.00    -0.070 NA
BRANCH  24  25
ATOM     25  C   UNL     1      14.465  -1.260   1.234  0.00  0.00    +0.201 A 
ATOM     26  N   UNL     1      15.427  -1.287   0.336  0.00  0.00    -0.231 NA
ATOM     27  C   UNL     1      16.692  -1.409   0.696  0.00  0.00    +0.120 A 
ATOM     28  C   UNL     1      16.949  -1.505   2.022  0.00  0.00    +0.068 A 
ATOM     29  S   UNL     1      15.296  -1.403   2.690  0.00  0.00    -0.058 S 
ENDBRANCH  24  25
ENDBRANCH  21  24
ENDBRANCH   4  21
TORSDOF 5
