REMARK  Name = ZINC15228019
REMARK  6 active torsions:
REMARK  status: ('A' for Active; 'I' for Inactive)
REMARK    1  A    between atoms: C_6  and  S_11
REMARK    2  A    between atoms: S_11  and  N_14
REMARK    3  A    between atoms: C_18  and  C_20
REMARK    4  A    between atoms: N_22  and  C_23
REMARK    5  A    between atoms: C_28  and  C_29
REMARK    6  A    between atoms: N_31  and  C_32
REMARK                            x       y       z     vdW  Elec       q    Type
REMARK                         _______ _______ _______ _____ _____    ______ ____
ROOT
ATOM      1  C   UNL     1      -1.727  -0.536  -0.598  0.00  0.00    +0.236 C 
ATOM      2  O   UNL     1      -1.634  -0.592   0.610  0.00  0.00    -0.274 OA
ATOM      3  N   UNL     1      -2.736  -1.172  -1.226  0.00  0.00    -0.283 N 
ATOM      4  H   UNL     1      -2.852  -1.070  -2.184  0.00  0.00    +0.155 HD
ENDROOT
BRANCH   3   5
ATOM      5  C   UNL     1      -3.611  -1.977  -0.500  0.00  0.00    +0.046 A 
ATOM      6  C   UNL     1      -4.033  -1.586   0.763  0.00  0.00    +0.024 A 
ATOM      7  C   UNL     1      -4.904  -2.382   1.479  0.00  0.00    +0.002 A 
ATOM      8  C   UNL     1      -5.356  -3.580   0.948  0.00  0.00    +0.001 A 
ATOM      9  C   UNL     1      -4.944  -3.987  -0.302  0.00  0.00    +0.015 A 
ATOM     10  C   UNL     1      -4.066  -3.189  -1.040  0.00  0.00    +0.058 A 
BRANCH  10  11
ATOM     11  C   UNL     1      -3.621  -3.618  -2.379  0.00  0.00    +0.250 C 
ATOM     12  O   UNL     1      -2.770  -2.981  -2.970  0.00  0.00    -0.270 OA
ATOM     13  N   UNL     1      -4.156  -4.717  -2.947  0.00  0.00    -0.281 N 
ATOM     14  H   UNL     1      -4.868  -5.198  -2.497  0.00  0.00    +0.155 HD
BRANCH  13  15
ATOM     15  C   UNL     1      -3.686  -5.163  -4.188  0.00  0.00    +0.034 A 
ATOM     16  C   UNL     1      -3.532  -6.523  -4.424  0.00  0.00    +0.026 A 
ATOM     17  C   UNL     1      -3.074  -6.962  -5.651  0.00  0.00    +0.040 A 
ATOM     18  C   UNL     1      -2.756  -6.046  -6.641  0.00  0.00    +0.124 A 
ATOM     19  C   UNL     1      -2.904  -4.690  -6.405  0.00  0.00    +0.040 A 
ATOM     20  C   UNL     1      -3.368  -4.247  -5.181  0.00  0.00    +0.026 A 
ATOM     21  F   UNL     1      -2.303  -6.477  -7.838  0.00  0.00    -0.205 F 
ENDBRANCH  13  15
ENDBRANCH  10  11
ENDBRANCH   3   5
BRANCH   1  26
ATOM     22  N   UNL     1       0.646  -0.011  -0.890  0.00  0.00    -0.165 NA
ATOM     23  C   UNL     1       1.421   1.236  -0.971  0.00  0.00    +0.110 C 
ATOM     24  C   UNL     1       0.480   2.325  -1.527  0.00  0.00    +0.019 C 
ATOM     25  C   UNL     1      -0.930   1.768  -1.197  0.00  0.00    +0.031 C 
ATOM     26  C   UNL     1      -0.715   0.245  -1.396  0.00  0.00    +0.166 C 
BRANCH  22  27
ATOM     27  S   UNL     1       1.210  -1.463  -0.329  0.00  0.00    +0.062 S 
ATOM     28  O   UNL     1       2.192  -1.165   0.654  0.00  0.00    -0.153 OA
ATOM     29  O   UNL     1       0.068  -2.261  -0.048  0.00  0.00    -0.153 OA
BRANCH  27  35
ATOM     30  C   UNL     1       5.370  -3.975  -4.954  0.00  0.00    +0.001 A 
ATOM     31  C   UNL     1       6.094  -3.224  -4.030  0.00  0.00    +0.001 A 
ATOM     32  C   UNL     1       5.473  -2.609  -2.987  0.00  0.00    +0.008 A 
ATOM     33  C   UNL     1       4.080  -2.728  -2.839  0.00  0.00    -0.016 A 
ATOM     34  C   UNL     1       3.403  -2.106  -1.776  0.00  0.00    +0.037 A 
ATOM     35  C   UNL     1       2.054  -2.244  -1.664  0.00  0.00    +0.106 A 
ATOM     36  C   UNL     1       1.331  -2.999  -2.585  0.00  0.00    +0.029 A 
ATOM     37  C   UNL     1       1.952  -3.612  -3.630  0.00  0.00    +0.010 A 
ATOM     38  C   UNL     1       3.344  -3.492  -3.779  0.00  0.00    -0.018 A 
ATOM     39  C   UNL     1       4.021  -4.114  -4.842  0.00  0.00    +0.008 A 
ENDBRANCH  27  35
ENDBRANCH  22  27
ENDBRANCH   1  26
TORSDOF 6
