REMARK  Name = ZINC04151687
REMARK  12 active torsions:
REMARK  status: ('A' for Active; 'I' for Inactive)
REMARK    1  A    between atoms: C_1  and  O_2
REMARK    2  A    between atoms: O_2  and  C_3
REMARK    3  A    between atoms: C_5  and  S_40
REMARK    4  A    between atoms: C_8  and  C_9
REMARK    5  A    between atoms: N_11  and  C_12
REMARK    6  A    between atoms: C_15  and  C_23
REMARK    7  A    between atoms: C_17  and  O_22
REMARK    8  A    between atoms: C_19  and  O_21
REMARK    9  A    between atoms: C_34  and  C_36
REMARK   10  A    between atoms: C_36  and  O_38
REMARK   11  A    between atoms: O_38  and  C_39
REMARK   12  A    between atoms: S_40  and  C_41
REMARK                            x       y       z     vdW  Elec       q    Type
REMARK                         _______ _______ _______ _____ _____    ______ ____
ROOT
ATOM      1  C   UNL     1       6.224   0.355  -0.530  0.00  0.00    +0.128 C 
ATOM      2  C   UNL     1       4.786   0.729  -0.317  0.00  0.00    +0.006 C 
ATOM      3  C   UNL     1       3.788  -0.124  -0.401  0.00  0.00    +0.015 C 
ATOM      4  C   UNL     1       3.958  -1.577  -0.741  0.00  0.00    +0.074 C 
ATOM      5  C   UNL     1       5.416  -1.997  -0.544  0.00  0.00    +0.149 C 
ATOM      6  C   UNL     1       6.316  -0.985  -1.264  0.00  0.00    +0.167 C 
ENDROOT
BRANCH   3   7
ATOM      7  C   UNL     1       2.427   0.375  -0.153  0.00  0.00    +0.243 C 
ATOM      8  O   UNL     1       1.681  -0.236   0.587  0.00  0.00    -0.270 OA
ATOM      9  N   UNL     1       2.007   1.510  -0.747  0.00  0.00    -0.280 N 
ATOM     10  C   UNL     1       2.837   2.206  -1.736  0.00  0.00    +0.144 C 
ATOM     11  C   UNL     1       1.987   2.623  -2.909  0.00  0.00    -0.027 A 
ATOM     12  C   UNL     1       2.634   3.086  -4.046  0.00  0.00    +0.005 A 
ATOM     13  C   UNL     1       1.911   3.490  -5.149  0.00  0.00    +0.000 A 
ATOM     14  C   UNL     1       0.529   3.434  -5.121  0.00  0.00    +0.000 A 
ATOM     15  C   UNL     1      -0.115   2.971  -3.993  0.00  0.00    +0.004 A 
ATOM     16  C   UNL     1       0.612   2.559  -2.882  0.00  0.00    -0.040 A 
ATOM     17  C   UNL     1      -0.160   2.053  -1.692  0.00  0.00    +0.069 C 
ATOM     18  C   UNL     1       0.697   2.102  -0.428  0.00  0.00    +0.189 C 
BRANCH  18  19
ATOM     19  C   UNL     1       0.034   1.309   0.669  0.00  0.00    +0.328 C 
ATOM     20  O   UNL     1       0.007   1.744   1.796  0.00  0.00    -0.249 OA
BRANCH  19  21
ATOM     21  O   UNL     1      -0.533   0.124   0.393  0.00  0.00    -0.467 OA
ATOM     22  C   UNL     1      -1.154  -0.584   1.498  0.00  0.00    +0.280 C 
ENDBRANCH  19  21
ENDBRANCH  18  19
ENDBRANCH   3   7
BRANCH   1  25
ATOM     23  C   UNL     1       7.395   1.348   1.362  0.00  0.00    +0.248 C 
ATOM     24  O   UNL     1       7.282   2.433   0.825  0.00  0.00    -0.270 OA
ATOM     25  N   UNL     1       6.899   0.246   0.765  0.00  0.00    -0.302 N 
ATOM     26  H   UNL     1       6.990  -0.620   1.194  0.00  0.00    +0.150 HD
BRANCH  23  32
ATOM     27  C   UNL     1       8.591   2.385   3.287  0.00  0.00    +0.133 A 
ATOM     28  C   UNL     1       9.227   2.271   4.511  0.00  0.00    +0.061 A 
ATOM     29  C   UNL     1       9.350   1.025   5.114  0.00  0.00    +0.011 A 
ATOM     30  C   UNL     1       8.833  -0.111   4.491  0.00  0.00    +0.015 A 
ATOM     31  C   UNL     1       8.200  -0.009   3.287  0.00  0.00    +0.018 A 
ATOM     32  C   UNL     1       8.074   1.238   2.664  0.00  0.00    +0.078 A 
BRANCH  27  34
ATOM     33  C   UNL     1       9.019   4.719   3.387  0.00  0.00    +0.277 C 
ATOM     34  O   UNL     1       8.468   3.598   2.693  0.00  0.00    -0.494 OA
ENDBRANCH  27  34
BRANCH  29  35
ATOM     35  S   UNL     1      10.159   0.880   6.672  0.00  0.00    -0.128 S 
ATOM     36  C   UNL     1      10.075  -0.893   7.047  0.00  0.00    +0.090 C 
ENDBRANCH  29  35
ENDBRANCH  23  32
ENDBRANCH   1  25
BRANCH   6  37
ATOM     37  O   UNL     1       7.667  -1.448  -1.250  0.00  0.00    -0.387 OA
ATOM     38  H   UNL     1       7.795  -2.302  -1.686  0.00  0.00    +0.210 HD
ENDBRANCH   6  37
BRANCH   5  39
ATOM     39  O   UNL     1       5.618  -3.300  -1.093  0.00  0.00    -0.389 OA
ATOM     40  H   UNL     1       5.069  -3.986  -0.691  0.00  0.00    +0.210 HD
ENDBRANCH   5  39
TORSDOF 9
