REMARK  Name = ZINC09777234
REMARK  13 active torsions:
REMARK  status: ('A' for Active; 'I' for Inactive)
REMARK    1  A    between atoms: C_1  and  C_2
REMARK    2  A    between atoms: C_5  and  N_9
REMARK    3  A    between atoms: C_7  and  C_8
REMARK    4  A    between atoms: C_10  and  C_12
REMARK    5  A    between atoms: N_23  and  C_40
REMARK    6  A    between atoms: C_24  and  C_26
REMARK    7  A    between atoms: N_28  and  C_29
REMARK    8  A    between atoms: C_34  and  C_39
REMARK    9  A    between atoms: C_36  and  C_38
REMARK   10  A    between atoms: C_40  and  C_41
REMARK   11  A    between atoms: C_41  and  C_42
REMARK   12  A    between atoms: C_42  and  C_43
REMARK   13  A    between atoms: C_42  and  C_44
REMARK                            x       y       z     vdW  Elec       q    Type
REMARK                         _______ _______ _______ _____ _____    ______ ____
ROOT
ATOM      1  C   UNL     1      -7.946   2.404  -3.650  0.00  0.00    +0.123 C 
ATOM      2  C   UNL     1      -7.095   3.648  -4.063  0.00  0.00    +0.155 C 
ATOM      3  C   UNL     1      -6.333   4.102  -2.813  0.00  0.00    +0.004 C 
ATOM      4  C   UNL     1      -5.365   3.204  -2.589  0.00  0.00    +0.009 C 
ATOM      5  C   UNL     1      -5.562   2.197  -3.665  0.00  0.00    +0.127 C 
ATOM      6  C   UNL     1      -6.854   1.376  -3.303  0.00  0.00    +0.128 C 
ATOM      7  C   UNL     1      -6.740   0.227  -4.265  0.00  0.00    +0.223 C 
ATOM      8  O   UNL     1      -7.668  -0.433  -4.683  0.00  0.00    -0.275 OA
ATOM      9  N   UNL     1      -5.433   0.042  -4.592  0.00  0.00    -0.287 N 
ATOM     10  C   UNL     1      -4.590   1.110  -4.003  0.00  0.00    +0.198 C 
ATOM     11  O   UNL     1      -6.011   2.979  -4.804  0.00  0.00    -0.358 OA
ENDROOT
BRANCH   1  13
ATOM     12  N   UNL     1      -9.939   1.256  -4.560  0.00  0.00    -0.285 N 
ATOM     13  C   UNL     1      -8.794   1.924  -4.800  0.00  0.00    +0.224 C 
ATOM     14  O   UNL     1      -8.444   2.139  -5.941  0.00  0.00    -0.275 OA
ATOM     15  H   UNL     1     -10.253   1.143  -3.649  0.00  0.00    +0.155 HD
BRANCH  12  20
ATOM     16  C   UNL     1     -12.926  -0.893  -8.877  0.00  0.00    +0.044 C 
ATOM     17  C   UNL     1     -12.133  -0.322  -7.731  0.00  0.00    -0.047 A 
ATOM     18  C   UNL     1     -11.463   0.878  -7.885  0.00  0.00    +0.005 A 
ATOM     19  C   UNL     1     -10.740   1.407  -6.834  0.00  0.00    +0.023 A 
ATOM     20  C   UNL     1     -10.676   0.726  -5.625  0.00  0.00    +0.034 A 
ATOM     21  C   UNL     1     -11.350  -0.478  -5.473  0.00  0.00    +0.027 A 
ATOM     22  C   UNL     1     -12.076  -0.999  -6.526  0.00  0.00    -0.046 A 
ATOM     23  C   UNL     1     -12.808  -2.307  -6.363  0.00  0.00    +0.044 C 
ENDBRANCH  12  20
ENDBRANCH   1  13
BRANCH  10  24
ATOM     24  C   UNL     1      -3.900   0.613  -2.759  0.00  0.00    +0.237 C 
ATOM     25  O   UNL     1      -4.294  -0.393  -2.208  0.00  0.00    -0.274 OA
ATOM     26  N   UNL     1      -2.845   1.287  -2.258  0.00  0.00    -0.311 N 
ATOM     27  H   UNL     1      -2.531   2.092  -2.699  0.00  0.00    +0.149 HD
BRANCH  26  28
ATOM     28  C   UNL     1      -2.175   0.803  -1.049  0.00  0.00    +0.076 C 
ATOM     29  C   UNL     1      -2.909   1.328   0.186  0.00  0.00    +0.022 C 
ATOM     30  C   UNL     1      -2.208   0.823   1.449  0.00  0.00    +0.002 C 
ATOM     31  C   UNL     1      -0.763   1.324   1.465  0.00  0.00    +0.003 C 
ATOM     32  C   UNL     1      -0.028   0.799   0.230  0.00  0.00    -0.009 C 
ATOM     33  C   UNL     1      -0.729   1.304  -1.033  0.00  0.00    +0.009 C 
ATOM     34  C   UNL     1      -0.718   2.833  -1.046  0.00  0.00    +0.009 C 
ATOM     35  C   UNL     1       1.418   1.299   0.245  0.00  0.00    +0.008 C 
ENDBRANCH  26  28
ENDBRANCH  10  24
BRANCH   9  36
ATOM     36  C   UNL     1      -4.924  -1.059  -5.414  0.00  0.00    +0.109 C 
BRANCH  36  37
ATOM     37  C   UNL     1      -4.563  -2.243  -4.514  0.00  0.00    +0.022 C 
BRANCH  37  38
ATOM     38  C   UNL     1      -4.032  -3.393  -5.373  0.00  0.00    -0.016 C 
ATOM     39  C   UNL     1      -2.719  -2.971  -6.034  0.00  0.00    +0.007 C 
ATOM     40  C   UNL     1      -3.788  -4.618  -4.489  0.00  0.00    +0.007 C 
ENDBRANCH  37  38
ENDBRANCH  36  37
ENDBRANCH   9  36
TORSDOF 7
