REMARK  Name = ZINC66928505
REMARK  6 active torsions:
REMARK  status: ('A' for Active; 'I' for Inactive)
REMARK    1  A    between atoms: C_3  and  N_25
REMARK    2  A    between atoms: C_4  and  O_24
REMARK    3  A    between atoms: C_6  and  C_7
REMARK    4  A    between atoms: C_12  and  N_15
REMARK    5  A    between atoms: C_16  and  C_18
REMARK    6  A    between atoms: C_18  and  C_19
REMARK                            x       y       z     vdW  Elec       q    Type
REMARK                         _______ _______ _______ _____ _____    ______ ____
ROOT
ATOM      1  C   UNL     1      -1.267  -0.763   0.011  0.00  0.00    +0.247 C 
ATOM      2  O   UNL     1      -0.228  -0.140   0.111  0.00  0.00    -0.270 OA
ATOM      3  N   UNL     1      -2.441  -0.107  -0.076  0.00  0.00    -0.297 N 
ATOM      4  C   UNL     1      -2.473   1.358  -0.185  0.00  0.00    +0.110 C 
ATOM      5  C   UNL     1      -3.382   1.914   0.915  0.00  0.00    +0.041 C 
ATOM      6  C   UNL     1      -4.756   1.246   0.823  0.00  0.00    +0.076 C 
ATOM      7  C   UNL     1      -4.607  -0.262   1.036  0.00  0.00    +0.041 C 
ATOM      8  C   UNL     1      -3.712  -0.844  -0.069  0.00  0.00    +0.110 C 
ENDROOT
BRANCH   1  14
ATOM      9  C   UNL     1      -0.395  -2.944   0.843  0.00  0.00    +0.015 A 
ATOM     10  C   UNL     1      -0.375  -4.323   0.815  0.00  0.00    +0.037 A 
ATOM     11  C   UNL     1      -1.192  -5.013  -0.061  0.00  0.00    +0.167 A 
ATOM     12  C   UNL     1      -2.037  -4.324  -0.920  0.00  0.00    +0.148 A 
ATOM     13  C   UNL     1      -2.065  -2.939  -0.901  0.00  0.00    +0.060 A 
ATOM     14  C   UNL     1      -1.242  -2.241  -0.016  0.00  0.00    +0.040 A 
BRANCH  11  15
ATOM     15  N   UNL     1      -1.164  -6.493  -0.085  0.00  0.00    +0.060 N 
ATOM     16  O   UNL     1      -0.429  -7.096   0.662  0.00  0.00    -0.126 OA
ATOM     17  O   UNL     1      -1.877  -7.099  -0.850  0.00  0.00    -0.126 OA
ENDBRANCH  11  15
BRANCH  12  18
ATOM     18  O   UNL     1      -2.837  -5.007  -1.780  0.00  0.00    -0.504 OA
ATOM     19  H   UNL     1      -3.706  -5.227  -1.419  0.00  0.00    +0.292 HD
ENDBRANCH  12  18
ENDBRANCH   1  14
BRANCH   6  20
ATOM     20  N   UNL     1      -5.638   1.800   1.853  0.00  0.00    -0.312 N 
ATOM     21  C   UNL     1      -6.975   1.773   1.681  0.00  0.00    +0.214 C 
ATOM     22  O   UNL     1      -7.447   1.290   0.673  0.00  0.00    -0.276 OA
ATOM     23  H   UNL     1      -5.261   2.186   2.658  0.00  0.00    +0.149 HD
BRANCH  21  24
ATOM     24  C   UNL     1      -7.883   2.342   2.741  0.00  0.00    +0.099 C 
BRANCH  24  25
ATOM     25  C   UNL     1      -9.340   2.187   2.301  0.00  0.00    -0.002 C 
ATOM     26  C   UNL     1      -9.625   3.094   1.087  0.00  0.00    +0.004 C 
ATOM     27  C   UNL     1     -11.069   3.603   1.323  0.00  0.00    +0.000 C 
ATOM     28  C   UNL     1     -11.107   3.822   2.856  0.00  0.00    +0.000 C 
ATOM     29  C   UNL     1     -10.282   2.650   3.426  0.00  0.00    +0.004 C 
ENDBRANCH  24  25
ENDBRANCH  21  24
ENDBRANCH   6  20
TORSDOF 6
