REMARK  Name = ZINC14544902
REMARK  5 active torsions:
REMARK  status: ('A' for Active; 'I' for Inactive)
REMARK    1  A    between atoms: C_1  and  C_2
REMARK    2  A    between atoms: C_2  and  C_4
REMARK    3  A    between atoms: C_2  and  N_10
REMARK    4  A    between atoms: C_11  and  C_13
REMARK    5  A    between atoms: C_20  and  C_29
REMARK                            x       y       z     vdW  Elec       q    Type
REMARK                         _______ _______ _______ _____ _____    ______ ____
ROOT
ATOM      1  C   UNL     1       2.295  -2.298  -0.360  0.00  0.00    +0.058 A 
ATOM      2  C   UNL     1       2.008  -3.418   0.417  0.00  0.00    +0.015 A 
ATOM      3  C   UNL     1       1.723  -3.275   1.757  0.00  0.00    +0.001 A 
ATOM      4  C   UNL     1       1.715  -2.014   2.329  0.00  0.00    +0.006 A 
ATOM      5  C   UNL     1       1.989  -0.894   1.575  0.00  0.00    -0.019 A 
ATOM      6  C   UNL     1       2.295  -1.010   0.215  0.00  0.00    +0.044 A 
ATOM      7  N   UNL     1       2.603   0.060  -0.608  0.00  0.00    -0.336 N 
ATOM      8  C   UNL     1       2.512   1.403  -0.015  0.00  0.00    +0.107 C 
ATOM      9  C   UNL     1       3.038   1.302   1.402  0.00  0.00    +0.029 C 
ATOM     10  C   UNL     1       1.962   0.464   2.160  0.00  0.00    +0.049 C 
ATOM     11  C   UNL     1       2.293   0.732   3.581  0.00  0.00    -0.023 C 
ATOM     12  C   UNL     1       2.845   1.938   3.665  0.00  0.00    -0.030 C 
ATOM     13  C   UNL     1       2.957   2.559   2.270  0.00  0.00    +0.033 C 
ATOM     14  H   UNL     1       3.494  -0.077  -1.060  0.00  0.00    +0.147 HD
ENDROOT
BRANCH   8  15
ATOM     15  C   UNL     1       1.076   1.861   0.002  0.00  0.00    -0.002 A 
ATOM     16  C   UNL     1      -0.013   1.076   0.008  0.00  0.00    +0.089 A 
ATOM     17  N   UNL     1      -1.144   1.846   0.017  0.00  0.00    -0.360 N 
ATOM     18  H   UNL     1      -2.051   1.503   0.019  0.00  0.00    +0.165 HD
ATOM     19  C   UNL     1      -0.802   3.180   0.027  0.00  0.00    +0.047 A 
ATOM     20  C   UNL     1       0.604   3.248   0.014  0.00  0.00    +0.005 A 
ATOM     21  C   UNL     1       1.241   4.490   0.014  0.00  0.00    +0.010 A 
ATOM     22  C   UNL     1       0.495   5.635   0.027  0.00  0.00    +0.001 A 
ATOM     23  C   UNL     1      -0.891   5.573   0.040  0.00  0.00    +0.002 A 
ATOM     24  C   UNL     1      -1.541   4.358   0.040  0.00  0.00    +0.026 A 
ENDBRANCH   8  15
BRANCH   1  26
ATOM     25  N   UNL     1       2.601  -3.687  -2.349  0.00  0.00    -0.305 N 
ATOM     26  C   UNL     1       2.600  -2.459  -1.794  0.00  0.00    +0.246 C 
ATOM     27  O   UNL     1       2.851  -1.484  -2.475  0.00  0.00    -0.270 OA
ATOM     28  H   UNL     1       2.401  -4.465  -1.805  0.00  0.00    +0.150 HD
BRANCH  25  30
ATOM     29  C   UNL     1       1.629  -3.639  -4.592  0.00  0.00    +0.033 C 
ATOM     30  C   UNL     1       2.904  -3.848  -3.773  0.00  0.00    +0.100 C 
BRANCH  30  31
ATOM     31  C   UNL     1       3.438  -5.235  -4.020  0.00  0.00    -0.027 A 
ATOM     32  C   UNL     1       2.885  -6.316  -3.360  0.00  0.00    +0.005 A 
ATOM     33  C   UNL     1       3.372  -7.589  -3.590  0.00  0.00    +0.000 A 
ATOM     34  C   UNL     1       4.419  -7.780  -4.473  0.00  0.00    +0.000 A 
ATOM     35  C   UNL     1       4.976  -6.698  -5.128  0.00  0.00    +0.000 A 
ATOM     36  C   UNL     1       4.485  -5.425  -4.902  0.00  0.00    +0.005 A 
ENDBRANCH  30  31
ENDBRANCH  25  30
ENDBRANCH   1  26
TORSDOF 4
