REMARK  Name = ZINC64820700
REMARK  8 active torsions:
REMARK  status: ('A' for Active; 'I' for Inactive)
REMARK    1  A    between atoms: C_1  and  C_2
REMARK    2  A    between atoms: C_2  and  O_3
REMARK    3  A    between atoms: O_3  and  C_4
REMARK    4  A    between atoms: C_4  and  C_6
REMARK    5  A    between atoms: N_11  and  C_13
REMARK    6  A    between atoms: C_16  and  C_29
REMARK    7  A    between atoms: C_18  and  N_19
REMARK    8  A    between atoms: C_20  and  C_22
REMARK                            x       y       z     vdW  Elec       q    Type
REMARK                         _______ _______ _______ _____ _____    ______ ____
ROOT
ATOM      1  C   UNL     1      -4.609  -5.462   0.798  0.00  0.00    +0.051 A 
ATOM      2  C   UNL     1      -4.415  -6.820   0.564  0.00  0.00    +0.026 A 
ATOM      3  C   UNL     1      -4.878  -7.750   1.466  0.00  0.00    +0.017 A 
ATOM      4  C   UNL     1      -5.547  -7.332   2.623  0.00  0.00    +0.065 A 
ATOM      5  C   UNL     1      -5.743  -5.967   2.861  0.00  0.00    +0.040 A 
ATOM      6  C   UNL     1      -5.271  -5.037   1.954  0.00  0.00    +0.056 A 
ENDROOT
BRANCH   1  11
ATOM      7  C   UNL     1      -2.869  -2.446   0.019  0.00  0.00    +0.115 C 
ATOM      8  C   UNL     1      -3.630  -1.972  -1.222  0.00  0.00    +0.018 C 
ATOM      9  C   UNL     1      -5.052  -2.538  -1.197  0.00  0.00    +0.020 C 
ATOM     10  C   UNL     1      -4.989  -4.068  -1.223  0.00  0.00    +0.105 C 
ATOM     11  N   UNL     1      -4.139  -4.526  -0.116  0.00  0.00    -0.328 N 
ATOM     12  C   UNL     1      -2.782  -3.976   0.007  0.00  0.00    +0.119 C 
BRANCH   7  13
ATOM     13  C   UNL     1      -1.480  -1.863   0.010  0.00  0.00    +0.312 C 
ATOM     14  O   UNL     1      -0.518  -2.594  -0.003  0.00  0.00    -0.250 OA
BRANCH  13  15
ATOM     15  O   UNL     1      -1.311  -0.531   0.017  0.00  0.00    -0.465 OA
BRANCH  15  17
ATOM     16  C   UNL     1       0.025   1.482   0.018  0.00  0.00    +0.048 C 
ATOM     17  C   UNL     1       0.034  -0.048   0.008  0.00  0.00    +0.229 C 
ENDBRANCH  15  17
ENDBRANCH  13  15
ENDBRANCH   7  13
ENDBRANCH   1  11
BRANCH   6  18
ATOM     18  N   UNL     1      -5.460  -3.670   2.191  0.00  0.00    -0.280 N 
ATOM     19  C   UNL     1      -5.624  -3.220   3.451  0.00  0.00    +0.248 C 
ATOM     20  O   UNL     1      -5.508  -3.985   4.389  0.00  0.00    -0.270 OA
ATOM     21  H   UNL     1      -5.473  -3.046   1.448  0.00  0.00    +0.155 HD
BRANCH  19  22
ATOM     22  C   UNL     1      -5.945  -1.798   3.692  0.00  0.00    +0.037 A 
ATOM     23  C   UNL     1      -6.085  -0.919   2.617  0.00  0.00    +0.014 A 
ATOM     24  C   UNL     1      -6.385   0.407   2.848  0.00  0.00    +0.016 A 
ATOM     25  C   UNL     1      -6.548   0.867   4.144  0.00  0.00    +0.018 A 
ATOM     26  C   UNL     1      -6.411   0.000   5.215  0.00  0.00    +0.016 A 
ATOM     27  C   UNL     1      -6.116  -1.329   4.996  0.00  0.00    +0.014 A 
ATOM     28 BR   UNL     1      -6.960   2.687   4.453  0.00  0.00    -0.050 Br
ENDBRANCH  19  22
ENDBRANCH   6  18
BRANCH   4  29
ATOM     29  C   UNL     1      -6.043  -8.327   3.587  0.00  0.00    +0.387 C 
ATOM     30  O   UNL     1      -5.872  -9.520   3.378  0.00  0.00    -0.241 OA
ATOM     31  O   UNL     1      -6.627  -7.961   4.598  0.00  0.00    -0.241 OA
ENDBRANCH   4  29
TORSDOF 7
