REMARK  Name = ZINC12714943
REMARK  12 active torsions:
REMARK  status: ('A' for Active; 'I' for Inactive)
REMARK    1  A    between atoms: C_1  and  C_2
REMARK    2  A    between atoms: C_5  and  C_7
REMARK    3  A    between atoms: C_7  and  C_9
REMARK    4  A    between atoms: C_7  and  N_19
REMARK    5  A    between atoms: N_11  and  C_12
REMARK    6  A    between atoms: C_12  and  C_13
REMARK    7  A    between atoms: N_19  and  C_20
REMARK    8  A    between atoms: C_22  and  C_27
REMARK    9  A    between atoms: C_24  and  C_26
REMARK   10  A    between atoms: C_28  and  C_30
REMARK   11  A    between atoms: C_31  and  N_38
REMARK   12  A    between atoms: C_32  and  C_35
REMARK                            x       y       z     vdW  Elec       q    Type
REMARK                         _______ _______ _______ _____ _____    ______ ____
ROOT
ATOM      1  N   UNL     1       2.409  -3.486  -0.674  0.00  0.00    -0.248 N 
ATOM      2  C   UNL     1       2.605  -4.566  -1.456  0.00  0.00    +0.262 C 
ATOM      3  O   UNL     1       1.738  -5.414  -1.551  0.00  0.00    -0.269 OA
ENDROOT
BRANCH   1   4
ATOM      4  C   UNL     1       3.442  -2.562  -0.486  0.00  0.00    +0.038 A 
ATOM      5  C   UNL     1       3.522  -1.434  -1.293  0.00  0.00    +0.027 A 
ATOM      6  C   UNL     1       4.543  -0.523  -1.105  0.00  0.00    -0.048 A 
ATOM      7  C   UNL     1       5.485  -0.733  -0.115  0.00  0.00    +0.006 A 
ATOM      8  C   UNL     1       5.409  -1.855   0.690  0.00  0.00    -0.048 A 
ATOM      9  C   UNL     1       4.387  -2.767   0.511  0.00  0.00    +0.027 A 
ATOM     10  C   UNL     1       6.439  -2.081   1.767  0.00  0.00    +0.044 C 
ATOM     11  C   UNL     1       4.630   0.701  -1.979  0.00  0.00    +0.044 C 
ENDBRANCH   1   4
BRANCH   2  12
ATOM     12  C   UNL     1       3.861  -4.718  -2.192  0.00  0.00    +0.116 A 
ATOM     13  C   UNL     1       4.242  -5.712  -3.096  0.00  0.00    +0.076 A 
ATOM     14  C   UNL     1       5.525  -5.533  -3.608  0.00  0.00    +0.155 A 
ATOM     15  N   UNL     1       6.240  -4.498  -3.221  0.00  0.00    -0.203 NA
ATOM     16  S   UNL     1       5.310  -3.681  -2.180  0.00  0.00    +0.019 S 
BRANCH  14  17
ATOM     17  C   UNL     1       6.079  -6.497  -4.577  0.00  0.00    +0.262 C 
ATOM     18  O   UNL     1       5.379  -7.392  -5.011  0.00  0.00    -0.269 OA
ATOM     19  N   UNL     1       7.360  -6.387  -4.980  0.00  0.00    -0.324 N 
ATOM     20  H   UNL     1       7.918  -5.673  -4.634  0.00  0.00    +0.145 HD
ATOM     21  H   UNL     1       7.724  -7.022  -5.617  0.00  0.00    +0.145 HD
ENDBRANCH  14  17
BRANCH  13  22
ATOM     22  N   UNL     1       3.421  -6.775  -3.449  0.00  0.00    -0.355 N 
ATOM     23  H   UNL     1       2.493  -6.784  -3.170  0.00  0.00    +0.142 HD
ATOM     24  H   UNL     1       3.777  -7.508  -3.975  0.00  0.00    +0.142 HD
ENDBRANCH  13  22
ENDBRANCH   2  12
BRANCH   1  25
ATOM     25  C   UNL     1       1.115  -3.280  -0.020  0.00  0.00    +0.233 C 
BRANCH  25  30
ATOM     26  C   UNL     1       0.828   1.613  -1.213  0.00  0.00    +0.086 C 
ATOM     27  C   UNL     1       0.427   0.184  -0.948  0.00  0.00    +0.102 A 
ATOM     28  C   UNL     1      -0.818  -0.314  -1.046  0.00  0.00    +0.045 A 
ATOM     29  C   UNL     1      -0.738  -1.685  -0.712  0.00  0.00    +0.047 A 
ATOM     30  C   UNL     1       0.552  -1.943  -0.430  0.00  0.00    +0.135 A 
ATOM     31  O   UNL     1       1.254  -0.808  -0.580  0.00  0.00    -0.462 OA
ENDBRANCH  25  30
BRANCH  25  32
ATOM     32  C   UNL     1       1.296  -3.311   1.475  0.00  0.00    +0.242 C 
ATOM     33  O   UNL     1       2.409  -3.399   1.949  0.00  0.00    -0.273 OA
ATOM     34  N   UNL     1       0.222  -3.242   2.286  0.00  0.00    -0.311 N 
ATOM     35  H   UNL     1      -0.668  -3.172   1.907  0.00  0.00    +0.149 HD
BRANCH  34  36
ATOM     36  C   UNL     1       0.399  -3.272   3.740  0.00  0.00    +0.135 C 
BRANCH  36  37
ATOM     37  C   UNL     1      -0.968  -3.180   4.422  0.00  0.00    +0.135 C 
ATOM     38  C   UNL     1      -0.801  -3.175   5.963  0.00  0.00    +0.035 C 
ATOM     39  C   UNL     1      -2.105  -2.452   6.398  0.00  0.00    +0.031 C 
ATOM     40  C   UNL     1      -2.321  -1.445   5.248  0.00  0.00    +0.160 C 
ATOM     41  O   UNL     1      -1.598  -1.928   4.107  0.00  0.00    -0.375 OA
ENDBRANCH  36  37
ENDBRANCH  34  36
ENDBRANCH  25  32
ENDBRANCH   1  25
TORSDOF 9
