REMARK  Name = ZINC12063477
REMARK  14 active torsions:
REMARK  status: ('A' for Active; 'I' for Inactive)
REMARK    1  A    between atoms: C_1  and  C_2
REMARK    2  A    between atoms: C_2  and  O_3
REMARK    3  A    between atoms: O_3  and  C_4
REMARK    4  A    between atoms: C_4  and  C_5
REMARK    5  A    between atoms: C_5  and  N_6
REMARK    6  A    between atoms: C_8  and  C_37
REMARK    7  A    between atoms: C_11  and  C_36
REMARK    8  A    between atoms: N_15  and  C_16
REMARK    9  A    between atoms: C_16  and  C_18
REMARK   10  A    between atoms: C_21  and  S_24
REMARK   11  A    between atoms: S_24  and  N_27
REMARK   12  A    between atoms: N_27  and  C_28
REMARK   13  A    between atoms: N_27  and  C_29
REMARK   14  A    between atoms: C_29  and  C_30
REMARK                            x       y       z     vdW  Elec       q    Type
REMARK                         _______ _______ _______ _____ _____    ______ ____
ROOT
ATOM      1  C   UNL     1       1.387   4.417   3.479  0.00  0.00    +0.269 C 
ATOM      2  O   UNL     1       1.369   5.624   3.310  0.00  0.00    -0.268 OA
ENDROOT
BRANCH   1  12
ATOM      3  N   UNL     1       1.515   3.421   0.013  0.00  0.00    -0.319 N 
ATOM      4  C   UNL     1       1.544   4.118  -1.180  0.00  0.00    +0.061 A 
ATOM      5  C   UNL     1       1.590   3.607  -2.486  0.00  0.00    -0.026 A 
ATOM      6  C   UNL     1       1.607   4.451  -3.571  0.00  0.00    +0.006 A 
ATOM      7  C   UNL     1       1.575   5.826  -3.412  0.00  0.00    +0.005 A 
ATOM      8  C   UNL     1       1.525   6.357  -2.135  0.00  0.00    -0.035 A 
ATOM      9  C   UNL     1       1.508   5.514  -1.050  0.00  0.00    +0.042 A 
ATOM     10  S   UNL     1       1.448   5.758   0.708  0.00  0.00    -0.052 S 
ATOM     11  C   UNL     1       1.465   4.093   1.195  0.00  0.00    +0.167 A 
ATOM     12  N   UNL     1       1.436   3.595   2.426  0.00  0.00    -0.152 NA
ATOM     13  C   UNL     1       1.489   7.851  -1.936  0.00  0.00    +0.045 C 
ATOM     14  C   UNL     1       1.625   2.116  -2.702  0.00  0.00    +0.046 C 
BRANCH   3  15
ATOM     15  C   UNL     1       1.544   1.956   0.006  0.00  0.00    +0.152 C 
BRANCH  15  16
ATOM     16  C   UNL     1       0.115   1.418  -0.075  0.00  0.00    +0.181 C 
BRANCH  16  17
ATOM     17  O   UNL     1       0.143  -0.011  -0.082  0.00  0.00    -0.378 OA
BRANCH  17  19
ATOM     18  C   UNL     1      -0.997  -2.140  -0.157  0.00  0.00    +0.034 C 
ATOM     19  C   UNL     1      -1.149  -0.617  -0.156  0.00  0.00    +0.156 C 
ENDBRANCH  17  19
ENDBRANCH  16  17
ENDBRANCH  15  16
ENDBRANCH   3  15
ENDBRANCH   1  12
BRANCH   1  20
ATOM     20  C   UNL     1       1.354   3.861   4.852  0.00  0.00    +0.039 A 
ATOM     21  C   UNL     1       1.368   2.480   5.049  0.00  0.00    +0.015 A 
ATOM     22  C   UNL     1       1.342   1.968   6.330  0.00  0.00    +0.029 A 
ATOM     23  C   UNL     1       1.292   2.822   7.418  0.00  0.00    +0.106 A 
ATOM     24  C   UNL     1       1.272   4.192   7.229  0.00  0.00    +0.029 A 
ATOM     25  C   UNL     1       1.303   4.716   5.952  0.00  0.00    +0.015 A 
BRANCH  23  26
ATOM     26  S   UNL     1       1.252   2.161   9.050  0.00  0.00    +0.061 S 
ATOM     27  O   UNL     1       1.830   0.865   8.978  0.00  0.00    -0.153 OA
ATOM     28  O   UNL     1       1.757   3.173   9.911  0.00  0.00    -0.153 OA
BRANCH  26  29
ATOM     29  N   UNL     1      -0.340   1.948   9.454  0.00  0.00    -0.177 NA
ATOM     30  C   UNL     1      -1.007   0.677   9.157  0.00  0.00    +0.131 C 
BRANCH  29  31
ATOM     31  C   UNL     1      -1.081   3.029  10.107  0.00  0.00    +0.140 C 
BRANCH  31  32
ATOM     32  C   UNL     1      -1.835   3.840   9.053  0.00  0.00    +0.134 C 
ATOM     33  C   UNL     1      -2.619   4.981   9.730  0.00  0.00    +0.035 C 
ATOM     34  C   UNL     1      -2.066   6.267   9.068  0.00  0.00    +0.031 C 
ATOM     35  C   UNL     1      -1.459   5.719   7.751  0.00  0.00    +0.160 C 
ATOM     36  O   UNL     1      -0.902   4.445   8.142  0.00  0.00    -0.375 OA
ENDBRANCH  31  32
ENDBRANCH  29  31
ENDBRANCH  26  29
ENDBRANCH  23  26
ENDBRANCH   1  20
TORSDOF 10
