REMARK  Name = ZINC15885943
REMARK  12 active torsions:
REMARK  status: ('A' for Active; 'I' for Inactive)
REMARK    1  A    between atoms: C_1  and  C_2
REMARK    2  A    between atoms: C_5  and  C_35
REMARK    3  A    between atoms: N_8  and  S_10
REMARK    4  A    between atoms: S_10  and  C_13
REMARK    5  A    between atoms: C_17  and  C_19
REMARK    6  A    between atoms: N_21  and  N_22
REMARK    7  A    between atoms: N_22  and  C_23
REMARK    8  A    between atoms: C_23  and  N_25
REMARK    9  A    between atoms: N_25  and  C_26
REMARK   10  A    between atoms: C_29  and  C_32
REMARK   11  A    between atoms: C_32  and  C_33
REMARK   12  A    between atoms: C_32  and  C_34
REMARK                            x       y       z     vdW  Elec       q    Type
REMARK                         _______ _______ _______ _____ _____    ______ ____
ROOT
ATOM      1  C   UNL     1      -2.569   3.948   0.004  0.00  0.00    +0.260 C 
ATOM      2  O   UNL     1      -2.584   5.113  -0.341  0.00  0.00    -0.269 OA
ATOM      3  N   UNL     1      -3.714   3.238   0.030  0.00  0.00    -0.231 N 
ATOM      4  H   UNL     1      -3.701   2.308   0.306  0.00  0.00    +0.173 HD
ENDROOT
BRANCH   1   9
ATOM      5  C   UNL     1       1.080   3.440   0.734  0.00  0.00    +0.106 A 
ATOM      6  C   UNL     1       1.095   2.113   1.126  0.00  0.00    +0.028 A 
ATOM      7  C   UNL     1      -0.079   1.381   1.154  0.00  0.00    +0.003 A 
ATOM      8  C   UNL     1      -1.272   1.970   0.786  0.00  0.00    +0.013 A 
ATOM      9  C   UNL     1      -1.294   3.309   0.395  0.00  0.00    +0.040 A 
ATOM     10  C   UNL     1      -0.106   4.042   0.369  0.00  0.00    +0.041 A 
BRANCH   5  11
ATOM     11  S   UNL     1       2.581   4.363   0.701  0.00  0.00    +0.061 S 
ATOM     12  O   UNL     1       2.219   5.732   0.823  0.00  0.00    -0.153 OA
ATOM     13  O   UNL     1       3.469   3.727   1.610  0.00  0.00    -0.153 OA
BRANCH  11  19
ATOM     14  C   UNL     1       4.680   1.233  -2.699  0.00  0.00    +0.009 C 
ATOM     15  C   UNL     1       3.655   2.299  -2.307  0.00  0.00    +0.002 C 
ATOM     16  C   UNL     1       3.449   3.264  -3.476  0.00  0.00    +0.009 C 
ATOM     17  C   UNL     1       2.400   4.311  -3.097  0.00  0.00    +0.002 C 
ATOM     18  C   UNL     1       2.898   5.114  -1.890  0.00  0.00    +0.112 C 
ATOM     19  N   UNL     1       3.236   4.179  -0.808  0.00  0.00    -0.176 NA
ATOM     20  C   UNL     1       4.172   3.082  -1.090  0.00  0.00    +0.112 C 
ATOM     21  C   UNL     1       1.087   3.612  -2.739  0.00  0.00    +0.009 C 
ENDBRANCH  11  19
ENDBRANCH   5  11
ENDBRANCH   1   9
BRANCH   3  22
ATOM     22  N   UNL     1      -4.922   3.843  -0.340  0.00  0.00    -0.245 N 
ATOM     23  H   UNL     1      -4.934   4.773  -0.615  0.00  0.00    +0.172 HD
BRANCH  22  24
ATOM     24  C   UNL     1      -6.067   3.132  -0.314  0.00  0.00    +0.151 C 
ATOM     25  S   UNL     1      -7.543   3.872  -0.766  0.00  0.00    -0.017 S 
BRANCH  24  26
ATOM     26  N   UNL     1      -6.050   1.840   0.069  0.00  0.00    -0.296 N 
ATOM     27  H   UNL     1      -5.206   1.404   0.266  0.00  0.00    +0.154 HD
BRANCH  26  28
ATOM     28  C   UNL     1      -7.249   1.129   0.183  0.00  0.00    +0.033 A 
ATOM     29  C   UNL     1      -7.481   0.329   1.294  0.00  0.00    +0.023 A 
ATOM     30  C   UNL     1      -8.668  -0.367   1.407  0.00  0.00    +0.006 A 
ATOM     31  C   UNL     1      -9.620  -0.279   0.408  0.00  0.00    -0.045 A 
ATOM     32  C   UNL     1      -9.390   0.512  -0.703  0.00  0.00    +0.006 A 
ATOM     33  C   UNL     1      -8.208   1.216  -0.818  0.00  0.00    +0.023 A 
BRANCH  31  34
ATOM     34  C   UNL     1     -10.912  -1.046   0.530  0.00  0.00    +0.013 C 
ATOM     35  C   UNL     1     -10.610  -2.543   0.622  0.00  0.00    +0.012 C 
ATOM     36  C   UNL     1     -11.654  -0.597   1.791  0.00  0.00    +0.012 C 
ENDBRANCH  31  34
ENDBRANCH  26  28
ENDBRANCH  24  26
ENDBRANCH  22  24
ENDBRANCH   3  22
TORSDOF 8
