REMARK  Name = ZINC20665324
REMARK  8 active torsions:
REMARK  status: ('A' for Active; 'I' for Inactive)
REMARK    1  A    between atoms: C_3  and  C_8
REMARK    2  A    between atoms: C_8  and  N_9
REMARK    3  A    between atoms: N_9  and  C_10
REMARK    4  A    between atoms: N_9  and  S_21
REMARK    5  A    between atoms: C_10  and  C_11
REMARK    6  A    between atoms: C_14  and  C_17
REMARK    7  A    between atoms: N_19  and  O_20
REMARK    8  A    between atoms: S_21  and  C_24
REMARK                            x       y       z     vdW  Elec       q    Type
REMARK                         _______ _______ _______ _____ _____    ______ ____
ROOT
ATOM      1  N   UNL     1       0.906  -0.486   1.049  0.00  0.00    -0.172 NA
ENDROOT
BRANCH   1   2
ATOM      2  S   UNL     1       2.526  -0.635   0.735  0.00  0.00    +0.061 S 
ATOM      3  O   UNL     1       3.049  -1.521   1.716  0.00  0.00    -0.153 OA
ATOM      4  O   UNL     1       2.648  -0.883  -0.659  0.00  0.00    -0.153 OA
BRANCH   2   5
ATOM      5  C   UNL     1       3.261   0.938   1.033  0.00  0.00    +0.106 A 
ATOM      6  C   UNL     1       3.362   1.859   0.007  0.00  0.00    +0.030 A 
ATOM      7  C   UNL     1       3.934   3.095   0.242  0.00  0.00    +0.022 A 
ATOM      8  C   UNL     1       4.416   3.406   1.500  0.00  0.00    +0.041 A 
ATOM      9  C   UNL     1       4.320   2.482   2.526  0.00  0.00    +0.022 A 
ATOM     10  C   UNL     1       3.743   1.248   2.291  0.00  0.00    +0.030 A 
ATOM     11 CL   UNL     1       5.140   4.957   1.794  0.00  0.00    -0.084 Cl
ENDBRANCH   2   5
ENDBRANCH   1   2
BRANCH   1  12
ATOM     12  C   UNL     1       0.395  -0.745   2.397  0.00  0.00    +0.144 C 
BRANCH  12  15
ATOM     13  C   UNL     1       0.385  -4.476   2.976  0.00  0.00    +0.001 A 
ATOM     14  C   UNL     1       0.811  -3.163   2.887  0.00  0.00    +0.005 A 
ATOM     15  C   UNL     1      -0.070  -2.175   2.492  0.00  0.00    -0.031 A 
ATOM     16  C   UNL     1      -1.380  -2.497   2.189  0.00  0.00    +0.020 A 
ATOM     17  C   UNL     1      -1.806  -3.810   2.272  0.00  0.00    +0.018 A 
ATOM     18  C   UNL     1      -0.923  -4.799   2.668  0.00  0.00    +0.015 A 
ATOM     19 BR   UNL     1      -3.596  -4.253   1.852  0.00  0.00    -0.050 Br
ENDBRANCH  12  15
ENDBRANCH   1  12
BRANCH   1  20
ATOM     20  C   UNL     1      -0.014  -0.095  -0.022  0.00  0.00    +0.113 C 
BRANCH  20  21
ATOM     21  C   UNL     1      -0.193   1.424  -0.011  0.00  0.00    +0.005 C 
ATOM     22  C   UNL     1      -0.887   1.847   1.285  0.00  0.00    +0.005 C 
ATOM     23  C   UNL     1      -1.066   3.366   1.295  0.00  0.00    +0.013 C 
ATOM     24  C   UNL     1      -1.921   3.788   0.098  0.00  0.00    +0.077 C 
ATOM     25  C   UNL     1      -1.226   3.365  -1.198  0.00  0.00    +0.013 C 
ATOM     26  C   UNL     1      -1.048   1.845  -1.208  0.00  0.00    +0.005 C 
BRANCH  24  27
ATOM     27  C   UNL     1      -3.270   3.122   0.185  0.00  0.00    +0.239 C 
ATOM     28  O   UNL     1      -3.640   2.383  -0.702  0.00  0.00    -0.273 OA
ATOM     29  N   UNL     1      -4.066   3.349   1.249  0.00  0.00    -0.197 N 
ATOM     30  H   UNL     1      -3.731   4.020   2.054  0.00  0.00    +0.182 HD
BRANCH  29  31
ATOM     31  O   UNL     1      -5.334   2.724   1.331  0.00  0.00    -0.295 OA
ATOM     32  H   UNL     1      -5.984   2.909   2.199  0.00  0.00    +0.241 HD
ENDBRANCH  29  31
ENDBRANCH  24  27
ENDBRANCH  20  21
ENDBRANCH   1  20
TORSDOF 8
