REMARK  Name = ZINC18210519
REMARK  12 active torsions:
REMARK  status: ('A' for Active; 'I' for Inactive)
REMARK    1  A    between atoms: C_1  and  C_2
REMARK    2  A    between atoms: C_2  and  C_3
REMARK    3  A    between atoms: C_4  and  C_38
REMARK    4  A    between atoms: C_6  and  N_12
REMARK    5  A    between atoms: C_7  and  C_8
REMARK    6  A    between atoms: C_8  and  O_10
REMARK    7  A    between atoms: O_10  and  C_11
REMARK    8  A    between atoms: C_13  and  C_15
REMARK    9  A    between atoms: C_20  and  C_34
REMARK   10  A    between atoms: C_23  and  C_26
REMARK   11  A    between atoms: C_29  and  O_32
REMARK   12  A    between atoms: O_32  and  C_33
REMARK                            x       y       z     vdW  Elec       q    Type
REMARK                         _______ _______ _______ _____ _____    ______ ____
ROOT
ATOM      1  C   UNL     1       5.730  -2.228  -4.299  0.00  0.00    +0.149 A 
ATOM      2  C   UNL     1       6.225  -2.675  -5.545  0.00  0.00    +0.078 A 
ATOM      3  C   UNL     1       7.553  -2.857  -5.414  0.00  0.00    +0.119 A 
ATOM      4  N   UNL     1       7.902  -2.537  -4.133  0.00  0.00    -0.238 N 
ATOM      5  N   UNL     1       6.747  -2.145  -3.459  0.00  0.00    -0.164 NA
ATOM      6  C   UNL     1       9.274  -2.609  -3.621  0.00  0.00    +0.215 C 
ATOM      7  C   UNL     1      10.246  -2.609  -4.807  0.00  0.00    +0.063 C 
ATOM      8  C   UNL     1       9.816  -3.662  -5.834  0.00  0.00    +0.104 C 
ATOM      9  N   UNL     1       8.487  -3.292  -6.359  0.00  0.00    -0.322 N 
ATOM     10  H   UNL     1       8.275  -3.346  -7.304  0.00  0.00    +0.148 HD
ENDROOT
BRANCH   8  11
ATOM     11  C   UNL     1      10.816  -3.707  -6.961  0.00  0.00    -0.027 A 
ATOM     12  C   UNL     1      10.769  -2.755  -7.963  0.00  0.00    +0.009 A 
ATOM     13  C   UNL     1      11.684  -2.794  -8.998  0.00  0.00    +0.046 A 
ATOM     14  C   UNL     1      12.650  -3.789  -9.031  0.00  0.00    +0.120 A 
ATOM     15  C   UNL     1      12.695  -4.742  -8.024  0.00  0.00    +0.046 A 
ATOM     16  C   UNL     1      11.781  -4.696  -6.989  0.00  0.00    +0.009 A 
BRANCH  14  17
ATOM     17  O   UNL     1      13.550  -3.829 -10.047  0.00  0.00    -0.495 OA
ATOM     18  C   UNL     1      14.517  -4.882 -10.017  0.00  0.00    +0.277 C 
ENDBRANCH  14  17
ENDBRANCH   8  11
BRANCH   1  20
ATOM     19  N   UNL     1       3.982  -1.482  -2.758  0.00  0.00    -0.274 N 
ATOM     20  C   UNL     1       4.322  -1.905  -3.991  0.00  0.00    +0.269 C 
ATOM     21  O   UNL     1       3.470  -2.021  -4.850  0.00  0.00    -0.268 OA
ATOM     22  H   UNL     1       4.662  -1.389  -2.072  0.00  0.00    +0.156 HD
BRANCH  19  26
ATOM     23  C   UNL     1       0.707  -0.490  -1.238  0.00  0.00    -0.022 A 
ATOM     24  C   UNL     1       0.050  -0.726  -2.388  0.00  0.00    -0.008 A 
ATOM     25  S   UNL     1       1.336  -1.266  -3.493  0.00  0.00    -0.078 S 
ATOM     26  C   UNL     1       2.662  -1.179  -2.469  0.00  0.00    +0.087 A 
ATOM     27  C   UNL     1       2.133  -0.727  -1.267  0.00  0.00    +0.091 A 
ATOM     28  C   UNL     1      -1.422  -0.569  -2.672  0.00  0.00    +0.052 C 
BRANCH  23  30
ATOM     29  C   UNL     1      -0.019   1.526   0.010  0.00  0.00    +0.009 C 
ATOM     30  C   UNL     1       0.002  -0.004   0.002  0.00  0.00    +0.033 C 
ENDBRANCH  23  30
BRANCH  27  31
ATOM     31  C   UNL     1       2.975  -0.506  -0.089  0.00  0.00    +0.342 C 
ATOM     32  O   UNL     1       3.165  -1.412   0.700  0.00  0.00    -0.245 OA
BRANCH  31  33
ATOM     33  O   UNL     1       3.539   0.701   0.120  0.00  0.00    -0.464 OA
ATOM     34  C   UNL     1       4.348   0.845   1.289  0.00  0.00    +0.280 C 
ENDBRANCH  31  33
ENDBRANCH  27  31
ENDBRANCH  19  26
ENDBRANCH   1  20
BRANCH   6  35
ATOM     35  C   UNL     1       9.552  -1.399  -2.727  0.00  0.00    +0.412 C 
ATOM     36  F   UNL     1       8.655  -1.397  -1.654  0.00  0.00    -0.168 F 
ATOM     37  F   UNL     1      10.861  -1.470  -2.240  0.00  0.00    -0.168 F 
ATOM     38  F   UNL     1       9.393  -0.224  -3.470  0.00  0.00    -0.168 F 
ENDBRANCH   6  35
TORSDOF 8
