REMARK  Name = ZINC35704651
REMARK  12 active torsions:
REMARK  status: ('A' for Active; 'I' for Inactive)
REMARK    1  A    between atoms: C_1  and  C_2
REMARK    2  A    between atoms: C_6  and  C_8
REMARK    3  A    between atoms: C_10  and  C_30
REMARK    4  A    between atoms: C_11  and  C_29
REMARK    5  A    between atoms: C_15  and  C_18
REMARK    6  A    between atoms: C_19  and  N_21
REMARK    7  A    between atoms: N_21  and  C_22
REMARK    8  A    between atoms: C_22  and  C_23
REMARK    9  A    between atoms: C_30  and  O_32
REMARK   10  A    between atoms: O_32  and  C_33
REMARK   11  A    between atoms: C_33  and  C_34
REMARK   12  A    between atoms: C_33  and  C_35
REMARK                            x       y       z     vdW  Elec       q    Type
REMARK                         _______ _______ _______ _____ _____    ______ ____
ROOT
ATOM      1  C   UNL     1      -0.133  -2.606   2.436  0.00  0.00    +0.150 C 
ATOM      2  C   UNL     1       1.336  -2.862   2.692  0.00  0.00    +0.082 C 
ATOM      3  C   UNL     1       1.758  -4.176   2.758  0.00  0.00    +0.053 C 
ATOM      4  N   UNL     1       0.895  -5.167   2.600  0.00  0.00    -0.230 NA
ATOM      5  C   UNL     1      -0.393  -5.012   2.375  0.00  0.00    +0.166 C 
ATOM      6  N   UNL     1      -1.009  -3.796   2.274  0.00  0.00    -0.267 N 
ATOM      7  C   UNL     1      -2.369  -3.801   2.034  0.00  0.00    +0.048 C 
ATOM      8  C   UNL     1      -2.981  -5.000   1.918  0.00  0.00    +0.072 C 
ATOM      9  S   UNL     1      -1.625  -6.130   2.151  0.00  0.00    -0.060 S 
ATOM     10  C   UNL     1       3.211  -4.483   3.011  0.00  0.00    +0.066 C 
ENDROOT
BRANCH   1  16
ATOM     11  C   UNL     1      -0.799   1.839   0.235  0.00  0.00    +0.044 C 
ATOM     12  C   UNL     1      -0.566   0.354   0.132  0.00  0.00    -0.050 A 
ATOM     13  C   UNL     1      -0.457  -0.244  -1.109  0.00  0.00    +0.003 A 
ATOM     14  C   UNL     1      -0.243  -1.606  -1.204  0.00  0.00    +0.001 A 
ATOM     15  C   UNL     1      -0.138  -2.371  -0.056  0.00  0.00    +0.006 A 
ATOM     16  C   UNL     1      -0.246  -1.772   1.185  0.00  0.00    -0.022 A 
ATOM     17  C   UNL     1      -0.456  -0.409   1.279  0.00  0.00    +0.009 A 
ENDBRANCH   1  16
BRANCH   7  18
ATOM     18  C   UNL     1      -3.124  -2.546   1.909  0.00  0.00    +0.091 C 
ATOM     19  C   UNL     1      -4.467  -2.575   1.816  0.00  0.00    +0.239 C 
ATOM     20  O   UNL     1      -5.133  -3.744   1.976  0.00  0.00    -0.271 OA
BRANCH  19  21
ATOM     21  N   UNL     1      -5.168  -1.409   1.556  0.00  0.00    -0.309 N 
ATOM     22  H   UNL     1      -4.689  -0.587   1.368  0.00  0.00    +0.149 HD
BRANCH  21  23
ATOM     23  C   UNL     1      -6.633  -1.418   1.564  0.00  0.00    +0.136 C 
BRANCH  23  24
ATOM     24  C   UNL     1      -7.154  -0.047   1.129  0.00  0.00    +0.135 C 
ATOM     25  C   UNL     1      -8.693  -0.009   1.251  0.00  0.00    +0.035 C 
ATOM     26  C   UNL     1      -9.103   0.795  -0.013  0.00  0.00    +0.031 C 
ATOM     27  C   UNL     1      -8.022   0.329  -1.021  0.00  0.00    +0.160 C 
ATOM     28  O   UNL     1      -6.821   0.186  -0.244  0.00  0.00    -0.375 OA
ENDBRANCH  23  24
ENDBRANCH  21  23
ENDBRANCH  19  21
ENDBRANCH   7  18
BRANCH   2  29
ATOM     29  C   UNL     1       2.237  -1.804   2.856  0.00  0.00    +0.339 C 
ATOM     30  O   UNL     1       3.428  -2.031   2.984  0.00  0.00    -0.245 OA
BRANCH  29  31
ATOM     31  O   UNL     1       1.787  -0.529   2.874  0.00  0.00    -0.459 OA
BRANCH  31  32
ATOM     32  C   UNL     1       2.763   0.501   3.045  0.00  0.00    +0.171 C 
ATOM     33  C   UNL     1       3.279   0.947   1.676  0.00  0.00    +0.052 C 
ATOM     34  C   UNL     1       2.125   1.692   3.763  0.00  0.00    +0.052 C 
ENDBRANCH  31  32
ENDBRANCH  29  31
ENDBRANCH   2  29
TORSDOF 8
